MODEL        1
REMARK 921   NORMALIZED FREE ENERGY PREDICTED BY IDOCK:   -5.15 KCAL/MOL
REMARK 922        TOTAL FREE ENERGY PREDICTED BY IDOCK:   -5.49 KCAL/MOL
REMARK 923 INTER-LIGAND FREE ENERGY PREDICTED BY IDOCK:   -5.45 KCAL/MOL
REMARK 924 INTRA-LIGAND FREE ENERGY PREDICTED BY IDOCK:   -0.04 KCAL/MOL
REMARK 927      BINDING AFFINITY PREDICTED BY RF-SCORE:    0.00 PKD
ROOT
HETATM    1  N   UNL     1     -11.809  10.806  68.057  1.00  0.00    -0.773 NA 
HETATM    2  C   UNL     1     -11.151  12.088  67.825  1.00  0.00    -0.249 C  
HETATM    3  H1  UNL     1     -11.175  10.129  68.482  1.00  0.00     0.000 HD 
HETATM    4  H2  UNL     1     -12.225  10.441  67.201  1.00  0.00     0.000 HD 
ENDROOT
BRANCH   2   5
HETATM    5  C   UNL     1     -12.110  13.112  67.184  1.00  0.00    -0.343 C  
HETATM    6  C   UNL     1     -11.670  14.570  67.388  1.00  0.00    -0.425 C  
HETATM    7  C   UNL     1     -10.440  14.945  66.561  1.00  0.00    -0.297 C  
HETATM    8  C   UNL     1     -10.626  14.663  65.065  1.00  0.00    -0.461 C  
HETATM    9  C   UNL     1     -11.097  13.220  64.829  1.00  0.00    -0.359 C  
HETATM   10  C   UNL     1     -11.553  15.679  64.398  1.00  0.00    -0.249 C  
HETATM   11  O   UNL     1     -11.077  16.945  64.439  1.00  0.00    -1.128 OA 
HETATM   12  O   UNL     1     -12.600  15.408  63.833  1.00  0.00    -0.725 OA 
HETATM   13  C   UNL     1     -12.303  12.827  65.686  1.00  0.00    -0.444 C  
ENDBRANCH   2   5
TORSDOF 1
ENDMDL
MODEL        2
REMARK 921   NORMALIZED FREE ENERGY PREDICTED BY IDOCK:   -4.85 KCAL/MOL
REMARK 922        TOTAL FREE ENERGY PREDICTED BY IDOCK:   -5.17 KCAL/MOL
REMARK 923 INTER-LIGAND FREE ENERGY PREDICTED BY IDOCK:   -5.12 KCAL/MOL
REMARK 924 INTRA-LIGAND FREE ENERGY PREDICTED BY IDOCK:   -0.05 KCAL/MOL
REMARK 927      BINDING AFFINITY PREDICTED BY RF-SCORE:    0.00 PKD
ROOT
HETATM    1  N   UNL     1     -10.826  12.326  69.207  1.00  0.00    -0.435 NA 
HETATM    2  C   UNL     1     -10.790  12.313  67.749  1.00  0.00    -0.221 C  
HETATM    3  H1  UNL     1     -10.143  11.681  69.606  1.00  0.00     0.000 HD 
HETATM    4  H2  UNL     1     -11.765  12.138  69.558  1.00  0.00     0.000 HD 
ENDROOT
BRANCH   2   5
HETATM    5  C   UNL     1     -11.822  13.288  67.146  1.00  0.00    -0.424 C  
HETATM    6  C   UNL     1     -11.513  14.764  67.443  1.00  0.00    -0.376 C  
HETATM    7  C   UNL     1     -10.306  15.290  66.666  1.00  0.00    -0.281 C  
HETATM    8  C   UNL     1     -10.441  15.082  65.152  1.00  0.00    -0.438 C  
HETATM    9  C   UNL     1     -10.781  13.621  64.824  1.00  0.00    -0.420 C  
HETATM   10  C   UNL     1     -11.440  16.053  64.524  1.00  0.00    -0.271 C  
HETATM   11  O   UNL     1     -11.076  17.350  64.648  1.00  0.00    -1.029 OA 
HETATM   12  O   UNL     1     -12.450  15.728  63.921  1.00  0.00    -0.744 OA 
HETATM   13  C   UNL     1     -11.964  13.076  65.630  1.00  0.00    -0.479 C  
ENDBRANCH   2   5
TORSDOF 1
ENDMDL
MODEL        3
REMARK 921   NORMALIZED FREE ENERGY PREDICTED BY IDOCK:   -4.84 KCAL/MOL
REMARK 922        TOTAL FREE ENERGY PREDICTED BY IDOCK:   -5.16 KCAL/MOL
REMARK 923 INTER-LIGAND FREE ENERGY PREDICTED BY IDOCK:   -5.13 KCAL/MOL
REMARK 924 INTRA-LIGAND FREE ENERGY PREDICTED BY IDOCK:   -0.03 KCAL/MOL
REMARK 927      BINDING AFFINITY PREDICTED BY RF-SCORE:    0.00 PKD
ROOT
HETATM    1  N   UNL     1     -11.658  16.284  63.831  1.00  0.00    -1.573 NA 
HETATM    2  C   UNL     1     -11.049  15.514  64.910  1.00  0.00    -0.416 C  
HETATM    3  H1  UNL     1     -11.056  17.050  63.530  1.00  0.00     0.000 HD 
HETATM    4  H2  UNL     1     -12.586  16.618  64.089  1.00  0.00     0.000 HD 
ENDROOT
BRANCH   2   5
HETATM    5  C   UNL     1     -11.959  14.354  65.365  1.00  0.00    -0.369 C  
HETATM    6  C   UNL     1     -11.600  13.007  64.715  1.00  0.00    -0.368 C  
HETATM    7  C   UNL     1     -10.294  12.417  65.245  1.00  0.00    -0.308 C  
HETATM    8  C   UNL     1     -10.285  12.277  66.773  1.00  0.00    -0.229 C  
HETATM    9  C   UNL     1     -10.671  13.600  67.451  1.00  0.00    -0.272 C  
HETATM   10  C   UNL     1     -11.160  11.118  67.249  1.00  0.00    -0.302 C  
HETATM   11  O   UNL     1     -10.739   9.911  66.804  1.00  0.00    -0.176 OA 
HETATM   12  O   UNL     1     -12.120  11.224  67.995  1.00  0.00    -0.638 OA 
HETATM   13  C   UNL     1     -11.958  14.216  66.895  1.00  0.00    -0.479 C  
ENDBRANCH   2   5
TORSDOF 1
ENDMDL
MODEL        4
REMARK 921   NORMALIZED FREE ENERGY PREDICTED BY IDOCK:   -4.83 KCAL/MOL
REMARK 922        TOTAL FREE ENERGY PREDICTED BY IDOCK:   -5.15 KCAL/MOL
REMARK 923 INTER-LIGAND FREE ENERGY PREDICTED BY IDOCK:   -5.14 KCAL/MOL
REMARK 924 INTRA-LIGAND FREE ENERGY PREDICTED BY IDOCK:   -0.01 KCAL/MOL
REMARK 927      BINDING AFFINITY PREDICTED BY RF-SCORE:    0.00 PKD
ROOT
HETATM    1  N   UNL     1     -11.685  16.354  63.762  1.00  0.00    -1.498 NA 
HETATM    2  C   UNL     1     -10.793  16.337  64.917  1.00  0.00    -0.296 C  
HETATM    3  H1  UNL     1     -11.998  17.300  63.543  1.00  0.00     0.000 HD 
HETATM    4  H2  UNL     1     -12.473  15.721  63.891  1.00  0.00     0.000 HD 
ENDROOT
BRANCH   2   5
HETATM    5  C   UNL     1     -10.319  14.907  65.248  1.00  0.00    -0.424 C  
HETATM    6  C   UNL     1      -9.782  14.760  66.681  1.00  0.00    -0.281 C  
HETATM    7  C   UNL     1     -10.882  14.824  67.741  1.00  0.00    -0.278 C  
HETATM    8  C   UNL     1     -12.000  13.803  67.496  1.00  0.00    -0.411 C  
HETATM    9  C   UNL     1     -12.536  13.904  66.061  1.00  0.00    -0.501 C  
HETATM   10  C   UNL     1     -11.564  12.379  67.840  1.00  0.00    -0.356 C  
HETATM   11  O   UNL     1     -11.248  12.217  69.146  1.00  0.00    -0.243 OA 
HETATM   12  O   UNL     1     -11.537  11.444  67.056  1.00  0.00    -0.510 OA 
HETATM   13  C   UNL     1     -11.434  13.881  64.997  1.00  0.00    -0.343 C  
ENDBRANCH   2   5
TORSDOF 1
ENDMDL
MODEL        5
REMARK 921   NORMALIZED FREE ENERGY PREDICTED BY IDOCK:   -4.70 KCAL/MOL
REMARK 922        TOTAL FREE ENERGY PREDICTED BY IDOCK:   -5.01 KCAL/MOL
REMARK 923 INTER-LIGAND FREE ENERGY PREDICTED BY IDOCK:   -4.96 KCAL/MOL
REMARK 924 INTRA-LIGAND FREE ENERGY PREDICTED BY IDOCK:   -0.06 KCAL/MOL
REMARK 927      BINDING AFFINITY PREDICTED BY RF-SCORE:    0.00 PKD
ROOT
HETATM    1  N   UNL     1     -12.218  15.374  68.949  1.00  0.00    -0.604 NA 
HETATM    2  C   UNL     1     -11.266  15.594  67.865  1.00  0.00    -0.328 C  
HETATM    3  H1  UNL     1     -12.496  16.252  69.388  1.00  0.00     0.000 HD 
HETATM    4  H2  UNL     1     -11.854  14.713  69.635  1.00  0.00     0.000 HD 
ENDROOT
BRANCH   2   5
HETATM    5  C   UNL     1     -10.845  14.267  67.199  1.00  0.00    -0.296 C  
HETATM    6  C   UNL     1     -12.033  13.349  66.866  1.00  0.00    -0.437 C  
HETATM    7  C   UNL     1     -12.878  13.864  65.701  1.00  0.00    -0.467 C  
HETATM    8  C   UNL     1     -12.048  14.121  64.437  1.00  0.00    -0.486 C  
HETATM    9  C   UNL     1     -10.835  15.011  64.744  1.00  0.00    -0.375 C  
HETATM   10  C   UNL     1     -11.638  12.822  63.743  1.00  0.00    -0.481 C  
HETATM   11  O   UNL     1     -12.691  12.095  63.305  1.00  0.00    -0.698 OA 
HETATM   12  O   UNL     1     -10.488  12.466  63.543  1.00  0.00    -0.435 OA 
HETATM   13  C   UNL     1     -10.008  14.522  65.937  1.00  0.00    -0.352 C  
ENDBRANCH   2   5
TORSDOF 1
ENDMDL
MODEL        6
REMARK 921   NORMALIZED FREE ENERGY PREDICTED BY IDOCK:   -4.55 KCAL/MOL
REMARK 922        TOTAL FREE ENERGY PREDICTED BY IDOCK:   -4.86 KCAL/MOL
REMARK 923 INTER-LIGAND FREE ENERGY PREDICTED BY IDOCK:   -4.81 KCAL/MOL
REMARK 924 INTRA-LIGAND FREE ENERGY PREDICTED BY IDOCK:   -0.05 KCAL/MOL
REMARK 927      BINDING AFFINITY PREDICTED BY RF-SCORE:    0.00 PKD
ROOT
HETATM    1  N   UNL     1     -12.064  11.674  63.114  1.00  0.00    -0.950 NA 
HETATM    2  C   UNL     1     -11.092  12.696  63.489  1.00  0.00    -0.395 C  
HETATM    3  H1  UNL     1     -11.637  10.936  62.554  1.00  0.00     0.000 HD 
HETATM    4  H2  UNL     1     -12.870  12.082  62.641  1.00  0.00     0.000 HD 
ENDROOT
BRANCH   2   5
HETATM    5  C   UNL     1     -11.738  13.811  64.337  1.00  0.00    -0.436 C  
HETATM    6  C   UNL     1     -12.650  13.277  65.453  1.00  0.00    -0.526 C  
HETATM    7  C   UNL     1     -11.876  12.621  66.596  1.00  0.00    -0.449 C  
HETATM    8  C   UNL     1     -10.808  13.545  67.194  1.00  0.00    -0.291 C  
HETATM    9  C   UNL     1      -9.898  14.120  66.099  1.00  0.00    -0.326 C  
HETATM   10  C   UNL     1     -11.419  14.645  68.060  1.00  0.00    -0.324 C  
HETATM   11  O   UNL     1     -12.086  14.170  69.138  1.00  0.00    -0.341 OA 
HETATM   12  O   UNL     1     -11.299  15.844  67.861  1.00  0.00    -0.330 OA 
HETATM   13  C   UNL     1     -10.670  14.742  64.932  1.00  0.00    -0.438 C  
ENDBRANCH   2   5
TORSDOF 1
ENDMDL
MODEL        7
REMARK 921   NORMALIZED FREE ENERGY PREDICTED BY IDOCK:   -4.45 KCAL/MOL
REMARK 922        TOTAL FREE ENERGY PREDICTED BY IDOCK:   -4.75 KCAL/MOL
REMARK 923 INTER-LIGAND FREE ENERGY PREDICTED BY IDOCK:   -4.70 KCAL/MOL
REMARK 924 INTRA-LIGAND FREE ENERGY PREDICTED BY IDOCK:   -0.05 KCAL/MOL
REMARK 927      BINDING AFFINITY PREDICTED BY RF-SCORE:    0.00 PKD
ROOT
HETATM    1  N   UNL     1     -10.240  14.213  69.253  1.00  0.00    -0.431 NA 
HETATM    2  C   UNL     1     -10.215  12.995  68.449  1.00  0.00    -0.245 C  
HETATM    3  H1  UNL     1      -9.386  14.319  69.802  1.00  0.00     0.000 HD 
HETATM    4  H2  UNL     1     -11.070  14.252  69.843  1.00  0.00     0.000 HD 
ENDROOT
BRANCH   2   5
HETATM    5  C   UNL     1     -11.505  12.835  67.619  1.00  0.00    -0.387 C  
HETATM    6  C   UNL     1     -11.931  14.126  66.901  1.00  0.00    -0.479 C  
HETATM    7  C   UNL     1     -11.018  14.488  65.730  1.00  0.00    -0.319 C  
HETATM    8  C   UNL     1     -10.880  13.348  64.713  1.00  0.00    -0.387 C  
HETATM    9  C   UNL     1     -10.484  12.035  65.405  1.00  0.00    -0.313 C  
HETATM   10  C   UNL     1     -12.136  13.183  63.858  1.00  0.00    -0.470 C  
HETATM   11  O   UNL     1     -12.414  14.270  63.101  1.00  0.00    -0.612 OA 
HETATM   12  O   UNL     1     -12.818  12.173  63.800  1.00  0.00    -0.718 OA 
HETATM   13  C   UNL     1     -11.371  11.689  66.604  1.00  0.00    -0.338 C  
ENDBRANCH   2   5
TORSDOF 1
ENDMDL
MODEL        8
REMARK 921   NORMALIZED FREE ENERGY PREDICTED BY IDOCK:   -4.34 KCAL/MOL
REMARK 922        TOTAL FREE ENERGY PREDICTED BY IDOCK:   -4.64 KCAL/MOL
REMARK 923 INTER-LIGAND FREE ENERGY PREDICTED BY IDOCK:   -4.59 KCAL/MOL
REMARK 924 INTRA-LIGAND FREE ENERGY PREDICTED BY IDOCK:   -0.04 KCAL/MOL
REMARK 927      BINDING AFFINITY PREDICTED BY RF-SCORE:    0.00 PKD
ROOT
HETATM    1  N   UNL     1      -8.700  14.799  69.556  1.00  0.00    -0.421 NA 
HETATM    2  C   UNL     1      -9.052  14.008  68.382  1.00  0.00    -0.191 C  
HETATM    3  H1  UNL     1      -7.728  14.652  69.831  1.00  0.00     0.000 HD 
HETATM    4  H2  UNL     1      -9.338  14.619  70.331  1.00  0.00     0.000 HD 
ENDROOT
BRANCH   2   5
HETATM    5  C   UNL     1     -10.520  14.230  67.966  1.00  0.00    -0.235 C  
HETATM    6  C   UNL     1     -10.772  15.607  67.330  1.00  0.00    -0.305 C  
HETATM    7  C   UNL     1     -10.175  15.737  65.929  1.00  0.00    -0.377 C  
HETATM    8  C   UNL     1     -10.652  14.630  64.979  1.00  0.00    -0.461 C  
HETATM    9  C   UNL     1     -10.442  13.241  65.600  1.00  0.00    -0.286 C  
HETATM   10  C   UNL     1     -12.098  14.840  64.530  1.00  0.00    -0.446 C  
HETATM   11  O   UNL     1     -12.279  15.981  63.826  1.00  0.00    -0.895 OA 
HETATM   12  O   UNL     1     -13.014  14.057  64.726  1.00  0.00    -0.686 OA 
HETATM   13  C   UNL     1     -11.002  13.120  67.020  1.00  0.00    -0.289 C  
ENDBRANCH   2   5
TORSDOF 1
ENDMDL
MODEL        9
REMARK 921   NORMALIZED FREE ENERGY PREDICTED BY IDOCK:   -4.33 KCAL/MOL
REMARK 922        TOTAL FREE ENERGY PREDICTED BY IDOCK:   -4.63 KCAL/MOL
REMARK 923 INTER-LIGAND FREE ENERGY PREDICTED BY IDOCK:   -4.59 KCAL/MOL
REMARK 924 INTRA-LIGAND FREE ENERGY PREDICTED BY IDOCK:   -0.03 KCAL/MOL
REMARK 927      BINDING AFFINITY PREDICTED BY RF-SCORE:    0.00 PKD
ROOT
HETATM    1  N   UNL     1      -9.267   8.968  65.040  1.00  0.00    -0.440 NA 
HETATM    2  C   UNL     1     -10.234   9.897  65.616  1.00  0.00    -0.159 C  
HETATM    3  H1  UNL     1      -9.534   7.997  65.205  1.00  0.00     0.000 HD 
HETATM    4  H2  UNL     1      -8.323   9.157  65.376  1.00  0.00     0.000 HD 
ENDROOT
BRANCH   2   5
HETATM    5  C   UNL     1      -9.831  11.364  65.366  1.00  0.00    -0.277 C  
HETATM    6  C   UNL     1     -10.347  11.919  64.028  1.00  0.00    -0.403 C  
HETATM    7  C   UNL     1     -11.857  12.152  64.020  1.00  0.00    -0.523 C  
HETATM    8  C   UNL     1     -12.322  13.055  65.171  1.00  0.00    -0.536 C  
HETATM    9  C   UNL     1     -11.795  12.544  66.520  1.00  0.00    -0.434 C  
HETATM   10  C   UNL     1     -11.957  14.520  64.937  1.00  0.00    -0.422 C  
HETATM   11  O   UNL     1     -12.549  15.050  63.842  1.00  0.00    -0.813 OA 
HETATM   12  O   UNL     1     -11.247  15.192  65.667  1.00  0.00    -0.336 OA 
HETATM   13  C   UNL     1     -10.289  12.269  66.520  1.00  0.00    -0.250 C  
ENDBRANCH   2   5
TORSDOF 1
ENDMDL
MODEL       10
REMARK 921   NORMALIZED FREE ENERGY PREDICTED BY IDOCK:   -4.29 KCAL/MOL
REMARK 922        TOTAL FREE ENERGY PREDICTED BY IDOCK:   -4.58 KCAL/MOL
REMARK 923 INTER-LIGAND FREE ENERGY PREDICTED BY IDOCK:   -4.53 KCAL/MOL
REMARK 924 INTRA-LIGAND FREE ENERGY PREDICTED BY IDOCK:   -0.05 KCAL/MOL
REMARK 927      BINDING AFFINITY PREDICTED BY RF-SCORE:    0.00 PKD
ROOT
HETATM    1  N   UNL     1     -12.229  11.684  63.073  1.00  0.00    -0.951 NA 
HETATM    2  C   UNL     1     -12.014  13.050  63.539  1.00  0.00    -0.545 C  
HETATM    3  H1  UNL     1     -13.068  11.611  62.496  1.00  0.00     0.000 HD 
HETATM    4  H2  UNL     1     -12.253  11.025  63.850  1.00  0.00     0.000 HD 
ENDROOT
BRANCH   2   5
HETATM    5  C   UNL     1     -10.745  13.161  64.409  1.00  0.00    -0.426 C  
HETATM    6  C   UNL     1     -10.611  14.517  65.121  1.00  0.00    -0.429 C  
HETATM    7  C   UNL     1     -11.615  14.697  66.259  1.00  0.00    -0.344 C  
HETATM    8  C   UNL     1     -11.553  13.561  67.288  1.00  0.00    -0.398 C  
HETATM    9  C   UNL     1     -11.653  12.190  66.603  1.00  0.00    -0.416 C  
HETATM   10  C   UNL     1     -10.317  13.661  68.181  1.00  0.00    -0.245 C  
HETATM   11  O   UNL     1     -10.288  14.787  68.930  1.00  0.00    -0.231 OA 
HETATM   12  O   UNL     1      -9.447  12.810  68.274  1.00  0.00    -0.214 OA 
HETATM   13  C   UNL     1     -10.677  12.020  65.436  1.00  0.00    -0.330 C  
ENDBRANCH   2   5
TORSDOF 1
ENDMDL
MODEL       11
REMARK 921   NORMALIZED FREE ENERGY PREDICTED BY IDOCK:   -4.26 KCAL/MOL
REMARK 922        TOTAL FREE ENERGY PREDICTED BY IDOCK:   -4.55 KCAL/MOL
REMARK 923 INTER-LIGAND FREE ENERGY PREDICTED BY IDOCK:   -4.53 KCAL/MOL
REMARK 924 INTRA-LIGAND FREE ENERGY PREDICTED BY IDOCK:   -0.03 KCAL/MOL
REMARK 927      BINDING AFFINITY PREDICTED BY RF-SCORE:    0.00 PKD
ROOT
HETATM    1  N   UNL     1     -12.900  11.692  62.855  1.00  0.00    -0.827 NA 
HETATM    2  C   UNL     1     -11.844  12.370  63.598  1.00  0.00    -0.526 C  
HETATM    3  H1  UNL     1     -12.600  11.450  61.910  1.00  0.00     0.000 HD 
HETATM    4  H2  UNL     1     -13.759  12.242  62.844  1.00  0.00     0.000 HD 
ENDROOT
BRANCH   2   5
HETATM    5  C   UNL     1     -12.297  12.736  65.026  1.00  0.00    -0.559 C  
HETATM    6  C   UNL     1     -11.369  12.183  66.121  1.00  0.00    -0.414 C  
HETATM    7  C   UNL     1     -10.021  12.902  66.180  1.00  0.00    -0.274 C  
HETATM    8  C   UNL     1     -10.167  14.421  66.339  1.00  0.00    -0.294 C  
HETATM    9  C   UNL     1     -11.114  14.999  65.278  1.00  0.00    -0.391 C  
HETATM   10  C   UNL     1     -10.591  14.812  67.754  1.00  0.00    -0.257 C  
HETATM   11  O   UNL     1      -9.687  14.467  68.699  1.00  0.00    -0.217 OA 
HETATM   12  O   UNL     1     -11.611  15.420  68.038  1.00  0.00    -0.344 OA 
HETATM   13  C   UNL     1     -12.450  14.256  65.186  1.00  0.00    -0.423 C  
ENDBRANCH   2   5
TORSDOF 1
ENDMDL
MODEL       12
REMARK 921   NORMALIZED FREE ENERGY PREDICTED BY IDOCK:   -4.21 KCAL/MOL
REMARK 922        TOTAL FREE ENERGY PREDICTED BY IDOCK:   -4.50 KCAL/MOL
REMARK 923 INTER-LIGAND FREE ENERGY PREDICTED BY IDOCK:   -4.47 KCAL/MOL
REMARK 924 INTRA-LIGAND FREE ENERGY PREDICTED BY IDOCK:   -0.03 KCAL/MOL
REMARK 927      BINDING AFFINITY PREDICTED BY RF-SCORE:    0.00 PKD
ROOT
HETATM    1  N   UNL     1      -9.018  11.416  68.860  1.00  0.00    -0.372 NA 
HETATM    2  C   UNL     1     -10.153  12.250  68.481  1.00  0.00    -0.187 C  
HETATM    3  H1  UNL     1      -9.224  10.852  69.685  1.00  0.00     0.000 HD 
HETATM    4  H2  UNL     1      -8.173  11.972  68.990  1.00  0.00     0.000 HD 
ENDROOT
BRANCH   2   5
HETATM    5  C   UNL     1      -9.842  13.101  67.233  1.00  0.00    -0.232 C  
HETATM    6  C   UNL     1     -10.234  12.415  65.914  1.00  0.00    -0.273 C  
HETATM    7  C   UNL     1     -11.746  12.347  65.702  1.00  0.00    -0.468 C  
HETATM    8  C   UNL     1     -12.418  13.723  65.792  1.00  0.00    -0.527 C  
HETATM    9  C   UNL     1     -12.021  14.448  67.087  1.00  0.00    -0.419 C  
HETATM   10  C   UNL     1     -12.147  14.579  64.556  1.00  0.00    -0.484 C  
HETATM   11  O   UNL     1     -12.642  14.044  63.416  1.00  0.00    -0.845 OA 
HETATM   12  O   UNL     1     -11.587  15.664  64.562  1.00  0.00    -0.392 OA 
HETATM   13  C   UNL     1     -10.508  14.483  67.324  1.00  0.00    -0.266 C  
ENDBRANCH   2   5
TORSDOF 1
ENDMDL
MODEL       13
REMARK 921   NORMALIZED FREE ENERGY PREDICTED BY IDOCK:   -4.21 KCAL/MOL
REMARK 922        TOTAL FREE ENERGY PREDICTED BY IDOCK:   -4.49 KCAL/MOL
REMARK 923 INTER-LIGAND FREE ENERGY PREDICTED BY IDOCK:   -4.44 KCAL/MOL
REMARK 924 INTRA-LIGAND FREE ENERGY PREDICTED BY IDOCK:   -0.05 KCAL/MOL
REMARK 927      BINDING AFFINITY PREDICTED BY RF-SCORE:    0.00 PKD
ROOT
HETATM    1  N   UNL     1     -11.132  14.621  70.425  1.00  0.00    -0.479 NA 
HETATM    2  C   UNL     1     -11.106  13.830  69.199  1.00  0.00    -0.240 C  
HETATM    3  H1  UNL     1     -10.484  14.254  71.123  1.00  0.00     0.000 HD 
HETATM    4  H2  UNL     1     -12.077  14.698  70.798  1.00  0.00     0.000 HD 
ENDROOT
BRANCH   2   5
HETATM    5  C   UNL     1     -12.084  14.384  68.143  1.00  0.00    -0.258 C  
HETATM    6  C   UNL     1     -11.785  15.837  67.739  1.00  0.00     0.015 C  
HETATM    7  C   UNL     1     -10.522  15.973  66.889  1.00  0.00    -0.306 C  
HETATM    8  C   UNL     1     -10.550  15.081  65.642  1.00  0.00    -0.360 C  
HETATM    9  C   UNL     1     -10.877  13.627  66.010  1.00  0.00    -0.275 C  
HETATM   10  C   UNL     1     -11.493  15.622  64.568  1.00  0.00    -0.300 C  
HETATM   11  O   UNL     1     -11.128  16.837  64.098  1.00  0.00    -1.061 OA 
HETATM   12  O   UNL     1     -12.461  15.027  64.120  1.00  0.00    -0.756 OA 
HETATM   13  C   UNL     1     -12.119  13.489  66.896  1.00  0.00    -0.417 C  
ENDBRANCH   2   5
TORSDOF 1
ENDMDL
MODEL       14
REMARK 921   NORMALIZED FREE ENERGY PREDICTED BY IDOCK:   -4.19 KCAL/MOL
REMARK 922        TOTAL FREE ENERGY PREDICTED BY IDOCK:   -4.48 KCAL/MOL
REMARK 923 INTER-LIGAND FREE ENERGY PREDICTED BY IDOCK:   -4.46 KCAL/MOL
REMARK 924 INTRA-LIGAND FREE ENERGY PREDICTED BY IDOCK:   -0.01 KCAL/MOL
REMARK 927      BINDING AFFINITY PREDICTED BY RF-SCORE:    0.00 PKD
ROOT
HETATM    1  N   UNL     1      -7.544  10.249  64.514  1.00  0.00    -0.244 NA 
HETATM    2  C   UNL     1      -8.332  10.626  65.683  1.00  0.00    -0.162 C  
HETATM    3  H1  UNL     1      -6.544  10.355  64.684  1.00  0.00     0.000 HD 
HETATM    4  H2  UNL     1      -7.838  10.764  63.685  1.00  0.00     0.000 HD 
ENDROOT
BRANCH   2   5
HETATM    5  C   UNL     1      -9.844  10.464  65.426  1.00  0.00    -0.347 C  
HETATM    6  C   UNL     1     -10.718  11.247  66.419  1.00  0.00    -0.320 C  
HETATM    7  C   UNL     1     -10.667  12.759  66.197  1.00  0.00    -0.297 C  
HETATM    8  C   UNL     1     -11.028  13.158  64.760  1.00  0.00    -0.355 C  
HETATM    9  C   UNL     1     -10.192  12.369  63.742  1.00  0.00    -0.404 C  
HETATM   10  C   UNL     1     -12.526  13.031  64.486  1.00  0.00    -0.363 C  
HETATM   11  O   UNL     1     -13.282  13.848  65.255  1.00  0.00    -0.774 OA 
HETATM   12  O   UNL     1     -13.025  12.313  63.635  1.00  0.00    -0.777 OA 
HETATM   13  C   UNL     1     -10.206  10.857  63.985  1.00  0.00    -0.422 C  
ENDBRANCH   2   5
TORSDOF 1
ENDMDL
MODEL       15
REMARK 921   NORMALIZED FREE ENERGY PREDICTED BY IDOCK:   -4.02 KCAL/MOL
REMARK 922        TOTAL FREE ENERGY PREDICTED BY IDOCK:   -4.29 KCAL/MOL
REMARK 923 INTER-LIGAND FREE ENERGY PREDICTED BY IDOCK:   -4.24 KCAL/MOL
REMARK 924 INTRA-LIGAND FREE ENERGY PREDICTED BY IDOCK:   -0.06 KCAL/MOL
REMARK 927      BINDING AFFINITY PREDICTED BY RF-SCORE:    0.00 PKD
ROOT
HETATM    1  N   UNL     1     -12.475   6.035  72.522  1.00  0.00    -0.513 NA 
HETATM    2  C   UNL     1     -11.701   6.950  71.690  1.00  0.00    -0.304 C  
HETATM    3  H1  UNL     1     -12.566   5.116  72.088  1.00  0.00     0.000 HD 
HETATM    4  H2  UNL     1     -13.387   6.427  72.759  1.00  0.00     0.000 HD 
ENDROOT
BRANCH   2   5
HETATM    5  C   UNL     1     -11.563   8.338  72.348  1.00  0.00    -0.464 C  
HETATM    6  C   UNL     1     -10.754   9.335  71.502  1.00  0.00    -0.425 C  
HETATM    7  C   UNL     1     -11.502   9.809  70.257  1.00  0.00    -0.317 C  
HETATM    8  C   UNL     1     -12.879  10.403  70.585  1.00  0.00    -0.393 C  
HETATM    9  C   UNL     1     -13.701   9.442  71.456  1.00  0.00    -0.363 C  
HETATM   10  C   UNL     1     -12.772  11.791  71.215  1.00  0.00    -0.316 C  
HETATM   11  O   UNL     1     -12.203  12.707  70.398  1.00  0.00    -0.349 OA 
HETATM   12  O   UNL     1     -13.190  12.093  72.322  1.00  0.00    -0.460 OA 
HETATM   13  C   UNL     1     -12.940   8.931  72.683  1.00  0.00    -0.334 C  
ENDBRANCH   2   5
TORSDOF 1
ENDMDL
MODEL       16
REMARK 921   NORMALIZED FREE ENERGY PREDICTED BY IDOCK:   -4.02 KCAL/MOL
REMARK 922        TOTAL FREE ENERGY PREDICTED BY IDOCK:   -4.29 KCAL/MOL
REMARK 923 INTER-LIGAND FREE ENERGY PREDICTED BY IDOCK:   -4.26 KCAL/MOL
REMARK 924 INTRA-LIGAND FREE ENERGY PREDICTED BY IDOCK:   -0.03 KCAL/MOL
REMARK 927      BINDING AFFINITY PREDICTED BY RF-SCORE:    0.00 PKD
ROOT
HETATM    1  N   UNL     1     -14.216   8.929  73.207  1.00  0.00    -1.237 NA 
HETATM    2  C   UNL     1     -13.315   9.054  72.066  1.00  0.00    -0.438 C  
HETATM    3  H1  UNL     1     -15.128   9.342  73.012  1.00  0.00     0.000 HD 
HETATM    4  H2  UNL     1     -13.802   9.322  74.052  1.00  0.00     0.000 HD 
ENDROOT
BRANCH   2   5
HETATM    5  C   UNL     1     -11.936   8.429  72.359  1.00  0.00    -0.451 C  
HETATM    6  C   UNL     1     -11.863   6.930  72.028  1.00  0.00    -0.345 C  
HETATM    7  C   UNL     1     -11.862   6.649  70.525  1.00  0.00    -0.430 C  
HETATM    8  C   UNL     1     -10.748   7.400  69.784  1.00  0.00    -0.252 C  
HETATM    9  C   UNL     1     -10.776   8.898  70.119  1.00  0.00    -0.245 C  
HETATM   10  C   UNL     1      -9.372   6.786  70.037  1.00  0.00    -0.158 C  
HETATM   11  O   UNL     1      -9.264   5.513  69.592  1.00  0.00    -0.128 OA 
HETATM   12  O   UNL     1      -8.426   7.368  70.542  1.00  0.00    -0.133 OA 
HETATM   13  C   UNL     1     -10.818   9.184  71.623  1.00  0.00    -0.442 C  
ENDBRANCH   2   5
TORSDOF 1
ENDMDL
MODEL       17
REMARK 921   NORMALIZED FREE ENERGY PREDICTED BY IDOCK:   -3.97 KCAL/MOL
REMARK 922        TOTAL FREE ENERGY PREDICTED BY IDOCK:   -4.25 KCAL/MOL
REMARK 923 INTER-LIGAND FREE ENERGY PREDICTED BY IDOCK:   -4.21 KCAL/MOL
REMARK 924 INTRA-LIGAND FREE ENERGY PREDICTED BY IDOCK:   -0.03 KCAL/MOL
REMARK 927      BINDING AFFINITY PREDICTED BY RF-SCORE:    0.00 PKD
ROOT
HETATM    1  N   UNL     1     -13.172  12.494  64.597  1.00  0.00    -0.785 NA 
HETATM    2  C   UNL     1     -12.764  13.516  65.556  1.00  0.00    -0.440 C  
HETATM    3  H1  UNL     1     -14.186  12.468  64.484  1.00  0.00     0.000 HD 
HETATM    4  H2  UNL     1     -12.802  11.578  64.849  1.00  0.00     0.000 HD 
ENDROOT
BRANCH   2   5
HETATM    5  C   UNL     1     -11.232  13.556  65.727  1.00  0.00    -0.308 C  
HETATM    6  C   UNL     1     -10.529  14.466  64.706  1.00  0.00    -0.394 C  
HETATM    7  C   UNL     1     -10.769  15.953  64.966  1.00  0.00    -0.426 C  
HETATM    8  C   UNL     1     -10.384  16.374  66.391  1.00  0.00    -0.319 C  
HETATM    9  C   UNL     1     -11.048  15.463  67.434  1.00  0.00    -0.311 C  
HETATM   10  C   UNL     1      -8.870  16.446  66.580  1.00  0.00    -0.249 C  
HETATM   11  O   UNL     1      -8.275  17.371  65.791  1.00  0.00    -0.540 OA 
HETATM   12  O   UNL     1      -8.231  15.789  67.387  1.00  0.00    -0.152 OA 
HETATM   13  C   UNL     1     -10.845  13.971  67.154  1.00  0.00    -0.288 C  
ENDBRANCH   2   5
TORSDOF 1
ENDMDL
MODEL       18
REMARK 921   NORMALIZED FREE ENERGY PREDICTED BY IDOCK:   -3.97 KCAL/MOL
REMARK 922        TOTAL FREE ENERGY PREDICTED BY IDOCK:   -4.24 KCAL/MOL
REMARK 923 INTER-LIGAND FREE ENERGY PREDICTED BY IDOCK:   -4.21 KCAL/MOL
REMARK 924 INTRA-LIGAND FREE ENERGY PREDICTED BY IDOCK:   -0.03 KCAL/MOL
REMARK 927      BINDING AFFINITY PREDICTED BY RF-SCORE:    0.00 PKD
ROOT
HETATM    1  N   UNL     1      -6.541  19.972  68.816  1.00  0.00    -0.316 NA 
HETATM    2  C   UNL     1      -7.902  19.482  68.629  1.00  0.00    -0.348 C  
HETATM    3  H1  UNL     1      -6.349  20.187  69.795  1.00  0.00     0.000 HD 
HETATM    4  H2  UNL     1      -6.347  20.772  68.214  1.00  0.00     0.000 HD 
ENDROOT
BRANCH   2   5
HETATM    5  C   UNL     1      -8.192  19.156  67.150  1.00  0.00    -0.290 C  
HETATM    6  C   UNL     1      -7.872  17.701  66.772  1.00  0.00    -0.265 C  
HETATM    7  C   UNL     1      -8.861  16.698  67.364  1.00  0.00    -0.198 C  
HETATM    8  C   UNL     1     -10.317  17.020  67.004  1.00  0.00    -0.304 C  
HETATM    9  C   UNL     1     -10.659  18.479  67.342  1.00  0.00    -0.463 C  
HETATM   10  C   UNL     1     -10.638  16.684  65.549  1.00  0.00    -0.258 C  
HETATM   11  O   UNL     1     -10.511  15.367  65.264  1.00  0.00    -0.367 OA 
HETATM   12  O   UNL     1     -11.021  17.485  64.711  1.00  0.00    -0.950 OA 
HETATM   13  C   UNL     1      -9.648  19.485  66.785  1.00  0.00    -0.447 C  
ENDBRANCH   2   5
TORSDOF 1
ENDMDL
MODEL       19
REMARK 921   NORMALIZED FREE ENERGY PREDICTED BY IDOCK:   -3.96 KCAL/MOL
REMARK 922        TOTAL FREE ENERGY PREDICTED BY IDOCK:   -4.23 KCAL/MOL
REMARK 923 INTER-LIGAND FREE ENERGY PREDICTED BY IDOCK:   -4.32 KCAL/MOL
REMARK 924 INTRA-LIGAND FREE ENERGY PREDICTED BY IDOCK:    0.09 KCAL/MOL
REMARK 927      BINDING AFFINITY PREDICTED BY RF-SCORE:    0.00 PKD
ROOT
HETATM    1  N   UNL     1     -10.992  11.068  67.725  1.00  0.00    -0.247 NA 
HETATM    2  C   UNL     1     -11.110  11.182  66.275  1.00  0.00    -0.111 C  
HETATM    3  H1  UNL     1     -11.605  10.343  68.097  1.00  0.00     0.000 HD 
HETATM    4  H2  UNL     1     -11.155  11.965  68.183  1.00  0.00     0.000 HD 
ENDROOT
BRANCH   2   5
HETATM    5  C   UNL     1     -10.182  12.279  65.713  1.00  0.00    -0.281 C  
HETATM    6  C   UNL     1     -10.733  12.952  64.446  1.00  0.00    -0.407 C  
HETATM    7  C   UNL     1     -11.927  13.865  64.725  1.00  0.00    -0.426 C  
HETATM    8  C   UNL     1     -11.623  14.928  65.789  1.00  0.00    -0.234 C  
HETATM    9  C   UNL     1     -11.041  14.288  67.058  1.00  0.00    -0.317 C  
HETATM   10  C   UNL     1     -10.724  16.041  65.251  1.00  0.00    -0.399 C  
HETATM   11  O   UNL     1     -11.287  16.739  64.238  1.00  0.00    -1.170 OA 
HETATM   12  O   UNL     1      -9.625  16.332  65.695  1.00  0.00    -0.466 OA 
HETATM   13  C   UNL     1      -9.870  13.340  66.779  1.00  0.00    -0.264 C  
ENDBRANCH   2   5
TORSDOF 1
ENDMDL
MODEL       20
REMARK 921   NORMALIZED FREE ENERGY PREDICTED BY IDOCK:   -3.94 KCAL/MOL
REMARK 922        TOTAL FREE ENERGY PREDICTED BY IDOCK:   -4.21 KCAL/MOL
REMARK 923 INTER-LIGAND FREE ENERGY PREDICTED BY IDOCK:   -4.17 KCAL/MOL
REMARK 924 INTRA-LIGAND FREE ENERGY PREDICTED BY IDOCK:   -0.04 KCAL/MOL
REMARK 927      BINDING AFFINITY PREDICTED BY RF-SCORE:    0.00 PKD
ROOT
HETATM    1  N   UNL     1     -10.957  13.429  69.717  1.00  0.00    -0.441 NA 
HETATM    2  C   UNL     1     -10.522  13.357  68.327  1.00  0.00    -0.250 C  
HETATM    3  H1  UNL     1     -10.412  12.808  70.315  1.00  0.00     0.000 HD 
HETATM    4  H2  UNL     1     -11.957  13.247  69.804  1.00  0.00     0.000 HD 
ENDROOT
BRANCH   2   5
HETATM    5  C   UNL     1     -11.345  14.296  67.422  1.00  0.00    -0.349 C  
HETATM    6  C   UNL     1     -11.604  15.675  68.051  1.00  0.00    -0.245 C  
HETATM    7  C   UNL     1     -10.351  16.549  68.110  1.00  0.00    -0.296 C  
HETATM    8  C   UNL     1      -9.684  16.719  66.739  1.00  0.00    -0.273 C  
HETATM    9  C   UNL     1      -9.440  15.358  66.071  1.00  0.00    -0.381 C  
HETATM   10  C   UNL     1     -10.467  17.667  65.832  1.00  0.00    -0.246 C  
HETATM   11  O   UNL     1     -10.550  18.927  66.317  1.00  0.00    -0.424 OA 
HETATM   12  O   UNL     1     -10.942  17.367  64.748  1.00  0.00    -0.964 OA 
HETATM   13  C   UNL     1     -10.682  14.463  66.047  1.00  0.00    -0.302 C  
ENDBRANCH   2   5
TORSDOF 1
ENDMDL
MODEL       21
REMARK 921   NORMALIZED FREE ENERGY PREDICTED BY IDOCK:   -3.86 KCAL/MOL
REMARK 922        TOTAL FREE ENERGY PREDICTED BY IDOCK:   -4.12 KCAL/MOL
REMARK 923 INTER-LIGAND FREE ENERGY PREDICTED BY IDOCK:   -4.07 KCAL/MOL
REMARK 924 INTRA-LIGAND FREE ENERGY PREDICTED BY IDOCK:   -0.06 KCAL/MOL
REMARK 927      BINDING AFFINITY PREDICTED BY RF-SCORE:    0.00 PKD
ROOT
HETATM    1  N   UNL     1     -11.547  13.803  70.389  1.00  0.00    -0.515 NA 
HETATM    2  C   UNL     1     -11.974  14.440  69.148  1.00  0.00    -0.322 C  
HETATM    3  H1  UNL     1     -12.262  13.875  71.114  1.00  0.00     0.000 HD 
HETATM    4  H2  UNL     1     -10.652  14.173  70.709  1.00  0.00     0.000 HD 
ENDROOT
BRANCH   2   5
HETATM    5  C   UNL     1     -10.894  14.331  68.052  1.00  0.00    -0.247 C  
HETATM    6  C   UNL     1     -10.359  12.902  67.864  1.00  0.00    -0.233 C  
HETATM    7  C   UNL     1     -11.370  11.967  67.202  1.00  0.00    -0.393 C  
HETATM    8  C   UNL     1     -11.888  12.508  65.863  1.00  0.00    -0.489 C  
HETATM    9  C   UNL     1     -12.402  13.947  66.012  1.00  0.00    -0.511 C  
HETATM   10  C   UNL     1     -10.846  12.388  64.753  1.00  0.00    -0.304 C  
HETATM   11  O   UNL     1     -10.499  11.109  64.480  1.00  0.00    -0.318 OA 
HETATM   12  O   UNL     1     -10.385  13.324  64.118  1.00  0.00    -0.407 OA 
HETATM   13  C   UNL     1     -11.408  14.879  66.712  1.00  0.00    -0.328 C  
ENDBRANCH   2   5
TORSDOF 1
ENDMDL
MODEL       22
REMARK 921   NORMALIZED FREE ENERGY PREDICTED BY IDOCK:   -3.86 KCAL/MOL
REMARK 922        TOTAL FREE ENERGY PREDICTED BY IDOCK:   -4.12 KCAL/MOL
REMARK 923 INTER-LIGAND FREE ENERGY PREDICTED BY IDOCK:   -4.08 KCAL/MOL
REMARK 924 INTRA-LIGAND FREE ENERGY PREDICTED BY IDOCK:   -0.05 KCAL/MOL
REMARK 927      BINDING AFFINITY PREDICTED BY RF-SCORE:    0.00 PKD
ROOT
HETATM    1  N   UNL     1     -12.115  10.600  68.445  1.00  0.00    -0.813 NA 
HETATM    2  C   UNL     1     -11.059  10.973  67.509  1.00  0.00    -0.302 C  
HETATM    3  H1  UNL     1     -12.555   9.718  68.183  1.00  0.00     0.000 HD 
HETATM    4  H2  UNL     1     -12.803  11.345  68.546  1.00  0.00     0.000 HD 
ENDROOT
BRANCH   2   5
HETATM    5  C   UNL     1     -10.392  12.306  67.906  1.00  0.00    -0.216 C  
HETATM    6  C   UNL     1      -9.466  12.872  66.816  1.00  0.00    -0.245 C  
HETATM    7  C   UNL     1     -10.228  13.414  65.607  1.00  0.00    -0.300 C  
HETATM    8  C   UNL     1     -11.279  14.463  65.993  1.00  0.00    -0.333 C  
HETATM    9  C   UNL     1     -12.202  13.938  67.103  1.00  0.00    -0.353 C  
HETATM   10  C   UNL     1     -10.646  15.803  66.366  1.00  0.00    -0.307 C  
HETATM   11  O   UNL     1      -9.966  16.376  65.346  1.00  0.00    -0.534 OA 
HETATM   12  O   UNL     1     -10.760  16.356  67.448  1.00  0.00    -0.322 OA 
HETATM   13  C   UNL     1     -11.443  13.356  68.299  1.00  0.00    -0.350 C  
ENDBRANCH   2   5
TORSDOF 1
ENDMDL
MODEL       23
REMARK 921   NORMALIZED FREE ENERGY PREDICTED BY IDOCK:   -3.83 KCAL/MOL
REMARK 922        TOTAL FREE ENERGY PREDICTED BY IDOCK:   -4.10 KCAL/MOL
REMARK 923 INTER-LIGAND FREE ENERGY PREDICTED BY IDOCK:   -4.05 KCAL/MOL
REMARK 924 INTRA-LIGAND FREE ENERGY PREDICTED BY IDOCK:   -0.05 KCAL/MOL
REMARK 927      BINDING AFFINITY PREDICTED BY RF-SCORE:    0.00 PKD
ROOT
HETATM    1  N   UNL     1     -12.175  14.573  68.244  1.00  0.00    -0.593 NA 
HETATM    2  C   UNL     1     -12.021  14.350  66.811  1.00  0.00    -0.399 C  
HETATM    3  H1  UNL     1     -12.096  15.562  68.482  1.00  0.00     0.000 HD 
HETATM    4  H2  UNL     1     -11.519  14.007  68.782  1.00  0.00     0.000 HD 
ENDROOT
BRANCH   2   5
HETATM    5  C   UNL     1     -12.141  12.855  66.451  1.00  0.00    -0.400 C  
HETATM    6  C   UNL     1     -12.315  12.602  64.944  1.00  0.00    -0.563 C  
HETATM    7  C   UNL     1     -11.041  12.869  64.143  1.00  0.00    -0.438 C  
HETATM    8  C   UNL     1      -9.836  12.078  64.668  1.00  0.00    -0.182 C  
HETATM    9  C   UNL     1      -9.655  12.285  66.179  1.00  0.00    -0.248 C  
HETATM   10  C   UNL     1      -9.917  10.596  64.304  1.00  0.00    -0.349 C  
HETATM   11  O   UNL     1      -9.904  10.372  62.969  1.00  0.00    -0.293 OA 
HETATM   12  O   UNL     1      -9.943   9.676  65.106  1.00  0.00    -0.263 OA 
HETATM   13  C   UNL     1     -10.939  12.059  66.982  1.00  0.00    -0.323 C  
ENDBRANCH   2   5
TORSDOF 1
ENDMDL
MODEL       24
REMARK 921   NORMALIZED FREE ENERGY PREDICTED BY IDOCK:   -3.81 KCAL/MOL
REMARK 922        TOTAL FREE ENERGY PREDICTED BY IDOCK:   -4.07 KCAL/MOL
REMARK 923 INTER-LIGAND FREE ENERGY PREDICTED BY IDOCK:   -4.04 KCAL/MOL
REMARK 924 INTRA-LIGAND FREE ENERGY PREDICTED BY IDOCK:   -0.03 KCAL/MOL
REMARK 927      BINDING AFFINITY PREDICTED BY RF-SCORE:    0.00 PKD
ROOT
HETATM    1  N   UNL     1      -9.493   9.908  69.586  1.00  0.00    -0.220 NA 
HETATM    2  C   UNL     1      -9.574  10.852  68.476  1.00  0.00    -0.187 C  
HETATM    3  H1  UNL     1      -8.570   9.916  70.020  1.00  0.00     0.000 HD 
HETATM    4  H2  UNL     1      -9.761   8.968  69.296  1.00  0.00     0.000 HD 
ENDROOT
BRANCH   2   5
HETATM    5  C   UNL     1     -10.969  10.841  67.820  1.00  0.00    -0.354 C  
HETATM    6  C   UNL     1     -11.786  12.113  68.103  1.00  0.00    -0.402 C  
HETATM    7  C   UNL     1     -11.257  13.340  67.361  1.00  0.00    -0.316 C  
HETATM    8  C   UNL     1     -11.152  13.116  65.847  1.00  0.00    -0.298 C  
HETATM    9  C   UNL     1     -10.368  11.834  65.532  1.00  0.00    -0.304 C  
HETATM   10  C   UNL     1     -12.521  13.126  65.168  1.00  0.00    -0.483 C  
HETATM   11  O   UNL     1     -13.167  14.310  65.282  1.00  0.00    -0.704 OA 
HETATM   12  O   UNL     1     -12.997  12.197  64.535  1.00  0.00    -0.677 OA 
HETATM   13  C   UNL     1     -10.867  10.610  66.305  1.00  0.00    -0.097 C  
ENDBRANCH   2   5
TORSDOF 1
ENDMDL
MODEL       25
REMARK 921   NORMALIZED FREE ENERGY PREDICTED BY IDOCK:   -3.75 KCAL/MOL
REMARK 922        TOTAL FREE ENERGY PREDICTED BY IDOCK:   -4.01 KCAL/MOL
REMARK 923 INTER-LIGAND FREE ENERGY PREDICTED BY IDOCK:   -4.03 KCAL/MOL
REMARK 924 INTRA-LIGAND FREE ENERGY PREDICTED BY IDOCK:    0.02 KCAL/MOL
REMARK 927      BINDING AFFINITY PREDICTED BY RF-SCORE:    0.00 PKD
ROOT
HETATM    1  N   UNL     1     -14.353   8.745  72.965  1.00  0.00    -1.133 NA 
HETATM    2  C   UNL     1     -13.178   9.444  72.455  1.00  0.00    -0.403 C  
HETATM    3  H1  UNL     1     -14.746   9.215  73.781  1.00  0.00     0.000 HD 
HETATM    4  H2  UNL     1     -14.147   7.766  73.162  1.00  0.00     0.000 HD 
ENDROOT
BRANCH   2   5
HETATM    5  C   UNL     1     -12.585   8.734  71.221  1.00  0.00    -0.285 C  
HETATM    6  C   UNL     1     -11.101   9.061  70.985  1.00  0.00    -0.356 C  
HETATM    7  C   UNL     1     -10.175   8.415  72.015  1.00  0.00    -0.364 C  
HETATM    8  C   UNL     1     -10.364   6.896  72.111  1.00  0.00    -0.221 C  
HETATM    9  C   UNL     1     -11.843   6.535  72.316  1.00  0.00    -0.299 C  
HETATM   10  C   UNL     1      -9.762   6.165  70.912  1.00  0.00    -0.177 C  
HETATM   11  O   UNL     1      -8.423   6.325  70.805  1.00  0.00    -0.131 OA 
HETATM   12  O   UNL     1     -10.385   5.458  70.135  1.00  0.00    -0.249 OA 
HETATM   13  C   UNL     1     -12.779   7.212  71.311  1.00  0.00    -0.412 C  
ENDBRANCH   2   5
TORSDOF 1
ENDMDL
MODEL       26
REMARK 921   NORMALIZED FREE ENERGY PREDICTED BY IDOCK:   -3.68 KCAL/MOL
REMARK 922        TOTAL FREE ENERGY PREDICTED BY IDOCK:   -3.93 KCAL/MOL
REMARK 923 INTER-LIGAND FREE ENERGY PREDICTED BY IDOCK:   -3.88 KCAL/MOL
REMARK 924 INTRA-LIGAND FREE ENERGY PREDICTED BY IDOCK:   -0.06 KCAL/MOL
REMARK 927      BINDING AFFINITY PREDICTED BY RF-SCORE:    0.00 PKD
ROOT
HETATM    1  N   UNL     1     -12.553  10.471  69.515  1.00  0.00    -0.662 NA 
HETATM    2  C   UNL     1     -11.311   9.864  69.983  1.00  0.00    -0.249 C  
HETATM    3  H1  UNL     1     -12.480  10.776  68.544  1.00  0.00     0.000 HD 
HETATM    4  H2  UNL     1     -12.847  11.233  70.125  1.00  0.00     0.000 HD 
ENDROOT
BRANCH   2   5
HETATM    5  C   UNL     1     -11.421   9.401  71.450  1.00  0.00    -0.449 C  
HETATM    6  C   UNL     1     -12.556   8.391  71.687  1.00  0.00    -0.362 C  
HETATM    7  C   UNL     1     -12.263   7.013  71.094  1.00  0.00    -0.427 C  
HETATM    8  C   UNL     1     -10.934   6.427  71.588  1.00  0.00    -0.302 C  
HETATM    9  C   UNL     1      -9.784   7.426  71.393  1.00  0.00    -0.175 C  
HETATM   10  C   UNL     1     -11.023   5.937  73.033  1.00  0.00    -0.268 C  
HETATM   11  O   UNL     1     -11.911   4.931  73.203  1.00  0.00    -0.279 OA 
HETATM   12  O   UNL     1     -10.343   6.353  73.958  1.00  0.00    -0.293 OA 
HETATM   13  C   UNL     1     -10.089   8.820  71.949  1.00  0.00    -0.409 C  
ENDBRANCH   2   5
TORSDOF 1
ENDMDL
MODEL       27
REMARK 921   NORMALIZED FREE ENERGY PREDICTED BY IDOCK:   -3.67 KCAL/MOL
REMARK 922        TOTAL FREE ENERGY PREDICTED BY IDOCK:   -3.93 KCAL/MOL
REMARK 923 INTER-LIGAND FREE ENERGY PREDICTED BY IDOCK:   -3.90 KCAL/MOL
REMARK 924 INTRA-LIGAND FREE ENERGY PREDICTED BY IDOCK:   -0.03 KCAL/MOL
REMARK 927      BINDING AFFINITY PREDICTED BY RF-SCORE:    0.00 PKD
ROOT
HETATM    1  N   UNL     1     -12.231  16.200  73.407  1.00  0.00    -0.512 NA 
HETATM    2  C   UNL     1     -11.797  15.250  72.388  1.00  0.00    -0.434 C  
HETATM    3  H1  UNL     1     -11.878  15.948  74.331  1.00  0.00     0.000 HD 
HETATM    4  H2  UNL     1     -13.246  16.304  73.411  1.00  0.00     0.000 HD 
ENDROOT
BRANCH   2   5
HETATM    5  C   UNL     1     -12.330  15.630  70.992  1.00  0.00    -0.481 C  
HETATM    6  C   UNL     1     -11.282  16.329  70.109  1.00  0.00    -0.340 C  
HETATM    7  C   UNL     1     -10.185  15.383  69.622  1.00  0.00    -0.283 C  
HETATM    8  C   UNL     1     -10.745  14.154  68.892  1.00  0.00    -0.270 C  
HETATM    9  C   UNL     1     -11.818  13.452  69.737  1.00  0.00    -0.393 C  
HETATM   10  C   UNL     1     -11.257  14.499  67.495  1.00  0.00    -0.321 C  
HETATM   11  O   UNL     1     -10.290  14.961  66.669  1.00  0.00    -0.273 OA 
HETATM   12  O   UNL     1     -12.405  14.341  67.109  1.00  0.00    -0.360 OA 
HETATM   13  C   UNL     1     -12.897  14.403  70.262  1.00  0.00    -0.230 C  
ENDBRANCH   2   5
TORSDOF 1
ENDMDL
MODEL       28
REMARK 921   NORMALIZED FREE ENERGY PREDICTED BY IDOCK:   -3.66 KCAL/MOL
REMARK 922        TOTAL FREE ENERGY PREDICTED BY IDOCK:   -3.92 KCAL/MOL
REMARK 923 INTER-LIGAND FREE ENERGY PREDICTED BY IDOCK:   -3.87 KCAL/MOL
REMARK 924 INTRA-LIGAND FREE ENERGY PREDICTED BY IDOCK:   -0.05 KCAL/MOL
REMARK 927      BINDING AFFINITY PREDICTED BY RF-SCORE:    0.00 PKD
ROOT
HETATM    1  N   UNL     1     -13.082  12.417  64.489  1.00  0.00    -0.815 NA 
HETATM    2  C   UNL     1     -11.904  12.261  65.336  1.00  0.00    -0.360 C  
HETATM    3  H1  UNL     1     -13.096  11.730  63.735  1.00  0.00     0.000 HD 
HETATM    4  H2  UNL     1     -13.158  13.368  64.128  1.00  0.00     0.000 HD 
ENDROOT
BRANCH   2   5
HETATM    5  C   UNL     1     -11.882  13.299  66.477  1.00  0.00    -0.450 C  
HETATM    6  C   UNL     1     -10.539  13.357  67.222  1.00  0.00    -0.256 C  
HETATM    7  C   UNL     1      -9.422  13.991  66.393  1.00  0.00    -0.278 C  
HETATM    8  C   UNL     1      -9.791  15.387  65.874  1.00  0.00    -0.387 C  
HETATM    9  C   UNL     1     -11.145  15.368  65.150  1.00  0.00    -0.402 C  
HETATM   10  C   UNL     1      -9.753  16.441  66.980  1.00  0.00    -0.248 C  
HETATM   11  O   UNL     1      -8.523  16.604  67.522  1.00  0.00    -0.184 OA 
HETATM   12  O   UNL     1     -10.702  17.122  67.334  1.00  0.00    -0.323 OA 
HETATM   13  C   UNL     1     -12.258  14.696  65.961  1.00  0.00    -0.166 C  
ENDBRANCH   2   5
TORSDOF 1
ENDMDL
MODEL       29
REMARK 921   NORMALIZED FREE ENERGY PREDICTED BY IDOCK:   -3.64 KCAL/MOL
REMARK 922        TOTAL FREE ENERGY PREDICTED BY IDOCK:   -3.90 KCAL/MOL
REMARK 923 INTER-LIGAND FREE ENERGY PREDICTED BY IDOCK:   -3.86 KCAL/MOL
REMARK 924 INTRA-LIGAND FREE ENERGY PREDICTED BY IDOCK:   -0.04 KCAL/MOL
REMARK 927      BINDING AFFINITY PREDICTED BY RF-SCORE:    0.00 PKD
ROOT
HETATM    1  N   UNL     1      -8.592  13.536  68.764  1.00  0.00    -0.366 NA 
HETATM    2  C   UNL     1      -9.791  13.869  68.003  1.00  0.00    -0.234 C  
HETATM    3  H1  UNL     1      -8.235  14.344  69.275  1.00  0.00     0.000 HD 
HETATM    4  H2  UNL     1      -7.874  13.126  68.168  1.00  0.00     0.000 HD 
ENDROOT
BRANCH   2   5
HETATM    5  C   UNL     1     -10.332  12.648  67.231  1.00  0.00    -0.230 C  
HETATM    6  C   UNL     1     -11.841  12.724  66.950  1.00  0.00    -0.440 C  
HETATM    7  C   UNL     1     -12.201  13.767  65.893  1.00  0.00    -0.501 C  
HETATM    8  C   UNL     1     -11.437  13.564  64.578  1.00  0.00    -0.407 C  
HETATM    9  C   UNL     1      -9.926  13.453  64.830  1.00  0.00    -0.158 C  
HETATM   10  C   UNL     1     -11.969  12.374  63.781  1.00  0.00    -0.514 C  
HETATM   11  O   UNL     1     -13.257  12.523  63.395  1.00  0.00    -0.441 OA 
HETATM   12  O   UNL     1     -11.316  11.394  63.462  1.00  0.00    -0.376 OA 
HETATM   13  C   UNL     1      -9.563  12.438  65.918  1.00  0.00    -0.193 C  
ENDBRANCH   2   5
TORSDOF 1
ENDMDL
MODEL       30
REMARK 921   NORMALIZED FREE ENERGY PREDICTED BY IDOCK:   -3.63 KCAL/MOL
REMARK 922        TOTAL FREE ENERGY PREDICTED BY IDOCK:   -3.88 KCAL/MOL
REMARK 923 INTER-LIGAND FREE ENERGY PREDICTED BY IDOCK:   -3.85 KCAL/MOL
REMARK 924 INTRA-LIGAND FREE ENERGY PREDICTED BY IDOCK:   -0.03 KCAL/MOL
REMARK 927      BINDING AFFINITY PREDICTED BY RF-SCORE:    0.00 PKD
ROOT
HETATM    1  N   UNL     1     -10.067   4.645  70.119  1.00  0.00    -0.244 NA 
HETATM    2  C   UNL     1     -10.586   5.646  71.046  1.00  0.00    -0.249 C  
HETATM    3  H1  UNL     1      -9.433   3.995  70.585  1.00  0.00     0.000 HD 
HETATM    4  H2  UNL     1      -9.625   5.081  69.310  1.00  0.00     0.000 HD 
ENDROOT
BRANCH   2   5
HETATM    5  C   UNL     1     -11.545   6.628  70.343  1.00  0.00    -0.457 C  
HETATM    6  C   UNL     1     -12.670   7.141  71.257  1.00  0.00    -0.412 C  
HETATM    7  C   UNL     1     -12.175   8.118  72.323  1.00  0.00    -0.397 C  
HETATM    8  C   UNL     1     -11.408   9.305  71.727  1.00  0.00    -0.437 C  
HETATM    9  C   UNL     1     -10.295   8.825  70.783  1.00  0.00    -0.264 C  
HETATM   10  C   UNL     1     -12.338  10.308  71.046  1.00  0.00    -0.381 C  
HETATM   11  O   UNL     1     -13.223  10.880  71.895  1.00  0.00    -0.467 OA 
HETATM   12  O   UNL     1     -12.287  10.624  69.868  1.00  0.00    -0.309 OA 
HETATM   13  C   UNL     1     -10.778   7.814  69.739  1.00  0.00    -0.236 C  
ENDBRANCH   2   5
TORSDOF 1
ENDMDL
MODEL       31
REMARK 921   NORMALIZED FREE ENERGY PREDICTED BY IDOCK:   -3.62 KCAL/MOL
REMARK 922        TOTAL FREE ENERGY PREDICTED BY IDOCK:   -3.87 KCAL/MOL
REMARK 923 INTER-LIGAND FREE ENERGY PREDICTED BY IDOCK:   -3.88 KCAL/MOL
REMARK 924 INTRA-LIGAND FREE ENERGY PREDICTED BY IDOCK:    0.01 KCAL/MOL
REMARK 927      BINDING AFFINITY PREDICTED BY RF-SCORE:    0.00 PKD
ROOT
HETATM    1  N   UNL     1     -10.331  15.916  67.737  1.00  0.00    -0.271 NA 
HETATM    2  C   UNL     1     -10.759  17.298  67.925  1.00  0.00    -0.351 C  
HETATM    3  H1  UNL     1     -11.090  15.332  67.386  1.00  0.00     0.000 HD 
HETATM    4  H2  UNL     1      -9.929  15.531  68.591  1.00  0.00     0.000 HD 
ENDROOT
BRANCH   2   5
HETATM    5  C   UNL     1      -9.611  18.182  68.456  1.00  0.00    -0.349 C  
HETATM    6  C   UNL     1      -8.228  17.766  67.929  1.00  0.00    -0.237 C  
HETATM    7  C   UNL     1      -8.027  18.094  66.450  1.00  0.00    -0.297 C  
HETATM    8  C   UNL     1      -8.280  19.574  66.134  1.00  0.00    -0.336 C  
HETATM    9  C   UNL     1      -9.644  20.029  66.675  1.00  0.00    -0.548 C  
HETATM   10  C   UNL     1      -7.145  20.470  66.627  1.00  0.00    -0.259 C  
HETATM   11  O   UNL     1      -5.958  20.204  66.035  1.00  0.00    -0.172 OA 
HETATM   12  O   UNL     1      -7.267  21.377  67.434  1.00  0.00    -0.535 OA 
HETATM   13  C   UNL     1      -9.866  19.665  68.146  1.00  0.00    -0.524 C  
ENDBRANCH   2   5
TORSDOF 1
ENDMDL
MODEL       32
REMARK 921   NORMALIZED FREE ENERGY PREDICTED BY IDOCK:   -3.59 KCAL/MOL
REMARK 922        TOTAL FREE ENERGY PREDICTED BY IDOCK:   -3.84 KCAL/MOL
REMARK 923 INTER-LIGAND FREE ENERGY PREDICTED BY IDOCK:   -3.78 KCAL/MOL
REMARK 924 INTRA-LIGAND FREE ENERGY PREDICTED BY IDOCK:   -0.06 KCAL/MOL
REMARK 927      BINDING AFFINITY PREDICTED BY RF-SCORE:    0.00 PKD
ROOT
HETATM    1  N   UNL     1     -12.360  14.244  68.625  1.00  0.00    -0.571 NA 
HETATM    2  C   UNL     1     -11.803  14.586  67.321  1.00  0.00    -0.392 C  
HETATM    3  H1  UNL     1     -13.338  13.961  68.554  1.00  0.00     0.000 HD 
HETATM    4  H2  UNL     1     -12.240  15.005  69.293  1.00  0.00     0.000 HD 
ENDROOT
BRANCH   2   5
HETATM    5  C   UNL     1     -10.325  15.013  67.428  1.00  0.00    -0.238 C  
HETATM    6  C   UNL     1      -9.747  15.547  66.107  1.00  0.00    -0.348 C  
HETATM    7  C   UNL     1     -10.295  16.923  65.728  1.00  0.00    -0.298 C  
HETATM    8  C   UNL     1     -10.101  17.963  66.839  1.00  0.00    -0.348 C  
HETATM    9  C   UNL     1     -10.641  17.445  68.180  1.00  0.00    -0.376 C  
HETATM   10  C   UNL     1      -8.648  18.422  66.951  1.00  0.00    -0.271 C  
HETATM   11  O   UNL     1      -8.195  19.041  65.836  1.00  0.00    -0.465 OA 
HETATM   12  O   UNL     1      -7.949  18.304  67.945  1.00  0.00    -0.244 OA 
HETATM   13  C   UNL     1     -10.127  16.049  68.545  1.00  0.00    -0.233 C  
ENDBRANCH   2   5
TORSDOF 1
ENDMDL
MODEL       33
REMARK 921   NORMALIZED FREE ENERGY PREDICTED BY IDOCK:   -3.59 KCAL/MOL
REMARK 922        TOTAL FREE ENERGY PREDICTED BY IDOCK:   -3.84 KCAL/MOL
REMARK 923 INTER-LIGAND FREE ENERGY PREDICTED BY IDOCK:   -3.78 KCAL/MOL
REMARK 924 INTRA-LIGAND FREE ENERGY PREDICTED BY IDOCK:   -0.05 KCAL/MOL
REMARK 927      BINDING AFFINITY PREDICTED BY RF-SCORE:    0.00 PKD
ROOT
HETATM    1  N   UNL     1     -13.995   8.901  73.313  1.00  0.00    -1.217 NA 
HETATM    2  C   UNL     1     -12.651   8.807  72.755  1.00  0.00    -0.046 C  
HETATM    3  H1  UNL     1     -13.974   9.042  74.324  1.00  0.00     0.000 HD 
HETATM    4  H2  UNL     1     -14.560   8.090  73.062  1.00  0.00     0.000 HD 
ENDROOT
BRANCH   2   5
HETATM    5  C   UNL     1     -12.682   8.595  71.228  1.00  0.00    -0.244 C  
HETATM    6  C   UNL     1     -13.408   9.719  70.471  1.00  0.00     0.113 C  
HETATM    7  C   UNL     1     -12.620  11.028  70.445  1.00  0.00    -0.349 C  
HETATM    8  C   UNL     1     -11.203  10.854  69.884  1.00  0.00    -0.355 C  
HETATM    9  C   UNL     1     -10.462   9.715  70.600  1.00  0.00    -0.379 C  
HETATM   10  C   UNL     1     -11.204  10.666  68.367  1.00  0.00    -0.288 C  
HETATM   11  O   UNL     1     -11.696  11.733  67.696  1.00  0.00    -0.487 OA 
HETATM   12  O   UNL     1     -10.768   9.688  67.781  1.00  0.00    -0.258 OA 
HETATM   13  C   UNL     1     -11.265   8.413  70.664  1.00  0.00    -0.275 C  
ENDBRANCH   2   5
TORSDOF 1
ENDMDL
MODEL       34
REMARK 921   NORMALIZED FREE ENERGY PREDICTED BY IDOCK:   -3.59 KCAL/MOL
REMARK 922        TOTAL FREE ENERGY PREDICTED BY IDOCK:   -3.84 KCAL/MOL
REMARK 923 INTER-LIGAND FREE ENERGY PREDICTED BY IDOCK:   -3.78 KCAL/MOL
REMARK 924 INTRA-LIGAND FREE ENERGY PREDICTED BY IDOCK:   -0.06 KCAL/MOL
REMARK 927      BINDING AFFINITY PREDICTED BY RF-SCORE:    0.00 PKD
ROOT
HETATM    1  N   UNL     1     -11.160  12.446  63.929  1.00  0.00    -0.378 NA 
HETATM    2  C   UNL     1     -10.502  13.545  64.628  1.00  0.00    -0.421 C  
HETATM    3  H1  UNL     1     -10.499  11.909  63.366  1.00  0.00     0.000 HD 
HETATM    4  H2  UNL     1     -11.944  12.779  63.368  1.00  0.00     0.000 HD 
ENDROOT
BRANCH   2   5
HETATM    5  C   UNL     1     -11.500  14.356  65.480  1.00  0.00    -0.340 C  
HETATM    6  C   UNL     1     -12.372  13.482  66.395  1.00  0.00    -0.413 C  
HETATM    7  C   UNL     1     -11.596  12.883  67.567  1.00  0.00    -0.409 C  
HETATM    8  C   UNL     1     -10.870  13.946  68.401  1.00  0.00    -0.269 C  
HETATM    9  C   UNL     1     -10.013  14.857  67.510  1.00  0.00    -0.219 C  
HETATM   10  C   UNL     1     -11.834  14.749  69.274  1.00  0.00    -0.318 C  
HETATM   11  O   UNL     1     -12.481  13.994  70.192  1.00  0.00    -0.344 OA 
HETATM   12  O   UNL     1     -11.996  15.958  69.212  1.00  0.00    -0.356 OA 
HETATM   13  C   UNL     1     -10.776  15.427  66.311  1.00  0.00    -0.312 C  
ENDBRANCH   2   5
TORSDOF 1
ENDMDL
MODEL       35
REMARK 921   NORMALIZED FREE ENERGY PREDICTED BY IDOCK:   -3.54 KCAL/MOL
REMARK 922        TOTAL FREE ENERGY PREDICTED BY IDOCK:   -3.78 KCAL/MOL
REMARK 923 INTER-LIGAND FREE ENERGY PREDICTED BY IDOCK:   -3.75 KCAL/MOL
REMARK 924 INTRA-LIGAND FREE ENERGY PREDICTED BY IDOCK:   -0.04 KCAL/MOL
REMARK 927      BINDING AFFINITY PREDICTED BY RF-SCORE:    0.00 PKD
ROOT
HETATM    1  N   UNL     1     -12.782  16.382  74.564  1.00  0.00    -0.949 NA 
HETATM    2  C   UNL     1     -13.299  15.870  73.300  1.00  0.00    -0.564 C  
HETATM    3  H1  UNL     1     -13.420  17.060  74.984  1.00  0.00     0.000 HD 
HETATM    4  H2  UNL     1     -11.846  16.769  74.455  1.00  0.00     0.000 HD 
ENDROOT
BRANCH   2   5
HETATM    5  C   UNL     1     -12.336  14.845  72.666  1.00  0.00    -0.419 C  
HETATM    6  C   UNL     1     -13.031  13.875  71.695  1.00  0.00    -0.433 C  
HETATM    7  C   UNL     1     -13.455  14.542  70.387  1.00  0.00     0.259 C  
HETATM    8  C   UNL     1     -12.292  15.245  69.677  1.00  0.00    -0.245 C  
HETATM    9  C   UNL     1     -11.557  16.199  70.631  1.00  0.00    -0.347 C  
HETATM   10  C   UNL     1     -11.335  14.252  69.018  1.00  0.00    -0.272 C  
HETATM   11  O   UNL     1     -11.917  13.513  68.045  1.00  0.00    -0.355 OA 
HETATM   12  O   UNL     1     -10.148  14.142  69.280  1.00  0.00    -0.084 OA 
HETATM   13  C   UNL     1     -11.166  15.546  71.960  1.00  0.00    -0.337 C  
ENDBRANCH   2   5
TORSDOF 1
ENDMDL
MODEL       36
REMARK 921   NORMALIZED FREE ENERGY PREDICTED BY IDOCK:   -3.53 KCAL/MOL
REMARK 922        TOTAL FREE ENERGY PREDICTED BY IDOCK:   -3.77 KCAL/MOL
REMARK 923 INTER-LIGAND FREE ENERGY PREDICTED BY IDOCK:   -3.73 KCAL/MOL
REMARK 924 INTRA-LIGAND FREE ENERGY PREDICTED BY IDOCK:   -0.04 KCAL/MOL
REMARK 927      BINDING AFFINITY PREDICTED BY RF-SCORE:    0.00 PKD
ROOT
HETATM    1  N   UNL     1     -12.091  10.473  69.225  1.00  0.00    -0.601 NA 
HETATM    2  C   UNL     1     -11.210  11.003  68.190  1.00  0.00    -0.302 C  
HETATM    3  H1  UNL     1     -11.657   9.699  69.729  1.00  0.00     0.000 HD 
HETATM    4  H2  UNL     1     -12.998  10.207  68.841  1.00  0.00     0.000 HD 
ENDROOT
BRANCH   2   5
HETATM    5  C   UNL     1     -11.865  12.173  67.429  1.00  0.00    -0.297 C  
HETATM    6  C   UNL     1     -11.876  13.488  68.225  1.00  0.00    -0.401 C  
HETATM    7  C   UNL     1     -10.491  14.122  68.353  1.00  0.00    -0.254 C  
HETATM    8  C   UNL     1      -9.814  14.342  66.994  1.00  0.00    -0.252 C  
HETATM    9  C   UNL     1      -9.815  13.052  66.161  1.00  0.00    -0.275 C  
HETATM   10  C   UNL     1     -10.428  15.514  66.229  1.00  0.00    -0.307 C  
HETATM   11  O   UNL     1     -10.288  16.700  66.864  1.00  0.00    -0.297 OA 
HETATM   12  O   UNL     1     -10.956  15.435  65.131  1.00  0.00    -0.374 OA 
HETATM   13  C   UNL     1     -11.193  12.392  66.065  1.00  0.00    -0.374 C  
ENDBRANCH   2   5
TORSDOF 1
ENDMDL
MODEL       37
REMARK 921   NORMALIZED FREE ENERGY PREDICTED BY IDOCK:   -3.52 KCAL/MOL
REMARK 922        TOTAL FREE ENERGY PREDICTED BY IDOCK:   -3.77 KCAL/MOL
REMARK 923 INTER-LIGAND FREE ENERGY PREDICTED BY IDOCK:   -3.72 KCAL/MOL
REMARK 924 INTRA-LIGAND FREE ENERGY PREDICTED BY IDOCK:   -0.05 KCAL/MOL
REMARK 927      BINDING AFFINITY PREDICTED BY RF-SCORE:    0.00 PKD
ROOT
HETATM    1  N   UNL     1     -12.237  16.324  71.764  1.00  0.00    -0.618 NA 
HETATM    2  C   UNL     1     -12.431  15.434  70.625  1.00  0.00    -0.428 C  
HETATM    3  H1  UNL     1     -13.127  16.636  72.153  1.00  0.00     0.000 HD 
HETATM    4  H2  UNL     1     -11.639  17.114  71.523  1.00  0.00     0.000 HD 
ENDROOT
BRANCH   2   5
HETATM    5  C   UNL     1     -11.085  14.962  70.037  1.00  0.00    -0.263 C  
HETATM    6  C   UNL     1     -11.241  13.920  68.917  1.00  0.00    -0.304 C  
HETATM    7  C   UNL     1     -11.795  14.513  67.622  1.00  0.00    -0.395 C  
HETATM    8  C   UNL     1     -10.968  15.702  67.115  1.00  0.00    -0.270 C  
HETATM    9  C   UNL     1     -10.768  16.747  68.222  1.00  0.00    -0.364 C  
HETATM   10  C   UNL     1      -9.639  15.259  66.504  1.00  0.00    -0.271 C  
HETATM   11  O   UNL     1      -9.787  14.471  65.414  1.00  0.00    -0.334 OA 
HETATM   12  O   UNL     1      -8.536  15.600  66.900  1.00  0.00    -0.206 OA 
HETATM   13  C   UNL     1     -10.252  16.151  69.535  1.00  0.00    -0.261 C  
ENDBRANCH   2   5
TORSDOF 1
ENDMDL
MODEL       38
REMARK 921   NORMALIZED FREE ENERGY PREDICTED BY IDOCK:   -3.52 KCAL/MOL
REMARK 922        TOTAL FREE ENERGY PREDICTED BY IDOCK:   -3.76 KCAL/MOL
REMARK 923 INTER-LIGAND FREE ENERGY PREDICTED BY IDOCK:   -3.71 KCAL/MOL
REMARK 924 INTRA-LIGAND FREE ENERGY PREDICTED BY IDOCK:   -0.05 KCAL/MOL
REMARK 927      BINDING AFFINITY PREDICTED BY RF-SCORE:    0.00 PKD
ROOT
HETATM    1  N   UNL     1      -8.727  13.875  66.641  1.00  0.00    -0.445 NA 
HETATM    2  C   UNL     1      -9.692  14.955  66.819  1.00  0.00    -0.251 C  
HETATM    3  H1  UNL     1      -8.995  13.041  67.165  1.00  0.00     0.000 HD 
HETATM    4  H2  UNL     1      -7.782  14.176  66.879  1.00  0.00     0.000 HD 
ENDROOT
BRANCH   2   5
HETATM    5  C   UNL     1      -9.287  16.215  66.027  1.00  0.00    -0.368 C  
HETATM    6  C   UNL     1     -10.371  17.306  66.022  1.00  0.00    -0.312 C  
HETATM    7  C   UNL     1     -10.528  17.998  67.376  1.00  0.00    -0.399 C  
HETATM    8  C   UNL     1      -9.208  18.578  67.900  1.00  0.00    -0.306 C  
HETATM    9  C   UNL     1      -8.096  17.518  67.888  1.00  0.00    -0.230 C  
HETATM   10  C   UNL     1      -8.797  19.843  67.148  1.00  0.00    -0.330 C  
HETATM   11  O   UNL     1      -9.681  20.858  67.285  1.00  0.00    -0.458 OA 
HETATM   12  O   UNL     1      -7.760  19.979  66.518  1.00  0.00    -0.279 OA 
HETATM   13  C   UNL     1      -7.962  16.793  66.545  1.00  0.00    -0.334 C  
ENDBRANCH   2   5
TORSDOF 1
ENDMDL
MODEL       39
REMARK 921   NORMALIZED FREE ENERGY PREDICTED BY IDOCK:   -3.46 KCAL/MOL
REMARK 922        TOTAL FREE ENERGY PREDICTED BY IDOCK:   -3.70 KCAL/MOL
REMARK 923 INTER-LIGAND FREE ENERGY PREDICTED BY IDOCK:   -3.68 KCAL/MOL
REMARK 924 INTRA-LIGAND FREE ENERGY PREDICTED BY IDOCK:   -0.03 KCAL/MOL
REMARK 927      BINDING AFFINITY PREDICTED BY RF-SCORE:    0.00 PKD
ROOT
HETATM    1  N   UNL     1     -11.531   7.174  73.279  1.00  0.00    -0.519 NA 
HETATM    2  C   UNL     1     -10.996   8.266  72.473  1.00  0.00    -0.354 C  
HETATM    3  H1  UNL     1     -11.105   7.147  74.206  1.00  0.00     0.000 HD 
HETATM    4  H2  UNL     1     -11.439   6.278  72.800  1.00  0.00     0.000 HD 
ENDROOT
BRANCH   2   5
HETATM    5  C   UNL     1     -11.640   8.308  71.072  1.00  0.00    -0.301 C  
HETATM    6  C   UNL     1     -12.594   9.498  70.875  1.00  0.00    -0.251 C  
HETATM    7  C   UNL     1     -11.865  10.837  70.768  1.00  0.00    -0.443 C  
HETATM    8  C   UNL     1     -10.794  10.841  69.670  1.00  0.00    -0.294 C  
HETATM    9  C   UNL     1      -9.843   9.645  69.821  1.00  0.00    -0.253 C  
HETATM   10  C   UNL     1     -11.405  10.908  68.271  1.00  0.00    -0.308 C  
HETATM   11  O   UNL     1     -12.111  12.041  68.048  1.00  0.00    -0.514 OA 
HETATM   12  O   UNL     1     -11.254  10.068  67.398  1.00  0.00    -0.205 OA 
HETATM   13  C   UNL     1     -10.570   8.306  69.970  1.00  0.00    -0.235 C  
ENDBRANCH   2   5
TORSDOF 1
ENDMDL
MODEL       40
REMARK 921   NORMALIZED FREE ENERGY PREDICTED BY IDOCK:   -3.46 KCAL/MOL
REMARK 922        TOTAL FREE ENERGY PREDICTED BY IDOCK:   -3.70 KCAL/MOL
REMARK 923 INTER-LIGAND FREE ENERGY PREDICTED BY IDOCK:   -3.66 KCAL/MOL
REMARK 924 INTRA-LIGAND FREE ENERGY PREDICTED BY IDOCK:   -0.04 KCAL/MOL
REMARK 927      BINDING AFFINITY PREDICTED BY RF-SCORE:    0.00 PKD
ROOT
HETATM    1  N   UNL     1     -12.502  16.037  71.463  1.00  0.00    -0.565 NA 
HETATM    2  C   UNL     1     -11.789  15.193  70.510  1.00  0.00    -0.318 C  
HETATM    3  H1  UNL     1     -12.388  15.702  72.421  1.00  0.00     0.000 HD 
HETATM    4  H2  UNL     1     -13.486  16.131  71.215  1.00  0.00     0.000 HD 
ENDROOT
BRANCH   2   5
HETATM    5  C   UNL     1     -11.959  15.700  69.063  1.00  0.00    -0.323 C  
HETATM    6  C   UNL     1     -10.983  16.830  68.695  1.00  0.00    -0.298 C  
HETATM    7  C   UNL     1      -9.542  16.346  68.538  1.00  0.00    -0.229 C  
HETATM    8  C   UNL     1      -9.410  15.196  67.532  1.00  0.00    -0.198 C  
HETATM    9  C   UNL     1     -10.396  14.063  67.856  1.00  0.00    -0.239 C  
HETATM   10  C   UNL     1      -9.549  15.675  66.088  1.00  0.00    -0.330 C  
HETATM   11  O   UNL     1      -8.584  16.549  65.719  1.00  0.00    -0.442 OA 
HETATM   12  O   UNL     1     -10.402  15.294  65.301  1.00  0.00    -0.369 OA 
HETATM   13  C   UNL     1     -11.834  14.548  68.055  1.00  0.00    -0.350 C  
ENDBRANCH   2   5
TORSDOF 1
ENDMDL
MODEL       41
REMARK 921   NORMALIZED FREE ENERGY PREDICTED BY IDOCK:   -3.44 KCAL/MOL
REMARK 922        TOTAL FREE ENERGY PREDICTED BY IDOCK:   -3.68 KCAL/MOL
REMARK 923 INTER-LIGAND FREE ENERGY PREDICTED BY IDOCK:   -3.66 KCAL/MOL
REMARK 924 INTRA-LIGAND FREE ENERGY PREDICTED BY IDOCK:   -0.03 KCAL/MOL
REMARK 927      BINDING AFFINITY PREDICTED BY RF-SCORE:    0.00 PKD
ROOT
HETATM    1  N   UNL     1     -12.234  14.107  67.639  1.00  0.00    -0.574 NA 
HETATM    2  C   UNL     1     -10.860  14.597  67.606  1.00  0.00    -0.284 C  
HETATM    3  H1  UNL     1     -12.290  13.170  68.040  1.00  0.00     0.000 HD 
HETATM    4  H2  UNL     1     -12.665  14.144  66.715  1.00  0.00     0.000 HD 
ENDROOT
BRANCH   2   5
HETATM    5  C   UNL     1     -10.776  16.013  67.000  1.00  0.00    -0.277 C  
HETATM    6  C   UNL     1     -10.568  17.114  68.053  1.00  0.00    -0.374 C  
HETATM    7  C   UNL     1      -9.165  17.104  68.660  1.00  0.00    -0.263 C  
HETATM    8  C   UNL     1      -8.061  17.184  67.598  1.00  0.00    -0.187 C  
HETATM    9  C   UNL     1      -8.259  16.114  66.514  1.00  0.00    -0.343 C  
HETATM   10  C   UNL     1      -7.939  18.584  67.000  1.00  0.00    -0.236 C  
HETATM   11  O   UNL     1      -7.593  19.526  67.907  1.00  0.00    -0.273 OA 
HETATM   12  O   UNL     1      -8.082  18.858  65.819  1.00  0.00    -0.472 OA 
HETATM   13  C   UNL     1      -9.675  16.094  65.932  1.00  0.00    -0.374 C  
ENDBRANCH   2   5
TORSDOF 1
ENDMDL
MODEL       42
REMARK 921   NORMALIZED FREE ENERGY PREDICTED BY IDOCK:   -3.44 KCAL/MOL
REMARK 922        TOTAL FREE ENERGY PREDICTED BY IDOCK:   -3.68 KCAL/MOL
REMARK 923 INTER-LIGAND FREE ENERGY PREDICTED BY IDOCK:   -3.64 KCAL/MOL
REMARK 924 INTRA-LIGAND FREE ENERGY PREDICTED BY IDOCK:   -0.04 KCAL/MOL
REMARK 927      BINDING AFFINITY PREDICTED BY RF-SCORE:    0.00 PKD
ROOT
HETATM    1  N   UNL     1     -11.630  14.183  67.947  1.00  0.00    -0.318 NA 
HETATM    2  C   UNL     1     -12.047  14.145  66.550  1.00  0.00    -0.454 C  
HETATM    3  H1  UNL     1     -12.427  14.291  68.575  1.00  0.00     0.000 HD 
HETATM    4  H2  UNL     1     -10.929  14.906  68.107  1.00  0.00     0.000 HD 
ENDROOT
BRANCH   2   5
HETATM    5  C   UNL     1     -10.843  13.981  65.600  1.00  0.00    -0.295 C  
HETATM    6  C   UNL     1      -9.805  12.963  66.102  1.00  0.00    -0.270 C  
HETATM    7  C   UNL     1     -10.293  11.518  66.011  1.00  0.00    -0.290 C  
HETATM    8  C   UNL     1     -10.753  11.137  64.598  1.00  0.00    -0.350 C  
HETATM    9  C   UNL     1     -11.769  12.154  64.055  1.00  0.00    -0.515 C  
HETATM   10  C   UNL     1      -9.577  10.944  63.642  1.00  0.00    -0.302 C  
HETATM   11  O   UNL     1      -8.753   9.933  64.004  1.00  0.00    -0.176 OA 
HETATM   12  O   UNL     1      -9.391  11.583  62.619  1.00  0.00    -0.341 OA 
HETATM   13  C   UNL     1     -11.302  13.607  64.183  1.00  0.00    -0.330 C  
ENDBRANCH   2   5
TORSDOF 1
ENDMDL
MODEL       43
REMARK 921   NORMALIZED FREE ENERGY PREDICTED BY IDOCK:   -3.44 KCAL/MOL
REMARK 922        TOTAL FREE ENERGY PREDICTED BY IDOCK:   -3.68 KCAL/MOL
REMARK 923 INTER-LIGAND FREE ENERGY PREDICTED BY IDOCK:   -3.65 KCAL/MOL
REMARK 924 INTRA-LIGAND FREE ENERGY PREDICTED BY IDOCK:   -0.03 KCAL/MOL
REMARK 927      BINDING AFFINITY PREDICTED BY RF-SCORE:    0.00 PKD
ROOT
HETATM    1  N   UNL     1      -8.844   4.688  72.874  1.00  0.00    -0.116 NA 
HETATM    2  C   UNL     1      -9.552   5.663  72.053  1.00  0.00    -0.151 C  
HETATM    3  H1  UNL     1      -8.085   4.241  72.358  1.00  0.00     0.000 HD 
HETATM    4  H2  UNL     1      -9.483   3.998  73.268  1.00  0.00     0.000 HD 
ENDROOT
BRANCH   2   5
HETATM    5  C   UNL     1     -10.698   6.339  72.833  1.00  0.00    -0.274 C  
HETATM    6  C   UNL     1     -10.424   7.816  73.161  1.00  0.00    -0.413 C  
HETATM    7  C   UNL     1     -10.494   8.724  71.934  1.00  0.00    -0.423 C  
HETATM    8  C   UNL     1     -11.823   8.597  71.179  1.00  0.00    -0.331 C  
HETATM    9  C   UNL     1     -12.141   7.128  70.864  1.00  0.00    -0.368 C  
HETATM   10  C   UNL     1     -12.972   9.281  71.919  1.00  0.00    -0.411 C  
HETATM   11  O   UNL     1     -12.799  10.615  72.060  1.00  0.00    -0.422 OA 
HETATM   12  O   UNL     1     -13.983   8.723  72.315  1.00  0.00    -0.430 OA 
HETATM   13  C   UNL     1     -12.032   6.207  72.083  1.00  0.00    -0.314 C  
ENDBRANCH   2   5
TORSDOF 1
ENDMDL
MODEL       44
REMARK 921   NORMALIZED FREE ENERGY PREDICTED BY IDOCK:   -3.41 KCAL/MOL
REMARK 922        TOTAL FREE ENERGY PREDICTED BY IDOCK:   -3.65 KCAL/MOL
REMARK 923 INTER-LIGAND FREE ENERGY PREDICTED BY IDOCK:   -3.60 KCAL/MOL
REMARK 924 INTRA-LIGAND FREE ENERGY PREDICTED BY IDOCK:   -0.05 KCAL/MOL
REMARK 927      BINDING AFFINITY PREDICTED BY RF-SCORE:    0.00 PKD
ROOT
HETATM    1  N   UNL     1     -12.446  13.269  63.146  1.00  0.00    -0.795 NA 
HETATM    2  C   UNL     1     -11.554  12.117  63.218  1.00  0.00    -0.332 C  
HETATM    3  H1  UNL     1     -13.269  13.072  62.575  1.00  0.00     0.000 HD 
HETATM    4  H2  UNL     1     -11.956  14.100  62.819  1.00  0.00     0.000 HD 
ENDROOT
BRANCH   2   5
HETATM    5  C   UNL     1     -10.311  12.414  64.083  1.00  0.00    -0.409 C  
HETATM    6  C   UNL     1     -10.648  13.083  65.425  1.00  0.00    -0.307 C  
HETATM    7  C   UNL     1     -11.322  12.133  66.415  1.00  0.00    -0.411 C  
HETATM    8  C   UNL     1     -10.504  10.858  66.660  1.00  0.00    -0.307 C  
HETATM    9  C   UNL     1     -10.125  10.182  65.334  1.00  0.00    -0.342 C  
HETATM   10  C   UNL     1      -9.280  11.119  67.535  1.00  0.00    -0.153 C  
HETATM   11  O   UNL     1      -9.593  11.555  68.778  1.00  0.00    -0.181 OA 
HETATM   12  O   UNL     1      -8.122  10.920  67.201  1.00  0.00    -0.120 OA 
HETATM   13  C   UNL     1      -9.487  11.139  64.324  1.00  0.00    -0.242 C  
ENDBRANCH   2   5
TORSDOF 1
ENDMDL
MODEL       45
REMARK 921   NORMALIZED FREE ENERGY PREDICTED BY IDOCK:   -3.40 KCAL/MOL
REMARK 922        TOTAL FREE ENERGY PREDICTED BY IDOCK:   -3.64 KCAL/MOL
REMARK 923 INTER-LIGAND FREE ENERGY PREDICTED BY IDOCK:   -3.59 KCAL/MOL
REMARK 924 INTRA-LIGAND FREE ENERGY PREDICTED BY IDOCK:   -0.05 KCAL/MOL
REMARK 927      BINDING AFFINITY PREDICTED BY RF-SCORE:    0.00 PKD
ROOT
HETATM    1  N   UNL     1      -9.735  20.305  65.876  1.00  0.00    -0.632 NA 
HETATM    2  C   UNL     1      -9.353  19.519  67.044  1.00  0.00    -0.336 C  
HETATM    3  H1  UNL     1      -9.086  21.075  65.712  1.00  0.00     0.000 HD 
HETATM    4  H2  UNL     1     -10.696  20.637  65.948  1.00  0.00     0.000 HD 
ENDROOT
BRANCH   2   5
HETATM    5  C   UNL     1     -10.334  18.354  67.291  1.00  0.00    -0.417 C  
HETATM    6  C   UNL     1     -10.285  17.274  66.198  1.00  0.00    -0.338 C  
HETATM    7  C   UNL     1      -9.008  16.436  66.243  1.00  0.00    -0.368 C  
HETATM    8  C   UNL     1      -8.768  15.797  67.617  1.00  0.00    -0.178 C  
HETATM    9  C   UNL     1      -8.842  16.847  68.735  1.00  0.00    -0.255 C  
HETATM   10  C   UNL     1      -9.711  14.622  67.878  1.00  0.00    -0.216 C  
HETATM   11  O   UNL     1      -9.547  13.601  67.005  1.00  0.00    -0.235 OA 
HETATM   12  O   UNL     1     -10.510  14.554  68.798  1.00  0.00    -0.235 OA 
HETATM   13  C   UNL     1     -10.100  17.717  68.670  1.00  0.00    -0.384 C  
ENDBRANCH   2   5
TORSDOF 1
ENDMDL
MODEL       46
REMARK 921   NORMALIZED FREE ENERGY PREDICTED BY IDOCK:   -3.37 KCAL/MOL
REMARK 922        TOTAL FREE ENERGY PREDICTED BY IDOCK:   -3.61 KCAL/MOL
REMARK 923 INTER-LIGAND FREE ENERGY PREDICTED BY IDOCK:   -3.55 KCAL/MOL
REMARK 924 INTRA-LIGAND FREE ENERGY PREDICTED BY IDOCK:   -0.06 KCAL/MOL
REMARK 927      BINDING AFFINITY PREDICTED BY RF-SCORE:    0.00 PKD
ROOT
HETATM    1  N   UNL     1     -10.200   8.522  66.334  1.00  0.00    -0.406 NA 
HETATM    2  C   UNL     1     -10.641   9.519  67.304  1.00  0.00    -0.248 C  
HETATM    3  H1  UNL     1     -10.695   7.638  66.453  1.00  0.00     0.000 HD 
HETATM    4  H2  UNL     1      -9.190   8.392  66.367  1.00  0.00     0.000 HD 
ENDROOT
BRANCH   2   5
HETATM    5  C   UNL     1      -9.894  10.857  67.124  1.00  0.00    -0.213 C  
HETATM    6  C   UNL     1      -9.913  11.376  65.677  1.00  0.00    -0.282 C  
HETATM    7  C   UNL     1     -11.286  11.887  65.243  1.00  0.00    -0.333 C  
HETATM    8  C   UNL     1     -11.843  12.960  66.188  1.00  0.00    -0.487 C  
HETATM    9  C   UNL     1     -11.809  12.482  67.647  1.00  0.00    -0.381 C  
HETATM   10  C   UNL     1     -11.137  14.303  66.012  1.00  0.00    -0.319 C  
HETATM   11  O   UNL     1     -11.297  14.835  64.778  1.00  0.00    -0.384 OA 
HETATM   12  O   UNL     1     -10.523  14.893  66.887  1.00  0.00    -0.271 OA 
HETATM   13  C   UNL     1     -10.446  11.931  68.074  1.00  0.00    -0.228 C  
ENDBRANCH   2   5
TORSDOF 1
ENDMDL
MODEL       47
REMARK 921   NORMALIZED FREE ENERGY PREDICTED BY IDOCK:   -3.36 KCAL/MOL
REMARK 922        TOTAL FREE ENERGY PREDICTED BY IDOCK:   -3.59 KCAL/MOL
REMARK 923 INTER-LIGAND FREE ENERGY PREDICTED BY IDOCK:   -3.56 KCAL/MOL
REMARK 924 INTRA-LIGAND FREE ENERGY PREDICTED BY IDOCK:   -0.03 KCAL/MOL
REMARK 927      BINDING AFFINITY PREDICTED BY RF-SCORE:    0.00 PKD
ROOT
HETATM    1  N   UNL     1      -9.057  16.923  65.975  1.00  0.00    -0.500 NA 
HETATM    2  C   UNL     1      -9.679  15.622  65.757  1.00  0.00    -0.345 C  
HETATM    3  H1  UNL     1      -9.147  17.525  65.155  1.00  0.00     0.000 HD 
HETATM    4  H2  UNL     1      -8.083  16.827  66.261  1.00  0.00     0.000 HD 
ENDROOT
BRANCH   2   5
HETATM    5  C   UNL     1      -9.543  14.712  66.996  1.00  0.00    -0.246 C  
HETATM    6  C   UNL     1      -9.736  15.460  68.325  1.00  0.00    -0.209 C  
HETATM    7  C   UNL     1     -11.186  15.873  68.574  1.00  0.00    -0.362 C  
HETATM    8  C   UNL     1     -12.159  14.689  68.497  1.00  0.00    -0.229 C  
HETATM    9  C   UNL     1     -11.970  13.903  67.192  1.00  0.00    -0.455 C  
HETATM   10  C   UNL     1     -12.063  13.785  69.725  1.00  0.00    -0.340 C  
HETATM   11  O   UNL     1     -12.395  14.410  70.878  1.00  0.00    -0.303 OA 
HETATM   12  O   UNL     1     -11.769  12.600  69.703  1.00  0.00    -0.303 OA 
HETATM   13  C   UNL     1     -10.512  13.522  66.918  1.00  0.00    -0.271 C  
ENDBRANCH   2   5
TORSDOF 1
ENDMDL
MODEL       48
REMARK 921   NORMALIZED FREE ENERGY PREDICTED BY IDOCK:   -3.36 KCAL/MOL
REMARK 922        TOTAL FREE ENERGY PREDICTED BY IDOCK:   -3.59 KCAL/MOL
REMARK 923 INTER-LIGAND FREE ENERGY PREDICTED BY IDOCK:   -3.54 KCAL/MOL
REMARK 924 INTRA-LIGAND FREE ENERGY PREDICTED BY IDOCK:   -0.06 KCAL/MOL
REMARK 927      BINDING AFFINITY PREDICTED BY RF-SCORE:    0.00 PKD
ROOT
HETATM    1  N   UNL     1      -7.695  16.477  68.473  1.00  0.00    -0.192 NA 
HETATM    2  C   UNL     1      -8.785  16.373  67.509  1.00  0.00    -0.178 C  
HETATM    3  H1  UNL     1      -7.640  17.411  68.879  1.00  0.00     0.000 HD 
HETATM    4  H2  UNL     1      -6.805  16.197  68.061  1.00  0.00     0.000 HD 
ENDROOT
BRANCH   2   5
HETATM    5  C   UNL     1      -8.869  14.960  66.895  1.00  0.00    -0.284 C  
HETATM    6  C   UNL     1      -9.082  13.853  67.941  1.00  0.00    -0.194 C  
HETATM    7  C   UNL     1     -10.486  13.861  68.543  1.00  0.00    -0.253 C  
HETATM    8  C   UNL     1     -11.587  13.788  67.476  1.00  0.00    -0.387 C  
HETATM    9  C   UNL     1     -11.384  14.864  66.399  1.00  0.00    -0.308 C  
HETATM   10  C   UNL     1     -11.708  12.392  66.869  1.00  0.00    -0.362 C  
HETATM   11  O   UNL     1     -12.059  11.445  67.770  1.00  0.00    -0.637 OA 
HETATM   12  O   UNL     1     -11.561  12.125  65.687  1.00  0.00    -0.364 OA 
HETATM   13  C   UNL     1      -9.966  14.886  65.822  1.00  0.00    -0.376 C  
ENDBRANCH   2   5
TORSDOF 1
ENDMDL
MODEL       49
REMARK 921   NORMALIZED FREE ENERGY PREDICTED BY IDOCK:   -3.35 KCAL/MOL
REMARK 922        TOTAL FREE ENERGY PREDICTED BY IDOCK:   -3.59 KCAL/MOL
REMARK 923 INTER-LIGAND FREE ENERGY PREDICTED BY IDOCK:   -3.53 KCAL/MOL
REMARK 924 INTRA-LIGAND FREE ENERGY PREDICTED BY IDOCK:   -0.06 KCAL/MOL
REMARK 927      BINDING AFFINITY PREDICTED BY RF-SCORE:    0.00 PKD
ROOT
HETATM    1  N   UNL     1      -9.219  16.320  65.713  1.00  0.00    -0.458 NA 
HETATM    2  C   UNL     1      -9.761  15.009  66.055  1.00  0.00    -0.328 C  
HETATM    3  H1  UNL     1      -8.317  16.243  65.244  1.00  0.00     0.000 HD 
HETATM    4  H2  UNL     1      -9.163  16.925  66.532  1.00  0.00     0.000 HD 
ENDROOT
BRANCH   2   5
HETATM    5  C   UNL     1     -11.126  15.125  66.764  1.00  0.00    -0.307 C  
HETATM    6  C   UNL     1     -11.661  13.780  67.281  1.00  0.00    -0.416 C  
HETATM    7  C   UNL     1     -10.886  13.252  68.488  1.00  0.00    -0.286 C  
HETATM    8  C   UNL     1     -10.824  14.264  69.639  1.00  0.00    -0.101 C  
HETATM    9  C   UNL     1     -10.322  15.629  69.148  1.00  0.00    -0.241 C  
HETATM   10  C   UNL     1     -12.158  14.380  70.376  1.00  0.00    -0.331 C  
HETATM   11  O   UNL     1     -12.544  13.227  70.970  1.00  0.00    -0.356 OA 
HETATM   12  O   UNL     1     -12.814  15.404  70.482  1.00  0.00    -0.417 OA 
HETATM   13  C   UNL     1     -11.068  16.143  67.914  1.00  0.00    -0.293 C  
ENDBRANCH   2   5
TORSDOF 1
ENDMDL
MODEL       50
REMARK 921   NORMALIZED FREE ENERGY PREDICTED BY IDOCK:   -3.35 KCAL/MOL
REMARK 922        TOTAL FREE ENERGY PREDICTED BY IDOCK:   -3.58 KCAL/MOL
REMARK 923 INTER-LIGAND FREE ENERGY PREDICTED BY IDOCK:   -3.56 KCAL/MOL
REMARK 924 INTRA-LIGAND FREE ENERGY PREDICTED BY IDOCK:   -0.03 KCAL/MOL
REMARK 927      BINDING AFFINITY PREDICTED BY RF-SCORE:    0.00 PKD
ROOT
HETATM    1  N   UNL     1     -11.126   4.691  65.545  1.00  0.00    -0.942 NA 
HETATM    2  C   UNL     1     -10.291   5.325  66.559  1.00  0.00    -0.285 C  
HETATM    3  H1  UNL     1     -10.617   3.968  65.036  1.00  0.00     0.000 HD 
HETATM    4  H2  UNL     1     -11.529   5.380  64.911  1.00  0.00     0.000 HD 
ENDROOT
BRANCH   2   5
HETATM    5  C   UNL     1     -11.061   6.417  67.330  1.00  0.00    -0.416 C  
HETATM    6  C   UNL     1     -11.041   6.216  68.854  1.00  0.00    -0.417 C  
HETATM    7  C   UNL     1      -9.675   6.499  69.477  1.00  0.00    -0.161 C  
HETATM    8  C   UNL     1      -9.144   7.896  69.130  1.00  0.00    -0.145 C  
HETATM    9  C   UNL     1      -9.180   8.139  67.614  1.00  0.00    -0.150 C  
HETATM   10  C   UNL     1      -9.874   8.996  69.899  1.00  0.00    -0.183 C  
HETATM   11  O   UNL     1      -9.715   8.907  71.240  1.00  0.00    -0.235 OA 
HETATM   12  O   UNL     1     -10.505   9.909  69.390  1.00  0.00    -0.203 OA 
HETATM   13  C   UNL     1     -10.536   7.817  66.978  1.00  0.00    -0.419 C  
ENDBRANCH   2   5
TORSDOF 1
ENDMDL
MODEL       51
REMARK 921   NORMALIZED FREE ENERGY PREDICTED BY IDOCK:   -3.34 KCAL/MOL
REMARK 922        TOTAL FREE ENERGY PREDICTED BY IDOCK:   -3.58 KCAL/MOL
REMARK 923 INTER-LIGAND FREE ENERGY PREDICTED BY IDOCK:   -3.53 KCAL/MOL
REMARK 924 INTRA-LIGAND FREE ENERGY PREDICTED BY IDOCK:   -0.05 KCAL/MOL
REMARK 927      BINDING AFFINITY PREDICTED BY RF-SCORE:    0.00 PKD
ROOT
HETATM    1  N   UNL     1     -12.923  15.825  70.670  1.00  0.00    -0.684 NA 
HETATM    2  C   UNL     1     -11.572  15.297  70.516  1.00  0.00    -0.306 C  
HETATM    3  H1  UNL     1     -13.152  15.993  71.650  1.00  0.00     0.000 HD 
HETATM    4  H2  UNL     1     -13.613  15.219  70.225  1.00  0.00     0.000 HD 
ENDROOT
BRANCH   2   5
HETATM    5  C   UNL     1     -11.226  15.043  69.034  1.00  0.00    -0.279 C  
HETATM    6  C   UNL     1     -11.647  16.193  68.105  1.00  0.00    -0.133 C  
HETATM    7  C   UNL     1     -10.782  17.443  68.271  1.00  0.00    -0.327 C  
HETATM    8  C   UNL     1      -9.285  17.153  68.096  1.00  0.00    -0.261 C  
HETATM    9  C   UNL     1      -8.841  15.987  68.990  1.00  0.00    -0.244 C  
HETATM   10  C   UNL     1      -8.911  16.923  66.633  1.00  0.00    -0.246 C  
HETATM   11  O   UNL     1      -9.132  18.002  65.847  1.00  0.00    -0.513 OA 
HETATM   12  O   UNL     1      -8.414  15.900  66.188  1.00  0.00    -0.318 OA 
HETATM   13  C   UNL     1      -9.729  14.746  68.858  1.00  0.00    -0.215 C  
ENDBRANCH   2   5
TORSDOF 1
ENDMDL
MODEL       52
REMARK 921   NORMALIZED FREE ENERGY PREDICTED BY IDOCK:   -3.34 KCAL/MOL
REMARK 922        TOTAL FREE ENERGY PREDICTED BY IDOCK:   -3.57 KCAL/MOL
REMARK 923 INTER-LIGAND FREE ENERGY PREDICTED BY IDOCK:   -3.68 KCAL/MOL
REMARK 924 INTRA-LIGAND FREE ENERGY PREDICTED BY IDOCK:    0.11 KCAL/MOL
REMARK 927      BINDING AFFINITY PREDICTED BY RF-SCORE:    0.00 PKD
ROOT
HETATM    1  N   UNL     1     -10.935  16.957  69.827  1.00  0.00    -0.371 NA 
HETATM    2  C   UNL     1     -10.880  16.709  68.391  1.00  0.00    -0.361 C  
HETATM    3  H1  UNL     1     -11.032  16.089  70.355  1.00  0.00     0.000 HD 
HETATM    4  H2  UNL     1     -11.672  17.621  70.063  1.00  0.00     0.000 HD 
ENDROOT
BRANCH   2   5
HETATM    5  C   UNL     1     -10.733  18.021  67.593  1.00  0.00    -0.360 C  
HETATM    6  C   UNL     1     -10.121  19.168  68.413  1.00  0.00    -0.498 C  
HETATM    7  C   UNL     1      -8.632  18.973  68.698  1.00  0.00    -0.389 C  
HETATM    8  C   UNL     1      -7.811  18.751  67.421  1.00  0.00    -0.245 C  
HETATM    9  C   UNL     1      -8.415  17.630  66.563  1.00  0.00    -0.294 C  
HETATM   10  C   UNL     1      -7.628  20.041  66.623  1.00  0.00    -0.285 C  
HETATM   11  O   UNL     1      -6.942  20.994  67.296  1.00  0.00    -0.352 OA 
HETATM   12  O   UNL     1      -8.004  20.216  65.475  1.00  0.00    -0.202 OA 
HETATM   13  C   UNL     1      -9.916  17.800  66.310  1.00  0.00    -0.322 C  
ENDBRANCH   2   5
TORSDOF 1
ENDMDL
MODEL       53
REMARK 921   NORMALIZED FREE ENERGY PREDICTED BY IDOCK:   -3.33 KCAL/MOL
REMARK 922        TOTAL FREE ENERGY PREDICTED BY IDOCK:   -3.57 KCAL/MOL
REMARK 923 INTER-LIGAND FREE ENERGY PREDICTED BY IDOCK:   -3.54 KCAL/MOL
REMARK 924 INTRA-LIGAND FREE ENERGY PREDICTED BY IDOCK:   -0.03 KCAL/MOL
REMARK 927      BINDING AFFINITY PREDICTED BY RF-SCORE:    0.00 PKD
ROOT
HETATM    1  N   UNL     1      -9.796  17.534  68.723  1.00  0.00    -0.324 NA 
HETATM    2  C   UNL     1     -10.984  16.708  68.911  1.00  0.00    -0.294 C  
HETATM    3  H1  UNL     1      -9.948  18.257  68.019  1.00  0.00     0.000 HD 
HETATM    4  H2  UNL     1      -8.978  16.966  68.503  1.00  0.00     0.000 HD 
ENDROOT
BRANCH   2   5
HETATM    5  C   UNL     1     -10.755  15.616  69.976  1.00  0.00    -0.345 C  
HETATM    6  C   UNL     1     -11.487  15.892  71.299  1.00  0.00    -0.489 C  
HETATM    7  C   UNL     1     -13.001  15.712  71.193  1.00  0.00    -0.539 C  
HETATM    8  C   UNL     1     -13.396  14.330  70.658  1.00  0.00    -0.070 C  
HETATM    9  C   UNL     1     -12.656  14.012  69.350  1.00  0.00     0.081 C  
HETATM   10  C   UNL     1     -13.203  13.231  71.702  1.00  0.00    -0.359 C  
HETATM   11  O   UNL     1     -13.977  13.394  72.800  1.00  0.00    -0.724 OA 
HETATM   12  O   UNL     1     -12.470  12.263  71.575  1.00  0.00    -0.194 OA 
HETATM   13  C   UNL     1     -11.143  14.230  69.440  1.00  0.00    -0.283 C  
ENDBRANCH   2   5
TORSDOF 1
ENDMDL
MODEL       54
REMARK 921   NORMALIZED FREE ENERGY PREDICTED BY IDOCK:   -3.31 KCAL/MOL
REMARK 922        TOTAL FREE ENERGY PREDICTED BY IDOCK:   -3.55 KCAL/MOL
REMARK 923 INTER-LIGAND FREE ENERGY PREDICTED BY IDOCK:   -3.49 KCAL/MOL
REMARK 924 INTRA-LIGAND FREE ENERGY PREDICTED BY IDOCK:   -0.06 KCAL/MOL
REMARK 927      BINDING AFFINITY PREDICTED BY RF-SCORE:    0.00 PKD
ROOT
HETATM    1  N   UNL     1     -11.583  10.169  68.464  1.00  0.00    -0.589 NA 
HETATM    2  C   UNL     1     -11.368  10.127  69.907  1.00  0.00    -0.275 C  
HETATM    3  H1  UNL     1     -12.231  10.912  68.202  1.00  0.00     0.000 HD 
HETATM    4  H2  UNL     1     -11.888   9.265  68.106  1.00  0.00     0.000 HD 
ENDROOT
BRANCH   2   5
HETATM    5  C   UNL     1     -10.387   9.005  70.303  1.00  0.00    -0.243 C  
HETATM    6  C   UNL     1     -10.263   8.812  71.823  1.00  0.00    -0.408 C  
HETATM    7  C   UNL     1     -11.506   8.181  72.449  1.00  0.00    -0.462 C  
HETATM    8  C   UNL     1     -11.892   6.853  71.786  1.00  0.00    -0.354 C  
HETATM    9  C   UNL     1     -11.994   7.005  70.262  1.00  0.00    -0.197 C  
HETATM   10  C   UNL     1     -10.950   5.717  72.182  1.00  0.00    -0.250 C  
HETATM   11  O   UNL     1     -10.970   5.442  73.507  1.00  0.00    -0.285 OA 
HETATM   12  O   UNL     1     -10.270   5.066  71.405  1.00  0.00    -0.198 OA 
HETATM   13  C   UNL     1     -10.768   7.675  69.635  1.00  0.00    -0.230 C  
ENDBRANCH   2   5
TORSDOF 1
ENDMDL
MODEL       55
REMARK 921   NORMALIZED FREE ENERGY PREDICTED BY IDOCK:   -3.23 KCAL/MOL
REMARK 922        TOTAL FREE ENERGY PREDICTED BY IDOCK:   -3.46 KCAL/MOL
REMARK 923 INTER-LIGAND FREE ENERGY PREDICTED BY IDOCK:   -3.41 KCAL/MOL
REMARK 924 INTRA-LIGAND FREE ENERGY PREDICTED BY IDOCK:   -0.05 KCAL/MOL
REMARK 927      BINDING AFFINITY PREDICTED BY RF-SCORE:    0.00 PKD
ROOT
HETATM    1  N   UNL     1     -12.380  14.276  67.035  1.00  0.00    -0.580 NA 
HETATM    2  C   UNL     1     -11.713  12.987  66.885  1.00  0.00    -0.383 C  
HETATM    3  H1  UNL     1     -13.027  14.457  66.267  1.00  0.00     0.000 HD 
HETATM    4  H2  UNL     1     -11.706  15.034  67.140  1.00  0.00     0.000 HD 
ENDROOT
BRANCH   2   5
HETATM    5  C   UNL     1     -10.735  12.713  68.045  1.00  0.00    -0.243 C  
HETATM    6  C   UNL     1     -11.435  12.533  69.402  1.00  0.00    -0.327 C  
HETATM    7  C   UNL     1     -12.200  11.214  69.509  1.00  0.00    -0.347 C  
HETATM    8  C   UNL     1     -11.320   9.994  69.211  1.00  0.00    -0.169 C  
HETATM    9  C   UNL     1     -10.582  10.158  67.875  1.00  0.00    -0.294 C  
HETATM   10  C   UNL     1     -10.357   9.685  70.357  1.00  0.00    -0.291 C  
HETATM   11  O   UNL     1     -10.985   9.365  71.512  1.00  0.00    -0.355 OA 
HETATM   12  O   UNL     1      -9.140   9.670  70.267  1.00  0.00    -0.235 OA 
HETATM   13  C   UNL     1      -9.848  11.496  67.746  1.00  0.00    -0.186 C  
ENDBRANCH   2   5
TORSDOF 1
ENDMDL
MODEL       56
REMARK 921   NORMALIZED FREE ENERGY PREDICTED BY IDOCK:   -3.23 KCAL/MOL
REMARK 922        TOTAL FREE ENERGY PREDICTED BY IDOCK:   -3.46 KCAL/MOL
REMARK 923 INTER-LIGAND FREE ENERGY PREDICTED BY IDOCK:   -3.42 KCAL/MOL
REMARK 924 INTRA-LIGAND FREE ENERGY PREDICTED BY IDOCK:   -0.04 KCAL/MOL
REMARK 927      BINDING AFFINITY PREDICTED BY RF-SCORE:    0.00 PKD
ROOT
HETATM    1  N   UNL     1     -11.103   5.463  66.175  1.00  0.00    -0.784 NA 
HETATM    2  C   UNL     1     -11.001   6.690  66.958  1.00  0.00    -0.393 C  
HETATM    3  H1  UNL     1     -11.769   5.561  65.408  1.00  0.00     0.000 HD 
HETATM    4  H2  UNL     1     -11.330   4.663  66.765  1.00  0.00     0.000 HD 
ENDROOT
BRANCH   2   5
HETATM    5  C   UNL     1      -9.995   6.543  68.117  1.00  0.00    -0.145 C  
HETATM    6  C   UNL     1      -9.470   7.889  68.644  1.00  0.00    -0.149 C  
HETATM    7  C   UNL     1     -10.521   8.674  69.429  1.00  0.00    -0.224 C  
HETATM    8  C   UNL     1     -11.125   7.863  70.583  1.00  0.00    -0.263 C  
HETATM    9  C   UNL     1     -11.631   6.498  70.093  1.00  0.00    -0.466 C  
HETATM   10  C   UNL     1     -10.157   7.723  71.756  1.00  0.00    -0.179 C  
HETATM   11  O   UNL     1      -9.827   8.907  72.322  1.00  0.00    -0.284 OA 
HETATM   12  O   UNL     1      -9.739   6.665  72.200  1.00  0.00    -0.155 OA 
HETATM   13  C   UNL     1     -10.595   5.725  69.271  1.00  0.00    -0.376 C  
ENDBRANCH   2   5
TORSDOF 1
ENDMDL
MODEL       57
REMARK 921   NORMALIZED FREE ENERGY PREDICTED BY IDOCK:   -3.22 KCAL/MOL
REMARK 922        TOTAL FREE ENERGY PREDICTED BY IDOCK:   -3.45 KCAL/MOL
REMARK 923 INTER-LIGAND FREE ENERGY PREDICTED BY IDOCK:   -3.39 KCAL/MOL
REMARK 924 INTRA-LIGAND FREE ENERGY PREDICTED BY IDOCK:   -0.05 KCAL/MOL
REMARK 927      BINDING AFFINITY PREDICTED BY RF-SCORE:    0.00 PKD
ROOT
HETATM    1  N   UNL     1      -9.591   9.678  64.203  1.00  0.00    -0.406 NA 
HETATM    2  C   UNL     1      -9.098  10.609  65.212  1.00  0.00    -0.195 C  
HETATM    3  H1  UNL     1      -8.829   9.280  63.654  1.00  0.00     0.000 HD 
HETATM    4  H2  UNL     1     -10.293  10.114  63.605  1.00  0.00     0.000 HD 
ENDROOT
BRANCH   2   5
HETATM    5  C   UNL     1     -10.250  11.210  66.043  1.00  0.00    -0.300 C  
HETATM    6  C   UNL     1      -9.768  12.128  67.178  1.00  0.00    -0.203 C  
HETATM    7  C   UNL     1      -9.208  13.458  66.675  1.00  0.00    -0.223 C  
HETATM    8  C   UNL     1     -10.198  14.215  65.779  1.00  0.00    -0.347 C  
HETATM    9  C   UNL     1     -10.721  13.313  64.651  1.00  0.00    -0.415 C  
HETATM   10  C   UNL     1     -11.337  14.842  66.581  1.00  0.00    -0.326 C  
HETATM   11  O   UNL     1     -10.917  15.773  67.468  1.00  0.00    -0.318 OA 
HETATM   12  O   UNL     1     -12.522  14.591  66.431  1.00  0.00    -0.315 OA 
HETATM   13  C   UNL     1     -11.245  11.962  65.147  1.00  0.00    -0.346 C  
ENDBRANCH   2   5
TORSDOF 1
ENDMDL
MODEL       58
REMARK 921   NORMALIZED FREE ENERGY PREDICTED BY IDOCK:   -3.22 KCAL/MOL
REMARK 922        TOTAL FREE ENERGY PREDICTED BY IDOCK:   -3.45 KCAL/MOL
REMARK 923 INTER-LIGAND FREE ENERGY PREDICTED BY IDOCK:   -3.40 KCAL/MOL
REMARK 924 INTRA-LIGAND FREE ENERGY PREDICTED BY IDOCK:   -0.05 KCAL/MOL
REMARK 927      BINDING AFFINITY PREDICTED BY RF-SCORE:    0.00 PKD
ROOT
HETATM    1  N   UNL     1     -11.110   7.177  67.144  1.00  0.00    -0.585 NA 
HETATM    2  C   UNL     1     -10.211   7.790  68.116  1.00  0.00    -0.202 C  
HETATM    3  H1  UNL     1     -11.374   7.834  66.409  1.00  0.00     0.000 HD 
HETATM    4  H2  UNL     1     -11.931   6.777  67.598  1.00  0.00     0.000 HD 
ENDROOT
BRANCH   2   5
HETATM    5  C   UNL     1      -9.811   6.798  69.227  1.00  0.00    -0.160 C  
HETATM    6  C   UNL     1      -9.100   7.466  70.415  1.00  0.00    -0.157 C  
HETATM    7  C   UNL     1     -10.037   8.314  71.273  1.00  0.00    -0.249 C  
HETATM    8  C   UNL     1     -11.256   7.527  71.772  1.00  0.00    -0.281 C  
HETATM    9  C   UNL     1     -11.971   6.822  70.611  1.00  0.00    -0.418 C  
HETATM   10  C   UNL     1     -10.892   6.553  72.892  1.00  0.00    -0.258 C  
HETATM   11  O   UNL     1     -10.417   7.166  74.001  1.00  0.00    -0.353 OA 
HETATM   12  O   UNL     1     -11.046   5.343  72.847  1.00  0.00    -0.264 OA 
HETATM   13  C   UNL     1     -11.029   6.003  69.724  1.00  0.00    -0.471 C  
ENDBRANCH   2   5
TORSDOF 1
ENDMDL
MODEL       59
REMARK 921   NORMALIZED FREE ENERGY PREDICTED BY IDOCK:   -3.21 KCAL/MOL
REMARK 922        TOTAL FREE ENERGY PREDICTED BY IDOCK:   -3.44 KCAL/MOL
REMARK 923 INTER-LIGAND FREE ENERGY PREDICTED BY IDOCK:   -3.40 KCAL/MOL
REMARK 924 INTRA-LIGAND FREE ENERGY PREDICTED BY IDOCK:   -0.04 KCAL/MOL
REMARK 927      BINDING AFFINITY PREDICTED BY RF-SCORE:    0.00 PKD
ROOT
HETATM    1  N   UNL     1      -7.324  14.514  67.412  1.00  0.00    -0.226 NA 
HETATM    2  C   UNL     1      -7.497  15.606  68.364  1.00  0.00    -0.120 C  
HETATM    3  H1  UNL     1      -7.424  13.603  67.862  1.00  0.00     0.000 HD 
HETATM    4  H2  UNL     1      -6.436  14.589  66.916  1.00  0.00     0.000 HD 
ENDROOT
BRANCH   2   5
HETATM    5  C   UNL     1      -7.346  16.982  67.683  1.00  0.00    -0.176 C  
HETATM    6  C   UNL     1      -8.025  17.059  66.306  1.00  0.00    -0.343 C  
HETATM    7  C   UNL     1      -9.551  17.077  66.392  1.00  0.00    -0.301 C  
HETATM    8  C   UNL     1     -10.079  18.198  67.296  1.00  0.00    -0.354 C  
HETATM    9  C   UNL     1      -9.396  18.167  68.671  1.00  0.00    -0.309 C  
HETATM   10  C   UNL     1      -9.965  19.571  66.635  1.00  0.00    -0.407 C  
HETATM   11  O   UNL     1     -10.700  19.684  65.504  1.00  0.00    -0.473 OA 
HETATM   12  O   UNL     1      -9.325  20.512  67.078  1.00  0.00    -0.383 OA 
HETATM   13  C   UNL     1      -7.868  18.108  68.589  1.00  0.00    -0.307 C  
ENDBRANCH   2   5
TORSDOF 1
ENDMDL
MODEL       60
REMARK 921   NORMALIZED FREE ENERGY PREDICTED BY IDOCK:   -3.19 KCAL/MOL
REMARK 922        TOTAL FREE ENERGY PREDICTED BY IDOCK:   -3.42 KCAL/MOL
REMARK 923 INTER-LIGAND FREE ENERGY PREDICTED BY IDOCK:   -3.39 KCAL/MOL
REMARK 924 INTRA-LIGAND FREE ENERGY PREDICTED BY IDOCK:   -0.03 KCAL/MOL
REMARK 927      BINDING AFFINITY PREDICTED BY RF-SCORE:    0.00 PKD
ROOT
HETATM    1  N   UNL     1     -10.026   9.648  65.424  1.00  0.00    -0.397 NA 
HETATM    2  C   UNL     1     -10.401  10.517  66.534  1.00  0.00    -0.233 C  
HETATM    3  H1  UNL     1      -9.902   8.682  65.727  1.00  0.00     0.000 HD 
HETATM    4  H2  UNL     1      -9.198   9.997  64.941  1.00  0.00     0.000 HD 
ENDROOT
BRANCH   2   5
HETATM    5  C   UNL     1     -10.590  11.977  66.076  1.00  0.00    -0.303 C  
HETATM    6  C   UNL     1     -11.892  12.614  66.589  1.00  0.00    -0.449 C  
HETATM    7  C   UNL     1     -11.863  12.908  68.088  1.00  0.00    -0.380 C  
HETATM    8  C   UNL     1     -10.664  13.773  68.498  1.00  0.00    -0.274 C  
HETATM    9  C   UNL     1      -9.349  13.179  67.972  1.00  0.00    -0.219 C  
HETATM   10  C   UNL     1     -10.837  15.232  68.077  1.00  0.00    -0.288 C  
HETATM   11  O   UNL     1     -11.896  15.836  68.664  1.00  0.00    -0.385 OA 
HETATM   12  O   UNL     1     -10.088  15.840  67.329  1.00  0.00    -0.240 OA 
HETATM   13  C   UNL     1      -9.387  12.844  66.478  1.00  0.00    -0.224 C  
ENDBRANCH   2   5
TORSDOF 1
ENDMDL
MODEL       61
REMARK 921   NORMALIZED FREE ENERGY PREDICTED BY IDOCK:   -3.19 KCAL/MOL
REMARK 922        TOTAL FREE ENERGY PREDICTED BY IDOCK:   -3.42 KCAL/MOL
REMARK 923 INTER-LIGAND FREE ENERGY PREDICTED BY IDOCK:   -3.39 KCAL/MOL
REMARK 924 INTRA-LIGAND FREE ENERGY PREDICTED BY IDOCK:   -0.03 KCAL/MOL
REMARK 927      BINDING AFFINITY PREDICTED BY RF-SCORE:    0.00 PKD
ROOT
HETATM    1  N   UNL     1      -6.494  21.208  65.175  1.00  0.00    -0.481 NA 
HETATM    2  C   UNL     1      -6.476  20.119  66.146  1.00  0.00    -0.207 C  
HETATM    3  H1  UNL     1      -5.637  21.761  65.214  1.00  0.00     0.000 HD 
HETATM    4  H2  UNL     1      -7.321  21.794  65.288  1.00  0.00     0.000 HD 
ENDROOT
BRANCH   2   5
HETATM    5  C   UNL     1      -7.771  19.283  66.087  1.00  0.00    -0.304 C  
HETATM    6  C   UNL     1      -7.527  17.772  66.225  1.00  0.00    -0.328 C  
HETATM    7  C   UNL     1      -7.121  17.358  67.639  1.00  0.00    -0.176 C  
HETATM    8  C   UNL     1      -8.125  17.823  68.702  1.00  0.00    -0.277 C  
HETATM    9  C   UNL     1      -8.414  19.325  68.570  1.00  0.00    -0.401 C  
HETATM   10  C   UNL     1      -9.409  16.994  68.682  1.00  0.00    -0.270 C  
HETATM   11  O   UNL     1      -9.206  15.687  68.968  1.00  0.00    -0.206 OA 
HETATM   12  O   UNL     1     -10.528  17.437  68.482  1.00  0.00    -0.353 OA 
HETATM   13  C   UNL     1      -8.781  19.751  67.146  1.00  0.00    -0.383 C  
ENDBRANCH   2   5
TORSDOF 1
ENDMDL
MODEL       62
REMARK 921   NORMALIZED FREE ENERGY PREDICTED BY IDOCK:   -3.19 KCAL/MOL
REMARK 922        TOTAL FREE ENERGY PREDICTED BY IDOCK:   -3.41 KCAL/MOL
REMARK 923 INTER-LIGAND FREE ENERGY PREDICTED BY IDOCK:   -3.36 KCAL/MOL
REMARK 924 INTRA-LIGAND FREE ENERGY PREDICTED BY IDOCK:   -0.05 KCAL/MOL
REMARK 927      BINDING AFFINITY PREDICTED BY RF-SCORE:    0.00 PKD
ROOT
HETATM    1  N   UNL     1     -11.138  16.070  70.063  1.00  0.00    -0.337 NA 
HETATM    2  C   UNL     1     -11.272  15.798  68.636  1.00  0.00    -0.351 C  
HETATM    3  H1  UNL     1     -10.713  16.982  70.234  1.00  0.00     0.000 HD 
HETATM    4  H2  UNL     1     -10.627  15.326  70.538  1.00  0.00     0.000 HD 
ENDROOT
BRANCH   2   5
HETATM    5  C   UNL     1     -11.914  14.420  68.378  1.00  0.00    -0.328 C  
HETATM    6  C   UNL     1     -12.137  14.121  66.886  1.00  0.00    -0.466 C  
HETATM    7  C   UNL     1     -10.838  13.848  66.130  1.00  0.00    -0.290 C  
HETATM    8  C   UNL     1     -10.008  12.726  66.766  1.00  0.00    -0.237 C  
HETATM    9  C   UNL     1      -9.794  12.980  68.266  1.00  0.00    -0.225 C  
HETATM   10  C   UNL     1     -10.609  11.346  66.504  1.00  0.00    -0.263 C  
HETATM   11  O   UNL     1     -10.651  11.021  65.191  1.00  0.00    -0.277 OA 
HETATM   12  O   UNL     1     -10.980  10.566  67.367  1.00  0.00    -0.293 OA 
HETATM   13  C   UNL     1     -11.089  13.294  69.020  1.00  0.00    -0.291 C  
ENDBRANCH   2   5
TORSDOF 1
ENDMDL
MODEL       63
REMARK 921   NORMALIZED FREE ENERGY PREDICTED BY IDOCK:   -3.18 KCAL/MOL
REMARK 922        TOTAL FREE ENERGY PREDICTED BY IDOCK:   -3.41 KCAL/MOL
REMARK 923 INTER-LIGAND FREE ENERGY PREDICTED BY IDOCK:   -3.35 KCAL/MOL
REMARK 924 INTRA-LIGAND FREE ENERGY PREDICTED BY IDOCK:   -0.05 KCAL/MOL
REMARK 927      BINDING AFFINITY PREDICTED BY RF-SCORE:    0.00 PKD
ROOT
HETATM    1  N   UNL     1      -7.029   8.781  73.547  1.00  0.00    -0.351 NA 
HETATM    2  C   UNL     1      -8.174   7.906  73.776  1.00  0.00    -0.224 C  
HETATM    3  H1  UNL     1      -6.221   8.495  74.101  1.00  0.00     0.000 HD 
HETATM    4  H2  UNL     1      -7.268   9.758  73.714  1.00  0.00     0.000 HD 
ENDROOT
BRANCH   2   5
HETATM    5  C   UNL     1      -9.396   8.337  72.938  1.00  0.00    -0.324 C  
HETATM    6  C   UNL     1      -9.150   8.269  71.422  1.00  0.00    -0.217 C  
HETATM    7  C   UNL     1      -9.077   6.837  70.893  1.00  0.00    -0.153 C  
HETATM    8  C   UNL     1     -10.315   6.007  71.257  1.00  0.00    -0.266 C  
HETATM    9  C   UNL     1     -10.605   6.081  72.763  1.00  0.00    -0.254 C  
HETATM   10  C   UNL     1     -11.535   6.397  70.423  1.00  0.00    -0.393 C  
HETATM   11  O   UNL     1     -11.369   6.179  69.098  1.00  0.00    -0.399 OA 
HETATM   12  O   UNL     1     -12.587   6.820  70.875  1.00  0.00    -0.336 OA 
HETATM   13  C   UNL     1     -10.639   7.513  73.307  1.00  0.00    -0.438 C  
ENDBRANCH   2   5
TORSDOF 1
ENDMDL
MODEL       64
REMARK 921   NORMALIZED FREE ENERGY PREDICTED BY IDOCK:   -3.17 KCAL/MOL
REMARK 922        TOTAL FREE ENERGY PREDICTED BY IDOCK:   -3.40 KCAL/MOL
REMARK 923 INTER-LIGAND FREE ENERGY PREDICTED BY IDOCK:   -3.35 KCAL/MOL
REMARK 924 INTRA-LIGAND FREE ENERGY PREDICTED BY IDOCK:   -0.05 KCAL/MOL
REMARK 927      BINDING AFFINITY PREDICTED BY RF-SCORE:    0.00 PKD
ROOT
HETATM    1  N   UNL     1      -9.006  18.806  66.086  1.00  0.00    -0.482 NA 
HETATM    2  C   UNL     1      -9.073  17.677  67.007  1.00  0.00    -0.250 C  
HETATM    3  H1  UNL     1      -8.076  19.226  66.071  1.00  0.00     0.000 HD 
HETATM    4  H2  UNL     1      -9.725  19.499  66.295  1.00  0.00     0.000 HD 
ENDROOT
BRANCH   2   5
HETATM    5  C   UNL     1     -10.478  17.042  67.029  1.00  0.00    -0.279 C  
HETATM    6  C   UNL     1     -10.877  16.398  65.692  1.00  0.00    -0.185 C  
HETATM    7  C   UNL     1     -10.112  15.108  65.398  1.00  0.00    -0.384 C  
HETATM    8  C   UNL     1     -10.233  14.078  66.528  1.00  0.00    -0.279 C  
HETATM    9  C   UNL     1      -9.870  14.701  67.884  1.00  0.00    -0.217 C  
HETATM   10  C   UNL     1     -11.609  13.415  66.557  1.00  0.00    -0.357 C  
HETATM   11  O   UNL     1     -11.888  12.709  65.436  1.00  0.00    -0.380 OA 
HETATM   12  O   UNL     1     -12.388  13.453  67.497  1.00  0.00    -0.246 OA 
HETATM   13  C   UNL     1     -10.604  16.015  68.165  1.00  0.00    -0.286 C  
ENDBRANCH   2   5
TORSDOF 1
ENDMDL
MODEL       65
REMARK 921   NORMALIZED FREE ENERGY PREDICTED BY IDOCK:   -3.16 KCAL/MOL
REMARK 922        TOTAL FREE ENERGY PREDICTED BY IDOCK:   -3.39 KCAL/MOL
REMARK 923 INTER-LIGAND FREE ENERGY PREDICTED BY IDOCK:   -3.36 KCAL/MOL
REMARK 924 INTRA-LIGAND FREE ENERGY PREDICTED BY IDOCK:   -0.03 KCAL/MOL
REMARK 927      BINDING AFFINITY PREDICTED BY RF-SCORE:    0.00 PKD
ROOT
HETATM    1  N   UNL     1     -13.482  10.192  72.397  1.00  0.00    -0.594 NA 
HETATM    2  C   UNL     1     -13.060  10.155  71.001  1.00  0.00    -0.375 C  
HETATM    3  H1  UNL     1     -14.425   9.820  72.515  1.00  0.00     0.000 HD 
HETATM    4  H2  UNL     1     -13.401  11.131  72.786  1.00  0.00     0.000 HD 
ENDROOT
BRANCH   2   5
HETATM    5  C   UNL     1     -11.634  10.716  70.822  1.00  0.00    -0.388 C  
HETATM    6  C   UNL     1     -10.555   9.624  70.739  1.00  0.00    -0.392 C  
HETATM    7  C   UNL     1     -10.596   8.843  69.426  1.00  0.00    -0.226 C  
HETATM    8  C   UNL     1     -10.513   9.752  68.193  1.00  0.00    -0.258 C  
HETATM    9  C   UNL     1     -11.560  10.873  68.263  1.00  0.00    -0.335 C  
HETATM   10  C   UNL     1      -9.104  10.302  67.979  1.00  0.00    -0.132 C  
HETATM   11  O   UNL     1      -8.183   9.339  67.742  1.00  0.00    -0.114 OA 
HETATM   12  O   UNL     1      -8.807  11.487  67.966  1.00  0.00    -0.146 OA 
HETATM   13  C   UNL     1     -11.550  11.633  69.592  1.00  0.00    -0.401 C  
ENDBRANCH   2   5
TORSDOF 1
ENDMDL
MODEL       66
REMARK 921   NORMALIZED FREE ENERGY PREDICTED BY IDOCK:   -3.14 KCAL/MOL
REMARK 922        TOTAL FREE ENERGY PREDICTED BY IDOCK:   -3.37 KCAL/MOL
REMARK 923 INTER-LIGAND FREE ENERGY PREDICTED BY IDOCK:   -3.31 KCAL/MOL
REMARK 924 INTRA-LIGAND FREE ENERGY PREDICTED BY IDOCK:   -0.06 KCAL/MOL
REMARK 927      BINDING AFFINITY PREDICTED BY RF-SCORE:    0.00 PKD
ROOT
HETATM    1  N   UNL     1     -11.618  13.540  70.085  1.00  0.00    -0.509 NA 
HETATM    2  C   UNL     1     -11.306  13.488  68.661  1.00  0.00    -0.288 C  
HETATM    3  H1  UNL     1     -11.279  14.403  70.513  1.00  0.00     0.000 HD 
HETATM    4  H2  UNL     1     -11.266  12.718  70.574  1.00  0.00     0.000 HD 
ENDROOT
BRANCH   2   5
HETATM    5  C   UNL     1     -11.819  12.185  68.013  1.00  0.00    -0.351 C  
HETATM    6  C   UNL     1     -11.416  12.039  66.537  1.00  0.00    -0.413 C  
HETATM    7  C   UNL     1      -9.927  11.748  66.349  1.00  0.00    -0.237 C  
HETATM    8  C   UNL     1      -9.461  10.519  67.140  1.00  0.00    -0.182 C  
HETATM    9  C   UNL     1      -9.876  10.622  68.615  1.00  0.00    -0.183 C  
HETATM   10  C   UNL     1      -9.934   9.212  66.505  1.00  0.00    -0.288 C  
HETATM   11  O   UNL     1      -9.441   9.011  65.262  1.00  0.00    -0.186 OA 
HETATM   12  O   UNL     1     -10.646   8.384  67.052  1.00  0.00    -0.314 OA 
HETATM   13  C   UNL     1     -11.358  10.953  68.808  1.00  0.00    -0.357 C  
ENDBRANCH   2   5
TORSDOF 1
ENDMDL
MODEL       67
REMARK 921   NORMALIZED FREE ENERGY PREDICTED BY IDOCK:   -3.13 KCAL/MOL
REMARK 922        TOTAL FREE ENERGY PREDICTED BY IDOCK:   -3.36 KCAL/MOL
REMARK 923 INTER-LIGAND FREE ENERGY PREDICTED BY IDOCK:   -3.33 KCAL/MOL
REMARK 924 INTRA-LIGAND FREE ENERGY PREDICTED BY IDOCK:   -0.03 KCAL/MOL
REMARK 927      BINDING AFFINITY PREDICTED BY RF-SCORE:    0.00 PKD
ROOT
HETATM    1  N   UNL     1     -10.830  15.213  69.370  1.00  0.00    -0.250 NA 
HETATM    2  C   UNL     1     -10.306  14.268  68.390  1.00  0.00    -0.247 C  
HETATM    3  H1  UNL     1     -10.362  15.119  70.272  1.00  0.00     0.000 HD 
HETATM    4  H2  UNL     1     -11.842  15.128  69.465  1.00  0.00     0.000 HD 
ENDROOT
BRANCH   2   5
HETATM    5  C   UNL     1     -11.013  14.410  67.027  1.00  0.00    -0.304 C  
HETATM    6  C   UNL     1     -10.052  14.324  65.830  1.00  0.00    -0.344 C  
HETATM    7  C   UNL     1      -9.512  12.914  65.596  1.00  0.00     0.061 C  
HETATM    8  C   UNL     1     -10.627  11.871  65.444  1.00  0.00    -0.315 C  
HETATM    9  C   UNL     1     -11.623  11.953  66.610  1.00  0.00    -0.337 C  
HETATM   10  C   UNL     1     -11.329  11.974  64.090  1.00  0.00    -0.382 C  
HETATM   11  O   UNL     1     -10.507  11.734  63.042  1.00  0.00    -0.322 OA 
HETATM   12  O   UNL     1     -12.518  12.198  63.931  1.00  0.00    -0.481 OA 
HETATM   13  C   UNL     1     -12.135  13.371  66.875  1.00  0.00    -0.406 C  
ENDBRANCH   2   5
TORSDOF 1
ENDMDL
MODEL       68
REMARK 921   NORMALIZED FREE ENERGY PREDICTED BY IDOCK:   -3.11 KCAL/MOL
REMARK 922        TOTAL FREE ENERGY PREDICTED BY IDOCK:   -3.33 KCAL/MOL
REMARK 923 INTER-LIGAND FREE ENERGY PREDICTED BY IDOCK:   -3.28 KCAL/MOL
REMARK 924 INTRA-LIGAND FREE ENERGY PREDICTED BY IDOCK:   -0.06 KCAL/MOL
REMARK 927      BINDING AFFINITY PREDICTED BY RF-SCORE:    0.00 PKD
ROOT
HETATM    1  N   UNL     1      -5.962  11.920  66.424  1.00  0.00    -0.496 NA 
HETATM    2  C   UNL     1      -7.048  10.957  66.277  1.00  0.00    -0.119 C  
HETATM    3  H1  UNL     1      -5.259  11.809  65.693  1.00  0.00     0.000 HD 
HETATM    4  H2  UNL     1      -5.545  11.871  67.353  1.00  0.00     0.000 HD 
ENDROOT
BRANCH   2   5
HETATM    5  C   UNL     1      -8.112  11.125  67.381  1.00  0.00    -0.132 C  
HETATM    6  C   UNL     1      -8.564  12.582  67.574  1.00  0.00    -0.183 C  
HETATM    7  C   UNL     1      -9.429  13.096  66.424  1.00  0.00    -0.226 C  
HETATM    8  C   UNL     1     -10.648  12.204  66.156  1.00  0.00    -0.290 C  
HETATM    9  C   UNL     1     -10.231  10.735  65.989  1.00  0.00    -0.310 C  
HETATM   10  C   UNL     1     -11.729  12.370  67.222  1.00  0.00    -0.349 C  
HETATM   11  O   UNL     1     -12.241  13.621  67.275  1.00  0.00    -0.366 OA 
HETATM   12  O   UNL     1     -12.150  11.476  67.940  1.00  0.00    -0.630 OA 
HETATM   13  C   UNL     1      -9.330  10.227  67.118  1.00  0.00    -0.175 C  
ENDBRANCH   2   5
TORSDOF 1
ENDMDL
MODEL       69
REMARK 921   NORMALIZED FREE ENERGY PREDICTED BY IDOCK:   -3.11 KCAL/MOL
REMARK 922        TOTAL FREE ENERGY PREDICTED BY IDOCK:   -3.33 KCAL/MOL
REMARK 923 INTER-LIGAND FREE ENERGY PREDICTED BY IDOCK:   -3.30 KCAL/MOL
REMARK 924 INTRA-LIGAND FREE ENERGY PREDICTED BY IDOCK:   -0.03 KCAL/MOL
REMARK 927      BINDING AFFINITY PREDICTED BY RF-SCORE:    0.00 PKD
ROOT
HETATM    1  N   UNL     1     -11.075  10.898  70.393  1.00  0.00    -0.459 NA 
HETATM    2  C   UNL     1     -11.471  10.999  68.992  1.00  0.00    -0.299 C  
HETATM    3  H1  UNL     1     -11.579  10.152  70.873  1.00  0.00     0.000 HD 
HETATM    4  H2  UNL     1     -11.181  11.791  70.875  1.00  0.00     0.000 HD 
ENDROOT
BRANCH   2   5
HETATM    5  C   UNL     1     -10.709  12.126  68.265  1.00  0.00    -0.248 C  
HETATM    6  C   UNL     1      -9.633  11.607  67.297  1.00  0.00    -0.182 C  
HETATM    7  C   UNL     1     -10.220  10.961  66.042  1.00  0.00    -0.311 C  
HETATM    8  C   UNL     1     -11.188  11.888  65.296  1.00  0.00    -0.351 C  
HETATM    9  C   UNL     1     -12.258  12.447  66.245  1.00  0.00    -0.062 C  
HETATM   10  C   UNL     1     -10.457  13.000  64.546  1.00  0.00    -0.392 C  
HETATM   11  O   UNL     1      -9.630  12.539  63.579  1.00  0.00    -0.171 OA 
HETATM   12  O   UNL     1     -10.612  14.196  64.737  1.00  0.00    -0.407 OA 
HETATM   13  C   UNL     1     -11.677  13.060  67.523  1.00  0.00    -0.421 C  
ENDBRANCH   2   5
TORSDOF 1
ENDMDL
MODEL       70
REMARK 921   NORMALIZED FREE ENERGY PREDICTED BY IDOCK:   -3.10 KCAL/MOL
REMARK 922        TOTAL FREE ENERGY PREDICTED BY IDOCK:   -3.32 KCAL/MOL
REMARK 923 INTER-LIGAND FREE ENERGY PREDICTED BY IDOCK:   -3.36 KCAL/MOL
REMARK 924 INTRA-LIGAND FREE ENERGY PREDICTED BY IDOCK:    0.04 KCAL/MOL
REMARK 927      BINDING AFFINITY PREDICTED BY RF-SCORE:    0.00 PKD
ROOT
HETATM    1  N   UNL     1     -11.078   5.024  74.109  1.00  0.00    -0.392 NA 
HETATM    2  C   UNL     1     -11.776   5.233  72.845  1.00  0.00    -0.153 C  
HETATM    3  H1  UNL     1     -11.695   4.627  74.818  1.00  0.00     0.000 HD 
HETATM    4  H2  UNL     1     -10.637   5.883  74.437  1.00  0.00     0.000 HD 
ENDROOT
BRANCH   2   5
HETATM    5  C   UNL     1     -10.844   5.832  71.772  1.00  0.00    -0.311 C  
HETATM    6  C   UNL     1     -11.592   6.622  70.686  1.00  0.00    -0.439 C  
HETATM    7  C   UNL     1     -12.148   7.953  71.191  1.00  0.00    -0.294 C  
HETATM    8  C   UNL     1     -11.072   8.839  71.830  1.00  0.00    -0.434 C  
HETATM    9  C   UNL     1     -10.285   8.068  72.900  1.00  0.00    -0.384 C  
HETATM   10  C   UNL     1     -10.148   9.466  70.787  1.00  0.00    -0.298 C  
HETATM   11  O   UNL     1     -10.791  10.294  69.931  1.00  0.00    -0.263 OA 
HETATM   12  O   UNL     1      -8.940   9.301  70.729  1.00  0.00    -0.228 OA 
HETATM   13  C   UNL     1      -9.760   6.715  72.411  1.00  0.00    -0.162 C  
ENDBRANCH   2   5
TORSDOF 1
ENDMDL
MODEL       71
REMARK 921   NORMALIZED FREE ENERGY PREDICTED BY IDOCK:   -3.07 KCAL/MOL
REMARK 922        TOTAL FREE ENERGY PREDICTED BY IDOCK:   -3.29 KCAL/MOL
REMARK 923 INTER-LIGAND FREE ENERGY PREDICTED BY IDOCK:   -3.26 KCAL/MOL
REMARK 924 INTRA-LIGAND FREE ENERGY PREDICTED BY IDOCK:   -0.03 KCAL/MOL
REMARK 927      BINDING AFFINITY PREDICTED BY RF-SCORE:    0.00 PKD
ROOT
HETATM    1  N   UNL     1     -13.322   8.749  72.962  1.00  0.00    -0.903 NA 
HETATM    2  C   UNL     1     -12.044   8.180  72.548  1.00  0.00    -0.318 C  
HETATM    3  H1  UNL     1     -13.421   8.752  73.978  1.00  0.00     0.000 HD 
HETATM    4  H2  UNL     1     -14.105   8.275  72.512  1.00  0.00     0.000 HD 
ENDROOT
BRANCH   2   5
HETATM    5  C   UNL     1     -11.894   8.177  71.013  1.00  0.00    -0.279 C  
HETATM    6  C   UNL     1     -11.075   9.363  70.478  1.00  0.00    -0.330 C  
HETATM    7  C   UNL     1      -9.584   9.252  70.797  1.00  0.00    -0.341 C  
HETATM    8  C   UNL     1      -8.971   7.933  70.306  1.00  0.00    -0.151 C  
HETATM    9  C   UNL     1      -9.787   6.729  70.798  1.00  0.00    -0.194 C  
HETATM   10  C   UNL     1      -8.788   7.914  68.789  1.00  0.00    -0.138 C  
HETATM   11  O   UNL     1      -7.933   8.862  68.341  1.00  0.00    -0.102 OA 
HETATM   12  O   UNL     1      -9.304   7.109  68.030  1.00  0.00    -0.130 OA 
HETATM   13  C   UNL     1     -11.287   6.855  70.519  1.00  0.00    -0.374 C  
ENDBRANCH   2   5
TORSDOF 1
ENDMDL
MODEL       72
REMARK 921   NORMALIZED FREE ENERGY PREDICTED BY IDOCK:   -3.06 KCAL/MOL
REMARK 922        TOTAL FREE ENERGY PREDICTED BY IDOCK:   -3.28 KCAL/MOL
REMARK 923 INTER-LIGAND FREE ENERGY PREDICTED BY IDOCK:   -3.25 KCAL/MOL
REMARK 924 INTRA-LIGAND FREE ENERGY PREDICTED BY IDOCK:   -0.03 KCAL/MOL
REMARK 927      BINDING AFFINITY PREDICTED BY RF-SCORE:    0.00 PKD
ROOT
HETATM    1  N   UNL     1     -11.121   6.219  66.754  1.00  0.00    -0.732 NA 
HETATM    2  C   UNL     1     -10.746   5.836  68.111  1.00  0.00    -0.209 C  
HETATM    3  H1  UNL     1     -10.931   5.472  66.085  1.00  0.00     0.000 HD 
HETATM    4  H2  UNL     1     -10.671   7.091  66.476  1.00  0.00     0.000 HD 
ENDROOT
BRANCH   2   5
HETATM    5  C   UNL     1     -11.034   6.965  69.121  1.00  0.00    -0.240 C  
HETATM    6  C   UNL     1     -11.761   6.480  70.386  1.00  0.00    -0.439 C  
HETATM    7  C   UNL     1     -10.868   5.650  71.307  1.00  0.00    -0.289 C  
HETATM    8  C   UNL     1      -9.578   6.382  71.697  1.00  0.00    -0.171 C  
HETATM    9  C   UNL     1      -8.843   6.906  70.455  1.00  0.00    -0.152 C  
HETATM   10  C   UNL     1      -9.831   7.491  72.718  1.00  0.00    -0.208 C  
HETATM   11  O   UNL     1     -10.320   7.034  73.894  1.00  0.00    -0.363 OA 
HETATM   12  O   UNL     1      -9.584   8.674  72.545  1.00  0.00    -0.278 OA 
HETATM   13  C   UNL     1      -9.744   7.704  69.508  1.00  0.00    -0.168 C  
ENDBRANCH   2   5
TORSDOF 1
ENDMDL
MODEL       73
REMARK 921   NORMALIZED FREE ENERGY PREDICTED BY IDOCK:   -3.04 KCAL/MOL
REMARK 922        TOTAL FREE ENERGY PREDICTED BY IDOCK:   -3.26 KCAL/MOL
REMARK 923 INTER-LIGAND FREE ENERGY PREDICTED BY IDOCK:   -3.23 KCAL/MOL
REMARK 924 INTRA-LIGAND FREE ENERGY PREDICTED BY IDOCK:   -0.03 KCAL/MOL
REMARK 927      BINDING AFFINITY PREDICTED BY RF-SCORE:    0.00 PKD
ROOT
HETATM    1  N   UNL     1     -11.295   6.529  66.914  1.00  0.00    -0.817 NA 
HETATM    2  C   UNL     1     -10.414   6.819  68.041  1.00  0.00    -0.211 C  
HETATM    3  H1  UNL     1     -10.848   6.745  66.022  1.00  0.00     0.000 HD 
HETATM    4  H2  UNL     1     -12.190   7.008  67.008  1.00  0.00     0.000 HD 
ENDROOT
BRANCH   2   5
HETATM    5  C   UNL     1     -11.088   6.492  69.389  1.00  0.00    -0.407 C  
HETATM    6  C   UNL     1     -10.341   5.421  70.200  1.00  0.00    -0.361 C  
HETATM    7  C   UNL     1      -9.023   5.927  70.786  1.00  0.00    -0.155 C  
HETATM    8  C   UNL     1      -9.200   7.193  71.635  1.00  0.00    -0.149 C  
HETATM    9  C   UNL     1      -9.972   8.272  70.861  1.00  0.00    -0.223 C  
HETATM   10  C   UNL     1      -9.844   6.893  72.988  1.00  0.00    -0.179 C  
HETATM   11  O   UNL     1      -9.097   6.075  73.766  1.00  0.00    -0.127 OA 
HETATM   12  O   UNL     1     -10.899   7.363  73.383  1.00  0.00    -0.388 OA 
HETATM   13  C   UNL     1     -11.273   7.759  70.237  1.00  0.00    -0.215 C  
ENDBRANCH   2   5
TORSDOF 1
ENDMDL
MODEL       74
REMARK 921   NORMALIZED FREE ENERGY PREDICTED BY IDOCK:   -3.03 KCAL/MOL
REMARK 922        TOTAL FREE ENERGY PREDICTED BY IDOCK:   -3.25 KCAL/MOL
REMARK 923 INTER-LIGAND FREE ENERGY PREDICTED BY IDOCK:   -3.21 KCAL/MOL
REMARK 924 INTRA-LIGAND FREE ENERGY PREDICTED BY IDOCK:   -0.04 KCAL/MOL
REMARK 927      BINDING AFFINITY PREDICTED BY RF-SCORE:    0.00 PKD
ROOT
HETATM    1  N   UNL     1      -8.385   7.180  68.387  1.00  0.00    -0.124 NA 
HETATM    2  C   UNL     1      -9.380   6.765  69.370  1.00  0.00    -0.148 C  
HETATM    3  H1  UNL     1      -7.505   6.679  68.509  1.00  0.00     0.000 HD 
HETATM    4  H2  UNL     1      -8.244   8.190  68.404  1.00  0.00     0.000 HD 
ENDROOT
BRANCH   2   5
HETATM    5  C   UNL     1     -10.712   7.522  69.186  1.00  0.00    -0.163 C  
HETATM    6  C   UNL     1     -11.905   6.831  69.867  1.00  0.00    -0.208 C  
HETATM    7  C   UNL     1     -11.861   6.929  71.392  1.00  0.00    -0.373 C  
HETATM    8  C   UNL     1     -11.745   8.376  71.888  1.00  0.00    -0.398 C  
HETATM    9  C   UNL     1     -10.580   9.103  71.202  1.00  0.00    -0.379 C  
HETATM   10  C   UNL     1     -13.059   9.142  71.740  1.00  0.00    -0.392 C  
HETATM   11  O   UNL     1     -14.068   8.621  72.476  1.00  0.00    -0.398 OA 
HETATM   12  O   UNL     1     -13.210  10.155  71.075  1.00  0.00    -0.394 OA 
HETATM   13  C   UNL     1     -10.596   8.973  69.676  1.00  0.00    -0.230 C  
ENDBRANCH   2   5
TORSDOF 1
ENDMDL
MODEL       75
REMARK 921   NORMALIZED FREE ENERGY PREDICTED BY IDOCK:   -3.03 KCAL/MOL
REMARK 922        TOTAL FREE ENERGY PREDICTED BY IDOCK:   -3.24 KCAL/MOL
REMARK 923 INTER-LIGAND FREE ENERGY PREDICTED BY IDOCK:   -3.20 KCAL/MOL
REMARK 924 INTRA-LIGAND FREE ENERGY PREDICTED BY IDOCK:   -0.04 KCAL/MOL
REMARK 927      BINDING AFFINITY PREDICTED BY RF-SCORE:    0.00 PKD
ROOT
HETATM    1  N   UNL     1     -11.570   5.443  73.090  1.00  0.00    -0.531 NA 
HETATM    2  C   UNL     1     -10.787   5.741  71.895  1.00  0.00    -0.252 C  
HETATM    3  H1  UNL     1     -11.063   4.830  73.729  1.00  0.00     0.000 HD 
HETATM    4  H2  UNL     1     -12.483   5.058  72.850  1.00  0.00     0.000 HD 
ENDROOT
BRANCH   2   5
HETATM    5  C   UNL     1     -11.554   6.668  70.929  1.00  0.00    -0.416 C  
HETATM    6  C   UNL     1     -11.621   8.127  71.410  1.00  0.00    -0.314 C  
HETATM    7  C   UNL     1     -10.279   8.851  71.312  1.00  0.00    -0.361 C  
HETATM    8  C   UNL     1      -9.678   8.795  69.902  1.00  0.00    -0.183 C  
HETATM    9  C   UNL     1      -9.625   7.351  69.381  1.00  0.00    -0.155 C  
HETATM   10  C   UNL     1     -10.403   9.724  68.929  1.00  0.00    -0.210 C  
HETATM   11  O   UNL     1     -10.318  11.030  69.273  1.00  0.00    -0.214 OA 
HETATM   12  O   UNL     1     -10.971   9.367  67.909  1.00  0.00    -0.198 OA 
HETATM   13  C   UNL     1     -10.958   6.608  69.515  1.00  0.00    -0.367 C  
ENDBRANCH   2   5
TORSDOF 1
ENDMDL
MODEL       76
REMARK 921   NORMALIZED FREE ENERGY PREDICTED BY IDOCK:   -3.02 KCAL/MOL
REMARK 922        TOTAL FREE ENERGY PREDICTED BY IDOCK:   -3.23 KCAL/MOL
REMARK 923 INTER-LIGAND FREE ENERGY PREDICTED BY IDOCK:   -3.21 KCAL/MOL
REMARK 924 INTRA-LIGAND FREE ENERGY PREDICTED BY IDOCK:   -0.03 KCAL/MOL
REMARK 927      BINDING AFFINITY PREDICTED BY RF-SCORE:    0.00 PKD
ROOT
HETATM    1  N   UNL     1     -10.056   8.386  70.591  1.00  0.00    -0.190 NA 
HETATM    2  C   UNL     1     -10.168   9.798  70.239  1.00  0.00    -0.289 C  
HETATM    3  H1  UNL     1      -9.468   8.249  71.413  1.00  0.00     0.000 HD 
HETATM    4  H2  UNL     1      -9.729   7.830  69.801  1.00  0.00     0.000 HD 
ENDROOT
BRANCH   2   5
HETATM    5  C   UNL     1     -11.057  10.006  68.996  1.00  0.00    -0.221 C  
HETATM    6  C   UNL     1     -12.123  11.097  69.186  1.00  0.00    -0.352 C  
HETATM    7  C   UNL     1     -11.536  12.508  69.214  1.00  0.00    -0.378 C  
HETATM    8  C   UNL     1     -10.687  12.820  67.975  1.00  0.00    -0.246 C  
HETATM    9  C   UNL     1      -9.631  11.730  67.741  1.00  0.00    -0.184 C  
HETATM   10  C   UNL     1     -11.546  13.056  66.733  1.00  0.00    -0.368 C  
HETATM   11  O   UNL     1     -12.369  14.123  66.846  1.00  0.00    -0.419 OA 
HETATM   12  O   UNL     1     -11.488  12.399  65.705  1.00  0.00    -0.335 OA 
HETATM   13  C   UNL     1     -10.208  10.311  67.753  1.00  0.00    -0.225 C  
ENDBRANCH   2   5
TORSDOF 1
ENDMDL
MODEL       77
REMARK 921   NORMALIZED FREE ENERGY PREDICTED BY IDOCK:   -3.01 KCAL/MOL
REMARK 922        TOTAL FREE ENERGY PREDICTED BY IDOCK:   -3.23 KCAL/MOL
REMARK 923 INTER-LIGAND FREE ENERGY PREDICTED BY IDOCK:   -3.18 KCAL/MOL
REMARK 924 INTRA-LIGAND FREE ENERGY PREDICTED BY IDOCK:   -0.05 KCAL/MOL
REMARK 927      BINDING AFFINITY PREDICTED BY RF-SCORE:    0.00 PKD
ROOT
HETATM    1  N   UNL     1     -14.119   7.660  71.137  1.00  0.00    -0.661 NA 
HETATM    2  C   UNL     1     -12.832   7.044  70.837  1.00  0.00    -0.105 C  
HETATM    3  H1  UNL     1     -14.729   7.677  70.319  1.00  0.00     0.000 HD 
HETATM    4  H2  UNL     1     -14.002   8.593  71.534  1.00  0.00     0.000 HD 
ENDROOT
BRANCH   2   5
HETATM    5  C   UNL     1     -11.911   7.018  72.074  1.00  0.00    -0.336 C  
HETATM    6  C   UNL     1     -10.681   6.112  71.899  1.00  0.00    -0.277 C  
HETATM    7  C   UNL     1      -9.649   6.686  70.929  1.00  0.00    -0.183 C  
HETATM    8  C   UNL     1      -9.201   8.103  71.312  1.00  0.00    -0.193 C  
HETATM    9  C   UNL     1     -10.410   9.025  71.524  1.00  0.00    -0.412 C  
HETATM   10  C   UNL     1      -8.266   8.104  72.521  1.00  0.00    -0.159 C  
HETATM   11  O   UNL     1      -7.108   7.440  72.303  1.00  0.00    -0.065 OA 
HETATM   12  O   UNL     1      -8.485   8.677  73.577  1.00  0.00    -0.370 OA 
HETATM   13  C   UNL     1     -11.467   8.437  72.463  1.00  0.00    -0.422 C  
ENDBRANCH   2   5
TORSDOF 1
ENDMDL
MODEL       78
REMARK 921   NORMALIZED FREE ENERGY PREDICTED BY IDOCK:   -2.94 KCAL/MOL
REMARK 922        TOTAL FREE ENERGY PREDICTED BY IDOCK:   -3.15 KCAL/MOL
REMARK 923 INTER-LIGAND FREE ENERGY PREDICTED BY IDOCK:   -3.10 KCAL/MOL
REMARK 924 INTRA-LIGAND FREE ENERGY PREDICTED BY IDOCK:   -0.05 KCAL/MOL
REMARK 927      BINDING AFFINITY PREDICTED BY RF-SCORE:    0.00 PKD
ROOT
HETATM    1  N   UNL     1      -9.102  12.049  68.602  1.00  0.00    -0.374 NA 
HETATM    2  C   UNL     1     -10.156  12.978  68.210  1.00  0.00    -0.239 C  
HETATM    3  H1  UNL     1      -9.479  11.239  69.096  1.00  0.00     0.000 HD 
HETATM    4  H2  UNL     1      -8.378  12.516  69.148  1.00  0.00     0.000 HD 
ENDROOT
BRANCH   2   5
HETATM    5  C   UNL     1      -9.587  14.202  67.462  1.00  0.00    -0.223 C  
HETATM    6  C   UNL     1     -10.674  15.147  66.924  1.00  0.00    -0.308 C  
HETATM    7  C   UNL     1     -11.381  15.934  68.027  1.00  0.00    -0.284 C  
HETATM    8  C   UNL     1     -10.403  16.716  68.915  1.00  0.00    -0.300 C  
HETATM    9  C   UNL     1      -9.287  15.804  69.443  1.00  0.00    -0.269 C  
HETATM   10  C   UNL     1      -9.843  17.949  68.206  1.00  0.00    -0.348 C  
HETATM   11  O   UNL     1     -10.792  18.857  67.881  1.00  0.00    -0.342 OA 
HETATM   12  O   UNL     1      -8.661  18.153  67.983  1.00  0.00    -0.253 OA 
HETATM   13  C   UNL     1      -8.603  14.982  68.346  1.00  0.00    -0.162 C  
ENDBRANCH   2   5
TORSDOF 1
ENDMDL
MODEL       79
REMARK 921   NORMALIZED FREE ENERGY PREDICTED BY IDOCK:   -2.93 KCAL/MOL
REMARK 922        TOTAL FREE ENERGY PREDICTED BY IDOCK:   -3.14 KCAL/MOL
REMARK 923 INTER-LIGAND FREE ENERGY PREDICTED BY IDOCK:   -3.09 KCAL/MOL
REMARK 924 INTRA-LIGAND FREE ENERGY PREDICTED BY IDOCK:   -0.05 KCAL/MOL
REMARK 927      BINDING AFFINITY PREDICTED BY RF-SCORE:    0.00 PKD
ROOT
HETATM    1  N   UNL     1     -11.694  10.246  68.325  1.00  0.00    -0.719 NA 
HETATM    2  C   UNL     1     -10.405   9.640  68.642  1.00  0.00    -0.203 C  
HETATM    3  H1  UNL     1     -11.582  11.127  67.823  1.00  0.00     0.000 HD 
HETATM    4  H2  UNL     1     -12.266  10.363  69.161  1.00  0.00     0.000 HD 
ENDROOT
BRANCH   2   5
HETATM    5  C   UNL     1     -10.574   8.307  69.400  1.00  0.00    -0.203 C  
HETATM    6  C   UNL     1      -9.260   7.769  69.988  1.00  0.00    -0.153 C  
HETATM    7  C   UNL     1      -8.762   8.583  71.183  1.00  0.00    -0.215 C  
HETATM    8  C   UNL     1      -9.815   8.710  72.292  1.00  0.00    -0.360 C  
HETATM    9  C   UNL     1     -11.151   9.216  71.729  1.00  0.00    -0.437 C  
HETATM   10  C   UNL     1      -9.984   7.409  73.075  1.00  0.00    -0.249 C  
HETATM   11  O   UNL     1      -8.862   7.027  73.728  1.00  0.00    -0.143 OA 
HETATM   12  O   UNL     1     -11.024   6.776  73.168  1.00  0.00    -0.275 OA 
HETATM   13  C   UNL     1     -11.633   8.430  70.507  1.00  0.00    -0.136 C  
ENDBRANCH   2   5
TORSDOF 1
ENDMDL
MODEL       80
REMARK 921   NORMALIZED FREE ENERGY PREDICTED BY IDOCK:   -2.93 KCAL/MOL
REMARK 922        TOTAL FREE ENERGY PREDICTED BY IDOCK:   -3.14 KCAL/MOL
REMARK 923 INTER-LIGAND FREE ENERGY PREDICTED BY IDOCK:   -3.09 KCAL/MOL
REMARK 924 INTRA-LIGAND FREE ENERGY PREDICTED BY IDOCK:   -0.04 KCAL/MOL
REMARK 927      BINDING AFFINITY PREDICTED BY RF-SCORE:    0.00 PKD
ROOT
HETATM    1  N   UNL     1      -9.990  12.206  66.545  1.00  0.00    -0.209 NA 
HETATM    2  C   UNL     1      -9.778  11.325  67.689  1.00  0.00    -0.171 C  
HETATM    3  H1  UNL     1      -9.162  12.768  66.345  1.00  0.00     0.000 HD 
HETATM    4  H2  UNL     1     -10.815  12.791  66.674  1.00  0.00     0.000 HD 
ENDROOT
BRANCH   2   5
HETATM    5  C   UNL     1     -11.029  10.475  67.991  1.00  0.00    -0.345 C  
HETATM    6  C   UNL     1     -10.739   9.260  68.887  1.00  0.00    -0.182 C  
HETATM    7  C   UNL     1     -10.439   9.644  70.336  1.00  0.00    -0.352 C  
HETATM    8  C   UNL     1     -11.548  10.499  70.962  1.00  0.00    -0.318 C  
HETATM    9  C   UNL     1     -11.883  11.706  70.073  1.00  0.00    -0.435 C  
HETATM   10  C   UNL     1     -12.792   9.676  71.295  1.00  0.00    -0.350 C  
HETATM   11  O   UNL     1     -12.563   8.708  72.212  1.00  0.00    -0.365 OA 
HETATM   12  O   UNL     1     -13.906   9.872  70.837  1.00  0.00    -0.154 OA 
HETATM   13  C   UNL     1     -12.144  11.331  68.612  1.00  0.00    -0.211 C  
ENDBRANCH   2   5
TORSDOF 1
ENDMDL
MODEL       81
REMARK 921   NORMALIZED FREE ENERGY PREDICTED BY IDOCK:   -2.92 KCAL/MOL
REMARK 922        TOTAL FREE ENERGY PREDICTED BY IDOCK:   -3.13 KCAL/MOL
REMARK 923 INTER-LIGAND FREE ENERGY PREDICTED BY IDOCK:   -3.08 KCAL/MOL
REMARK 924 INTRA-LIGAND FREE ENERGY PREDICTED BY IDOCK:   -0.05 KCAL/MOL
REMARK 927      BINDING AFFINITY PREDICTED BY RF-SCORE:    0.00 PKD
ROOT
HETATM    1  N   UNL     1     -13.182   9.073  71.191  1.00  0.00    -0.537 NA 
HETATM    2  C   UNL     1     -12.249   8.253  71.956  1.00  0.00    -0.348 C  
HETATM    3  H1  UNL     1     -13.169  10.045  71.501  1.00  0.00     0.000 HD 
HETATM    4  H2  UNL     1     -14.125   8.686  71.217  1.00  0.00     0.000 HD 
ENDROOT
BRANCH   2   5
HETATM    5  C   UNL     1     -12.267   6.783  71.489  1.00  0.00    -0.413 C  
HETATM    6  C   UNL     1     -11.641   6.578  70.099  1.00  0.00    -0.466 C  
HETATM    7  C   UNL     1     -10.121   6.739  70.099  1.00  0.00    -0.195 C  
HETATM    8  C   UNL     1      -9.429   5.827  71.120  1.00  0.00    -0.185 C  
HETATM    9  C   UNL     1     -10.054   5.987  72.514  1.00  0.00    -0.200 C  
HETATM   10  C   UNL     1      -9.411   4.367  70.669  1.00  0.00    -0.172 C  
HETATM   11  O   UNL     1      -8.715   4.169  69.526  1.00  0.00    -0.077 OA 
HETATM   12  O   UNL     1      -9.919   3.438  71.278  1.00  0.00    -0.163 OA 
HETATM   13  C   UNL     1     -11.581   5.867  72.514  1.00  0.00    -0.327 C  
ENDBRANCH   2   5
TORSDOF 1
ENDMDL
MODEL       82
REMARK 921   NORMALIZED FREE ENERGY PREDICTED BY IDOCK:   -2.92 KCAL/MOL
REMARK 922        TOTAL FREE ENERGY PREDICTED BY IDOCK:   -3.13 KCAL/MOL
REMARK 923 INTER-LIGAND FREE ENERGY PREDICTED BY IDOCK:   -3.07 KCAL/MOL
REMARK 924 INTRA-LIGAND FREE ENERGY PREDICTED BY IDOCK:   -0.06 KCAL/MOL
REMARK 927      BINDING AFFINITY PREDICTED BY RF-SCORE:    0.00 PKD
ROOT
HETATM    1  N   UNL     1     -11.155   8.792  69.014  1.00  0.00    -0.429 NA 
HETATM    2  C   UNL     1     -10.645   8.697  70.378  1.00  0.00    -0.220 C  
HETATM    3  H1  UNL     1     -10.603   9.440  68.451  1.00  0.00     0.000 HD 
HETATM    4  H2  UNL     1     -12.144   9.039  69.003  1.00  0.00     0.000 HD 
ENDROOT
BRANCH   2   5
HETATM    5  C   UNL     1     -11.479   7.718  71.230  1.00  0.00    -0.294 C  
HETATM    6  C   UNL     1     -11.522   6.293  70.653  1.00  0.00    -0.397 C  
HETATM    7  C   UNL     1     -10.193   5.551  70.793  1.00  0.00    -0.302 C  
HETATM    8  C   UNL     1      -9.687   5.512  72.240  1.00  0.00    -0.181 C  
HETATM    9  C   UNL     1      -9.662   6.919  72.855  1.00  0.00    -0.183 C  
HETATM   10  C   UNL     1     -10.481   4.530  73.101  1.00  0.00    -0.195 C  
HETATM   11  O   UNL     1     -10.380   3.247  72.681  1.00  0.00    -0.164 OA 
HETATM   12  O   UNL     1     -11.114   4.826  74.102  1.00  0.00    -0.302 OA 
HETATM   13  C   UNL     1     -10.978   7.682  72.682  1.00  0.00    -0.405 C  
ENDBRANCH   2   5
TORSDOF 1
ENDMDL
MODEL       83
REMARK 921   NORMALIZED FREE ENERGY PREDICTED BY IDOCK:   -2.91 KCAL/MOL
REMARK 922        TOTAL FREE ENERGY PREDICTED BY IDOCK:   -3.12 KCAL/MOL
REMARK 923 INTER-LIGAND FREE ENERGY PREDICTED BY IDOCK:   -3.09 KCAL/MOL
REMARK 924 INTRA-LIGAND FREE ENERGY PREDICTED BY IDOCK:   -0.03 KCAL/MOL
REMARK 927      BINDING AFFINITY PREDICTED BY RF-SCORE:    0.00 PKD
ROOT
HETATM    1  N   UNL     1     -11.021  11.037  67.274  1.00  0.00    -0.284 NA 
HETATM    2  C   UNL     1     -11.865  11.203  68.452  1.00  0.00    -0.232 C  
HETATM    3  H1  UNL     1     -11.556  11.138  66.411  1.00  0.00     0.000 HD 
HETATM    4  H2  UNL     1     -10.518  10.150  67.298  1.00  0.00     0.000 HD 
ENDROOT
BRANCH   2   5
HETATM    5  C   UNL     1     -11.056  11.050  69.757  1.00  0.00    -0.303 C  
HETATM    6  C   UNL     1     -11.937  10.825  70.997  1.00  0.00    -0.409 C  
HETATM    7  C   UNL     1     -12.578   9.438  71.030  1.00  0.00    -0.291 C  
HETATM    8  C   UNL     1     -11.548   8.307  70.910  1.00  0.00    -0.282 C  
HETATM    9  C   UNL     1     -10.632   8.521  69.697  1.00  0.00    -0.221 C  
HETATM   10  C   UNL     1     -10.750   8.117  72.199  1.00  0.00    -0.293 C  
HETATM   11  O   UNL     1     -11.515   7.756  73.255  1.00  0.00    -0.295 OA 
HETATM   12  O   UNL     1      -9.537   8.223  72.296  1.00  0.00    -0.227 OA 
HETATM   13  C   UNL     1     -10.020   9.923  69.637  1.00  0.00    -0.255 C  
ENDBRANCH   2   5
TORSDOF 1
ENDMDL
MODEL       84
REMARK 921   NORMALIZED FREE ENERGY PREDICTED BY IDOCK:   -2.89 KCAL/MOL
REMARK 922        TOTAL FREE ENERGY PREDICTED BY IDOCK:   -3.10 KCAL/MOL
REMARK 923 INTER-LIGAND FREE ENERGY PREDICTED BY IDOCK:   -3.05 KCAL/MOL
REMARK 924 INTRA-LIGAND FREE ENERGY PREDICTED BY IDOCK:   -0.06 KCAL/MOL
REMARK 927      BINDING AFFINITY PREDICTED BY RF-SCORE:    0.00 PKD
ROOT
HETATM    1  N   UNL     1      -6.572  17.869  69.130  1.00  0.00    -0.239 NA 
HETATM    2  C   UNL     1      -7.524  17.886  68.024  1.00  0.00    -0.233 C  
HETATM    3  H1  UNL     1      -6.292  18.813  69.399  1.00  0.00     0.000 HD 
HETATM    4  H2  UNL     1      -5.763  17.287  68.916  1.00  0.00     0.000 HD 
ENDROOT
BRANCH   2   5
HETATM    5  C   UNL     1      -7.949  16.460  67.617  1.00  0.00    -0.165 C  
HETATM    6  C   UNL     1      -8.596  15.666  68.763  1.00  0.00    -0.193 C  
HETATM    7  C   UNL     1      -9.995  16.166  69.121  1.00  0.00    -0.251 C  
HETATM    8  C   UNL     1     -10.939  16.197  67.912  1.00  0.00    -0.318 C  
HETATM    9  C   UNL     1     -10.307  16.958  66.737  1.00  0.00    -0.298 C  
HETATM   10  C   UNL     1     -11.395  14.797  67.503  1.00  0.00    -0.344 C  
HETATM   11  O   UNL     1     -12.109  14.165  68.463  1.00  0.00    -0.342 OA 
HETATM   12  O   UNL     1     -11.198  14.285  66.412  1.00  0.00    -0.322 OA 
HETATM   13  C   UNL     1      -8.888  16.488  66.402  1.00  0.00    -0.345 C  
ENDBRANCH   2   5
TORSDOF 1
ENDMDL
MODEL       85
REMARK 921   NORMALIZED FREE ENERGY PREDICTED BY IDOCK:   -2.88 KCAL/MOL
REMARK 922        TOTAL FREE ENERGY PREDICTED BY IDOCK:   -3.09 KCAL/MOL
REMARK 923 INTER-LIGAND FREE ENERGY PREDICTED BY IDOCK:   -3.06 KCAL/MOL
REMARK 924 INTRA-LIGAND FREE ENERGY PREDICTED BY IDOCK:   -0.03 KCAL/MOL
REMARK 927      BINDING AFFINITY PREDICTED BY RF-SCORE:    0.00 PKD
ROOT
HETATM    1  N   UNL     1      -7.654  10.426  70.314  1.00  0.00    -0.444 NA 
HETATM    2  C   UNL     1      -8.443   9.222  70.078  1.00  0.00    -0.176 C  
HETATM    3  H1  UNL     1      -7.187  10.743  69.464  1.00  0.00     0.000 HD 
HETATM    4  H2  UNL     1      -6.990  10.294  71.076  1.00  0.00     0.000 HD 
ENDROOT
BRANCH   2   5
HETATM    5  C   UNL     1      -9.150   8.744  71.362  1.00  0.00    -0.313 C  
HETATM    6  C   UNL     1     -10.614   9.204  71.459  1.00  0.00    -0.428 C  
HETATM    7  C   UNL     1     -11.534   8.479  70.478  1.00  0.00    -0.198 C  
HETATM    8  C   UNL     1     -11.458   6.953  70.613  1.00  0.00    -0.383 C  
HETATM    9  C   UNL     1     -10.003   6.465  70.551  1.00  0.00    -0.214 C  
HETATM   10  C   UNL     1     -12.174   6.449  71.866  1.00  0.00    -0.279 C  
HETATM   11  O   UNL     1     -13.500   6.715  71.868  1.00  0.00    -0.206 OA 
HETATM   12  O   UNL     1     -11.646   5.824  72.772  1.00  0.00    -0.281 OA 
HETATM   13  C   UNL     1      -9.069   7.216  71.503  1.00  0.00    -0.143 C  
ENDBRANCH   2   5
TORSDOF 1
ENDMDL
MODEL       86
REMARK 921   NORMALIZED FREE ENERGY PREDICTED BY IDOCK:   -2.86 KCAL/MOL
REMARK 922        TOTAL FREE ENERGY PREDICTED BY IDOCK:   -3.07 KCAL/MOL
REMARK 923 INTER-LIGAND FREE ENERGY PREDICTED BY IDOCK:   -3.04 KCAL/MOL
REMARK 924 INTRA-LIGAND FREE ENERGY PREDICTED BY IDOCK:   -0.03 KCAL/MOL
REMARK 927      BINDING AFFINITY PREDICTED BY RF-SCORE:    0.00 PKD
ROOT
HETATM    1  N   UNL     1      -8.503   3.716  68.769  1.00  0.00    -0.076 NA 
HETATM    2  C   UNL     1      -9.711   4.352  69.282  1.00  0.00    -0.182 C  
HETATM    3  H1  UNL     1      -8.715   2.845  68.280  1.00  0.00     0.000 HD 
HETATM    4  H2  UNL     1      -7.816   3.570  69.508  1.00  0.00     0.000 HD 
ENDROOT
BRANCH   2   5
HETATM    5  C   UNL     1      -9.392   5.668  70.021  1.00  0.00    -0.183 C  
HETATM    6  C   UNL     1     -10.388   6.797  69.712  1.00  0.00    -0.226 C  
HETATM    7  C   UNL     1     -11.760   6.574  70.348  1.00  0.00    -0.439 C  
HETATM    8  C   UNL     1     -11.680   6.349  71.863  1.00  0.00    -0.378 C  
HETATM    9  C   UNL     1     -10.668   5.246  72.206  1.00  0.00    -0.282 C  
HETATM   10  C   UNL     1     -11.389   7.643  72.622  1.00  0.00    -0.370 C  
HETATM   11  O   UNL     1     -12.357   8.578  72.477  1.00  0.00    -0.388 OA 
HETATM   12  O   UNL     1     -10.418   7.835  73.336  1.00  0.00    -0.338 OA 
HETATM   13  C   UNL     1      -9.304   5.444  71.538  1.00  0.00    -0.177 C  
ENDBRANCH   2   5
TORSDOF 1
ENDMDL
MODEL       87
REMARK 921   NORMALIZED FREE ENERGY PREDICTED BY IDOCK:   -2.85 KCAL/MOL
REMARK 922        TOTAL FREE ENERGY PREDICTED BY IDOCK:   -3.05 KCAL/MOL
REMARK 923 INTER-LIGAND FREE ENERGY PREDICTED BY IDOCK:   -3.01 KCAL/MOL
REMARK 924 INTRA-LIGAND FREE ENERGY PREDICTED BY IDOCK:   -0.04 KCAL/MOL
REMARK 927      BINDING AFFINITY PREDICTED BY RF-SCORE:    0.00 PKD
ROOT
HETATM    1  N   UNL     1     -11.705  12.530  67.728  1.00  0.00    -0.354 NA 
HETATM    2  C   UNL     1     -10.695  13.420  68.290  1.00  0.00    -0.258 C  
HETATM    3  H1  UNL     1     -12.426  12.300  68.412  1.00  0.00     0.000 HD 
HETATM    4  H2  UNL     1     -11.283  11.689  67.334  1.00  0.00     0.000 HD 
ENDROOT
BRANCH   2   5
HETATM    5  C   UNL     1      -9.605  13.769  67.255  1.00  0.00    -0.237 C  
HETATM    6  C   UNL     1     -10.038  14.857  66.258  1.00  0.00    -0.298 C  
HETATM    7  C   UNL     1     -10.126  16.246  66.889  1.00  0.00    -0.278 C  
HETATM    8  C   UNL     1      -8.822  16.664  67.581  1.00  0.00    -0.203 C  
HETATM    9  C   UNL     1      -8.347  15.583  68.563  1.00  0.00    -0.161 C  
HETATM   10  C   UNL     1      -7.733  17.040  66.578  1.00  0.00    -0.292 C  
HETATM   11  O   UNL     1      -8.056  18.107  65.811  1.00  0.00    -0.520 OA 
HETATM   12  O   UNL     1      -6.647  16.489  66.482  1.00  0.00    -0.250 OA 
HETATM   13  C   UNL     1      -8.297  14.182  67.947  1.00  0.00    -0.162 C  
ENDBRANCH   2   5
TORSDOF 1
ENDMDL
MODEL       88
REMARK 921   NORMALIZED FREE ENERGY PREDICTED BY IDOCK:   -2.81 KCAL/MOL
REMARK 922        TOTAL FREE ENERGY PREDICTED BY IDOCK:   -3.01 KCAL/MOL
REMARK 923 INTER-LIGAND FREE ENERGY PREDICTED BY IDOCK:   -3.11 KCAL/MOL
REMARK 924 INTRA-LIGAND FREE ENERGY PREDICTED BY IDOCK:    0.10 KCAL/MOL
REMARK 927      BINDING AFFINITY PREDICTED BY RF-SCORE:    0.00 PKD
ROOT
HETATM    1  N   UNL     1     -12.241  14.220  68.835  1.00  0.00    -0.548 NA 
HETATM    2  C   UNL     1     -11.999  14.426  67.411  1.00  0.00    -0.373 C  
HETATM    3  H1  UNL     1     -13.154  14.577  69.117  1.00  0.00     0.000 HD 
HETATM    4  H2  UNL     1     -11.493  14.620  69.402  1.00  0.00     0.000 HD 
ENDROOT
BRANCH   2   5
HETATM    5  C   UNL     1     -10.618  13.886  66.985  1.00  0.00    -0.279 C  
HETATM    6  C   UNL     1     -10.079  12.788  67.917  1.00  0.00    -0.231 C  
HETATM    7  C   UNL     1     -10.831  11.465  67.779  1.00  0.00    -0.281 C  
HETATM    8  C   UNL     1     -10.863  10.950  66.334  1.00  0.00    -0.210 C  
HETATM    9  C   UNL     1     -11.369  12.036  65.373  1.00  0.00    -0.375 C  
HETATM   10  C   UNL     1      -9.514  10.386  65.894  1.00  0.00    -0.189 C  
HETATM   11  O   UNL     1      -9.121   9.312  66.618  1.00  0.00    -0.135 OA 
HETATM   12  O   UNL     1      -8.850  10.802  64.958  1.00  0.00    -0.195 OA 
HETATM   13  C   UNL     1     -10.647  13.376  65.536  1.00  0.00    -0.294 C  
ENDBRANCH   2   5
TORSDOF 1
ENDMDL
MODEL       89
REMARK 921   NORMALIZED FREE ENERGY PREDICTED BY IDOCK:   -2.80 KCAL/MOL
REMARK 922        TOTAL FREE ENERGY PREDICTED BY IDOCK:   -3.00 KCAL/MOL
REMARK 923 INTER-LIGAND FREE ENERGY PREDICTED BY IDOCK:   -2.95 KCAL/MOL
REMARK 924 INTRA-LIGAND FREE ENERGY PREDICTED BY IDOCK:   -0.06 KCAL/MOL
REMARK 927      BINDING AFFINITY PREDICTED BY RF-SCORE:    0.00 PKD
ROOT
HETATM    1  N   UNL     1      -6.985   9.926  68.283  1.00  0.00    -0.071 NA 
HETATM    2  C   UNL     1      -8.441   9.866  68.360  1.00  0.00    -0.111 C  
HETATM    3  H1  UNL     1      -6.559   9.925  69.210  1.00  0.00     0.000 HD 
HETATM    4  H2  UNL     1      -6.674  10.724  67.730  1.00  0.00     0.000 HD 
ENDROOT
BRANCH   2   5
HETATM    5  C   UNL     1      -9.085   9.866  66.958  1.00  0.00    -0.156 C  
HETATM    6  C   UNL     1     -10.621   9.819  66.993  1.00  0.00    -0.269 C  
HETATM    7  C   UNL     1     -11.249  11.128  67.470  1.00  0.00    -0.369 C  
HETATM    8  C   UNL     1     -10.784  12.339  66.650  1.00  0.00    -0.276 C  
HETATM    9  C   UNL     1      -9.251  12.397  66.571  1.00  0.00    -0.215 C  
HETATM   10  C   UNL     1     -11.427  12.378  65.265  1.00  0.00    -0.344 C  
HETATM   11  O   UNL     1     -12.774  12.502  65.303  1.00  0.00    -0.654 OA 
HETATM   12  O   UNL     1     -10.818  12.351  64.207  1.00  0.00    -0.306 OA 
HETATM   13  C   UNL     1      -8.615  11.074  66.133  1.00  0.00    -0.175 C  
ENDBRANCH   2   5
TORSDOF 1
ENDMDL
MODEL       90
REMARK 921   NORMALIZED FREE ENERGY PREDICTED BY IDOCK:   -2.80 KCAL/MOL
REMARK 922        TOTAL FREE ENERGY PREDICTED BY IDOCK:   -3.00 KCAL/MOL
REMARK 923 INTER-LIGAND FREE ENERGY PREDICTED BY IDOCK:   -2.94 KCAL/MOL
REMARK 924 INTRA-LIGAND FREE ENERGY PREDICTED BY IDOCK:   -0.06 KCAL/MOL
REMARK 927      BINDING AFFINITY PREDICTED BY RF-SCORE:    0.00 PKD
ROOT
HETATM    1  N   UNL     1     -12.768   8.247  72.917  1.00  0.00    -0.664 NA 
HETATM    2  C   UNL     1     -12.365   7.252  71.929  1.00  0.00    -0.312 C  
HETATM    3  H1  UNL     1     -13.766   8.189  73.124  1.00  0.00     0.000 HD 
HETATM    4  H2  UNL     1     -12.502   9.188  72.628  1.00  0.00     0.000 HD 
ENDROOT
BRANCH   2   5
HETATM    5  C   UNL     1     -10.857   7.339  71.617  1.00  0.00    -0.246 C  
HETATM    6  C   UNL     1     -10.412   6.388  70.493  1.00  0.00    -0.270 C  
HETATM    7  C   UNL     1     -10.898   6.826  69.112  1.00  0.00    -0.298 C  
HETATM    8  C   UNL     1     -10.488   8.265  68.770  1.00  0.00    -0.200 C  
HETATM    9  C   UNL     1     -10.893   9.235  69.889  1.00  0.00    -0.252 C  
HETATM   10  C   UNL     1      -9.003   8.374  68.431  1.00  0.00    -0.136 C  
HETATM   11  O   UNL     1      -8.649   7.661  67.337  1.00  0.00    -0.124 OA 
HETATM   12  O   UNL     1      -8.195   9.064  69.033  1.00  0.00    -0.114 OA 
HETATM   13  C   UNL     1     -10.443   8.779  71.281  1.00  0.00    -0.326 C  
ENDBRANCH   2   5
TORSDOF 1
ENDMDL
MODEL       91
REMARK 921   NORMALIZED FREE ENERGY PREDICTED BY IDOCK:   -2.78 KCAL/MOL
REMARK 922        TOTAL FREE ENERGY PREDICTED BY IDOCK:   -2.98 KCAL/MOL
REMARK 923 INTER-LIGAND FREE ENERGY PREDICTED BY IDOCK:   -2.96 KCAL/MOL
REMARK 924 INTRA-LIGAND FREE ENERGY PREDICTED BY IDOCK:   -0.03 KCAL/MOL
REMARK 927      BINDING AFFINITY PREDICTED BY RF-SCORE:    0.00 PKD
ROOT
HETATM    1  N   UNL     1     -10.575   7.151  74.114  1.00  0.00    -0.564 NA 
HETATM    2  C   UNL     1     -11.159   7.621  72.862  1.00  0.00    -0.393 C  
HETATM    3  H1  UNL     1     -11.270   7.109  74.860  1.00  0.00     0.000 HD 
HETATM    4  H2  UNL     1      -9.771   7.716  74.385  1.00  0.00     0.000 HD 
ENDROOT
BRANCH   2   5
HETATM    5  C   UNL     1     -10.109   7.684  71.734  1.00  0.00    -0.210 C  
HETATM    6  C   UNL     1      -9.120   6.507  71.755  1.00  0.00    -0.142 C  
HETATM    7  C   UNL     1      -9.755   5.185  71.324  1.00  0.00    -0.228 C  
HETATM    8  C   UNL     1     -10.430   5.274  69.948  1.00  0.00    -0.351 C  
HETATM    9  C   UNL     1     -11.402   6.461  69.886  1.00  0.00    -0.500 C  
HETATM   10  C   UNL     1      -9.411   5.312  68.810  1.00  0.00    -0.128 C  
HETATM   11  O   UNL     1      -8.651   4.195  68.733  1.00  0.00    -0.085 OA 
HETATM   12  O   UNL     1      -9.298   6.219  68.000  1.00  0.00    -0.117 OA 
HETATM   13  C   UNL     1     -10.782   7.780  70.356  1.00  0.00    -0.238 C  
ENDBRANCH   2   5
TORSDOF 1
ENDMDL
MODEL       92
REMARK 921   NORMALIZED FREE ENERGY PREDICTED BY IDOCK:   -2.78 KCAL/MOL
REMARK 922        TOTAL FREE ENERGY PREDICTED BY IDOCK:   -2.98 KCAL/MOL
REMARK 923 INTER-LIGAND FREE ENERGY PREDICTED BY IDOCK:   -2.94 KCAL/MOL
REMARK 924 INTRA-LIGAND FREE ENERGY PREDICTED BY IDOCK:   -0.04 KCAL/MOL
REMARK 927      BINDING AFFINITY PREDICTED BY RF-SCORE:    0.00 PKD
ROOT
HETATM    1  N   UNL     1      -8.480  10.736  69.227  1.00  0.00    -0.340 NA 
HETATM    2  C   UNL     1      -8.701   9.654  70.180  1.00  0.00    -0.231 C  
HETATM    3  H1  UNL     1      -7.677  11.310  69.488  1.00  0.00     0.000 HD 
HETATM    4  H2  UNL     1      -9.318  11.303  69.105  1.00  0.00     0.000 HD 
ENDROOT
BRANCH   2   5
HETATM    5  C   UNL     1      -9.914   8.787  69.785  1.00  0.00    -0.193 C  
HETATM    6  C   UNL     1      -9.830   7.345  70.312  1.00  0.00    -0.187 C  
HETATM    7  C   UNL     1     -10.036   7.249  71.824  1.00  0.00    -0.186 C  
HETATM    8  C   UNL     1     -11.349   7.896  72.284  1.00  0.00    -0.393 C  
HETATM    9  C   UNL     1     -11.476   9.329  71.746  1.00  0.00    -0.448 C  
HETATM   10  C   UNL     1     -12.566   7.044  71.927  1.00  0.00    -0.295 C  
HETATM   11  O   UNL     1     -12.566   5.832  72.529  1.00  0.00    -0.033 OA 
HETATM   12  O   UNL     1     -13.490   7.404  71.214  1.00  0.00    -0.353 OA 
HETATM   13  C   UNL     1     -11.230   9.437  70.239  1.00  0.00    -0.286 C  
ENDBRANCH   2   5
TORSDOF 1
ENDMDL
MODEL       93
REMARK 921   NORMALIZED FREE ENERGY PREDICTED BY IDOCK:   -2.77 KCAL/MOL
REMARK 922        TOTAL FREE ENERGY PREDICTED BY IDOCK:   -2.97 KCAL/MOL
REMARK 923 INTER-LIGAND FREE ENERGY PREDICTED BY IDOCK:   -2.99 KCAL/MOL
REMARK 924 INTRA-LIGAND FREE ENERGY PREDICTED BY IDOCK:    0.02 KCAL/MOL
REMARK 927      BINDING AFFINITY PREDICTED BY RF-SCORE:    0.00 PKD
ROOT
HETATM    1  N   UNL     1     -11.280  14.369  64.451  1.00  0.00    -0.606 NA 
HETATM    2  C   UNL     1     -11.027  15.794  64.639  1.00  0.00    -0.314 C  
HETATM    3  H1  UNL     1     -11.363  14.129  63.463  1.00  0.00     0.000 HD 
HETATM    4  H2  UNL     1     -12.097  14.063  64.979  1.00  0.00     0.000 HD 
ENDROOT
BRANCH   2   5
HETATM    5  C   UNL     1     -10.901  16.157  66.133  1.00  0.00    -0.138 C  
HETATM    6  C   UNL     1     -10.280  15.036  66.983  1.00  0.00    -0.257 C  
HETATM    7  C   UNL     1      -8.785  14.849  66.725  1.00  0.00    -0.278 C  
HETATM    8  C   UNL     1      -7.986  16.145  66.911  1.00  0.00    -0.279 C  
HETATM    9  C   UNL     1      -8.601  17.294  66.098  1.00  0.00    -0.207 C  
HETATM   10  C   UNL     1      -7.825  16.515  68.385  1.00  0.00    -0.187 C  
HETATM   11  O   UNL     1      -7.131  15.596  69.095  1.00  0.00    -0.142 OA 
HETATM   12  O   UNL     1      -8.223  17.549  68.897  1.00  0.00    -0.253 OA 
HETATM   13  C   UNL     1     -10.107  17.459  66.321  1.00  0.00    -0.328 C  
ENDBRANCH   2   5
TORSDOF 1
ENDMDL
MODEL       94
REMARK 921   NORMALIZED FREE ENERGY PREDICTED BY IDOCK:   -2.71 KCAL/MOL
REMARK 922        TOTAL FREE ENERGY PREDICTED BY IDOCK:   -2.90 KCAL/MOL
REMARK 923 INTER-LIGAND FREE ENERGY PREDICTED BY IDOCK:   -2.85 KCAL/MOL
REMARK 924 INTRA-LIGAND FREE ENERGY PREDICTED BY IDOCK:   -0.05 KCAL/MOL
REMARK 927      BINDING AFFINITY PREDICTED BY RF-SCORE:    0.00 PKD
ROOT
HETATM    1  N   UNL     1      -8.545   9.515  65.377  1.00  0.00    -0.146 NA 
HETATM    2  C   UNL     1      -8.830   8.583  66.463  1.00  0.00    -0.140 C  
HETATM    3  H1  UNL     1      -7.601   9.387  65.010  1.00  0.00     0.000 HD 
HETATM    4  H2  UNL     1      -8.707  10.480  65.662  1.00  0.00     0.000 HD 
ENDROOT
BRANCH   2   5
HETATM    5  C   UNL     1     -10.257   8.774  67.017  1.00  0.00    -0.351 C  
HETATM    6  C   UNL     1     -10.532   7.956  68.289  1.00  0.00    -0.212 C  
HETATM    7  C   UNL     1      -9.798   8.495  69.516  1.00  0.00    -0.187 C  
HETATM    8  C   UNL     1     -10.093   9.978  69.778  1.00  0.00    -0.284 C  
HETATM    9  C   UNL     1      -9.857  10.819  68.515  1.00  0.00    -0.182 C  
HETATM   10  C   UNL     1     -11.493  10.193  70.351  1.00  0.00    -0.322 C  
HETATM   11  O   UNL     1     -11.675   9.603  71.555  1.00  0.00    -0.371 OA 
HETATM   12  O   UNL     1     -12.369  10.865  69.830  1.00  0.00    -0.330 OA 
HETATM   13  C   UNL     1     -10.557  10.259  67.273  1.00  0.00    -0.324 C  
ENDBRANCH   2   5
TORSDOF 1
ENDMDL
MODEL       95
REMARK 921   NORMALIZED FREE ENERGY PREDICTED BY IDOCK:   -2.70 KCAL/MOL
REMARK 922        TOTAL FREE ENERGY PREDICTED BY IDOCK:   -2.89 KCAL/MOL
REMARK 923 INTER-LIGAND FREE ENERGY PREDICTED BY IDOCK:   -2.85 KCAL/MOL
REMARK 924 INTRA-LIGAND FREE ENERGY PREDICTED BY IDOCK:   -0.05 KCAL/MOL
REMARK 927      BINDING AFFINITY PREDICTED BY RF-SCORE:    0.00 PKD
ROOT
HETATM    1  N   UNL     1     -10.034  12.160  67.839  1.00  0.00    -0.194 NA 
HETATM    2  C   UNL     1     -10.203  11.536  69.147  1.00  0.00    -0.013 C  
HETATM    3  H1  UNL     1      -9.287  12.856  67.848  1.00  0.00     0.000 HD 
HETATM    4  H2  UNL     1     -10.909  12.558  67.500  1.00  0.00     0.000 HD 
ENDROOT
BRANCH   2   5
HETATM    5  C   UNL     1     -11.331  10.484  69.133  1.00  0.00    -0.319 C  
HETATM    6  C   UNL     1     -10.974   9.218  68.337  1.00  0.00    -0.038 C  
HETATM    7  C   UNL     1      -9.934   8.344  69.037  1.00  0.00    -0.194 C  
HETATM    8  C   UNL     1     -10.347   7.962  70.464  1.00  0.00    -0.205 C  
HETATM    9  C   UNL     1     -10.740   9.204  71.277  1.00  0.00    -0.401 C  
HETATM   10  C   UNL     1     -11.447   6.901  70.480  1.00  0.00    -0.342 C  
HETATM   11  O   UNL     1     -11.069   5.729  69.920  1.00  0.00    -0.360 OA 
HETATM   12  O   UNL     1     -12.551   7.043  70.981  1.00  0.00    -0.375 OA 
HETATM   13  C   UNL     1     -11.751  10.104  70.561  1.00  0.00    -0.407 C  
ENDBRANCH   2   5
TORSDOF 1
ENDMDL
MODEL       96
REMARK 921   NORMALIZED FREE ENERGY PREDICTED BY IDOCK:   -2.67 KCAL/MOL
REMARK 922        TOTAL FREE ENERGY PREDICTED BY IDOCK:   -2.87 KCAL/MOL
REMARK 923 INTER-LIGAND FREE ENERGY PREDICTED BY IDOCK:   -2.84 KCAL/MOL
REMARK 924 INTRA-LIGAND FREE ENERGY PREDICTED BY IDOCK:   -0.03 KCAL/MOL
REMARK 927      BINDING AFFINITY PREDICTED BY RF-SCORE:    0.00 PKD
ROOT
HETATM    1  N   UNL     1      -8.455   2.939  72.334  1.00  0.00    -0.073 NA 
HETATM    2  C   UNL     1      -8.773   4.339  72.592  1.00  0.00    -0.104 C  
HETATM    3  H1  UNL     1      -7.470   2.738  72.509  1.00  0.00     0.000 HD 
HETATM    4  H2  UNL     1      -8.730   2.662  71.391  1.00  0.00     0.000 HD 
ENDROOT
BRANCH   2   5
HETATM    5  C   UNL     1     -10.262   4.642  72.328  1.00  0.00    -0.256 C  
HETATM    6  C   UNL     1     -10.938   5.419  73.470  1.00  0.00    -0.323 C  
HETATM    7  C   UNL     1     -10.480   6.874  73.556  1.00  0.00    -0.382 C  
HETATM    8  C   UNL     1     -10.661   7.631  72.234  1.00  0.00    -0.311 C  
HETATM    9  C   UNL     1     -10.023   6.864  71.067  1.00  0.00    -0.199 C  
HETATM   10  C   UNL     1     -12.127   7.966  71.960  1.00  0.00    -0.320 C  
HETATM   11  O   UNL     1     -12.670   8.788  72.888  1.00  0.00    -0.306 OA 
HETATM   12  O   UNL     1     -12.763   7.591  70.988  1.00  0.00    -0.265 OA 
HETATM   13  C   UNL     1     -10.447   5.394  71.001  1.00  0.00    -0.302 C  
ENDBRANCH   2   5
TORSDOF 1
ENDMDL
MODEL       97
REMARK 921   NORMALIZED FREE ENERGY PREDICTED BY IDOCK:   -2.67 KCAL/MOL
REMARK 922        TOTAL FREE ENERGY PREDICTED BY IDOCK:   -2.87 KCAL/MOL
REMARK 923 INTER-LIGAND FREE ENERGY PREDICTED BY IDOCK:   -2.81 KCAL/MOL
REMARK 924 INTRA-LIGAND FREE ENERGY PREDICTED BY IDOCK:   -0.06 KCAL/MOL
REMARK 927      BINDING AFFINITY PREDICTED BY RF-SCORE:    0.00 PKD
ROOT
HETATM    1  N   UNL     1      -9.740   2.752  72.731  1.00  0.00    -0.114 NA 
HETATM    2  C   UNL     1     -10.657   3.866  72.944  1.00  0.00    -0.149 C  
HETATM    3  H1  UNL     1     -10.183   1.856  72.935  1.00  0.00     0.000 HD 
HETATM    4  H2  UNL     1      -8.878   2.872  73.263  1.00  0.00     0.000 HD 
ENDROOT
BRANCH   2   5
HETATM    5  C   UNL     1      -9.988   5.221  72.634  1.00  0.00    -0.197 C  
HETATM    6  C   UNL     1      -9.430   5.313  71.204  1.00  0.00    -0.206 C  
HETATM    7  C   UNL     1     -10.525   5.416  70.142  1.00  0.00    -0.361 C  
HETATM    8  C   UNL     1     -11.491   6.579  70.399  1.00  0.00    -0.465 C  
HETATM    9  C   UNL     1     -12.042   6.533  71.832  1.00  0.00    -0.388 C  
HETATM   10  C   UNL     1     -10.861   7.933  70.076  1.00  0.00    -0.238 C  
HETATM   11  O   UNL     1     -10.521   8.068  68.773  1.00  0.00    -0.208 OA 
HETATM   12  O   UNL     1     -10.708   8.844  70.874  1.00  0.00    -0.204 OA 
HETATM   13  C   UNL     1     -10.951   6.388  72.898  1.00  0.00    -0.281 C  
ENDBRANCH   2   5
TORSDOF 1
ENDMDL
MODEL       98
REMARK 921   NORMALIZED FREE ENERGY PREDICTED BY IDOCK:   -2.66 KCAL/MOL
REMARK 922        TOTAL FREE ENERGY PREDICTED BY IDOCK:   -2.86 KCAL/MOL
REMARK 923 INTER-LIGAND FREE ENERGY PREDICTED BY IDOCK:   -2.83 KCAL/MOL
REMARK 924 INTRA-LIGAND FREE ENERGY PREDICTED BY IDOCK:   -0.03 KCAL/MOL
REMARK 927      BINDING AFFINITY PREDICTED BY RF-SCORE:    0.00 PKD
ROOT
HETATM    1  N   UNL     1      -5.960  11.017  65.071  1.00  0.00    -0.400 NA 
HETATM    2  C   UNL     1      -7.184  10.336  65.481  1.00  0.00    -0.149 C  
HETATM    3  H1  UNL     1      -5.622  10.674  64.171  1.00  0.00     0.000 HD 
HETATM    4  H2  UNL     1      -5.239  10.951  65.789  1.00  0.00     0.000 HD 
ENDROOT
BRANCH   2   5
HETATM    5  C   UNL     1      -7.695  10.855  66.840  1.00  0.00    -0.135 C  
HETATM    6  C   UNL     1      -8.911  11.788  66.719  1.00  0.00    -0.196 C  
HETATM    7  C   UNL     1     -10.192  11.052  66.324  1.00  0.00    -0.295 C  
HETATM    8  C   UNL     1     -10.520   9.889  67.270  1.00  0.00    -0.319 C  
HETATM    9  C   UNL     1      -9.312   8.955  67.436  1.00  0.00    -0.165 C  
HETATM   10  C   UNL     1     -11.053  10.375  68.617  1.00  0.00    -0.262 C  
HETATM   11  O   UNL     1     -12.217  11.058  68.517  1.00  0.00    -0.582 OA 
HETATM   12  O   UNL     1     -10.536  10.148  69.699  1.00  0.00    -0.220 OA 
HETATM   13  C   UNL     1      -8.018   9.692  67.791  1.00  0.00    -0.105 C  
ENDBRANCH   2   5
TORSDOF 1
ENDMDL
MODEL       99
REMARK 921   NORMALIZED FREE ENERGY PREDICTED BY IDOCK:   -2.66 KCAL/MOL
REMARK 922        TOTAL FREE ENERGY PREDICTED BY IDOCK:   -2.85 KCAL/MOL
REMARK 923 INTER-LIGAND FREE ENERGY PREDICTED BY IDOCK:   -2.82 KCAL/MOL
REMARK 924 INTRA-LIGAND FREE ENERGY PREDICTED BY IDOCK:   -0.04 KCAL/MOL
REMARK 927      BINDING AFFINITY PREDICTED BY RF-SCORE:    0.00 PKD
ROOT
HETATM    1  N   UNL     1      -6.558  14.534  69.005  1.00  0.00    -0.094 NA 
HETATM    2  C   UNL     1      -7.544  13.525  68.633  1.00  0.00    -0.108 C  
HETATM    3  H1  UNL     1      -6.106  14.308  69.892  1.00  0.00     0.000 HD 
HETATM    4  H2  UNL     1      -6.968  15.467  69.023  1.00  0.00     0.000 HD 
ENDROOT
BRANCH   2   5
HETATM    5  C   UNL     1      -8.227  13.865  67.292  1.00  0.00    -0.176 C  
HETATM    6  C   UNL     1      -8.827  12.639  66.585  1.00  0.00    -0.129 C  
HETATM    7  C   UNL     1     -10.076  12.100  67.281  1.00  0.00    -0.214 C  
HETATM    8  C   UNL     1     -11.157  13.172  67.469  1.00  0.00    -0.296 C  
HETATM    9  C   UNL     1     -10.580  14.424  68.146  1.00  0.00    -0.236 C  
HETATM   10  C   UNL     1     -11.867  13.510  66.159  1.00  0.00    -0.389 C  
HETATM   11  O   UNL     1     -12.533  12.460  65.625  1.00  0.00    -0.640 OA 
HETATM   12  O   UNL     1     -11.895  14.615  65.641  1.00  0.00    -0.341 OA 
HETATM   13  C   UNL     1      -9.305  14.944  67.477  1.00  0.00    -0.193 C  
ENDBRANCH   2   5
TORSDOF 1
ENDMDL
MODEL      100
REMARK 921   NORMALIZED FREE ENERGY PREDICTED BY IDOCK:   -2.65 KCAL/MOL
REMARK 922        TOTAL FREE ENERGY PREDICTED BY IDOCK:   -2.85 KCAL/MOL
REMARK 923 INTER-LIGAND FREE ENERGY PREDICTED BY IDOCK:   -2.79 KCAL/MOL
REMARK 924 INTRA-LIGAND FREE ENERGY PREDICTED BY IDOCK:   -0.06 KCAL/MOL
REMARK 927      BINDING AFFINITY PREDICTED BY RF-SCORE:    0.00 PKD
ROOT
HETATM    1  N   UNL     1      -6.418  13.653  70.391  1.00  0.00    -0.395 NA 
HETATM    2  C   UNL     1      -5.952  14.948  69.906  1.00  0.00    -0.132 C  
HETATM    3  H1  UNL     1      -6.244  13.541  71.391  1.00  0.00     0.000 HD 
HETATM    4  H2  UNL     1      -6.013  12.886  69.855  1.00  0.00     0.000 HD 
ENDROOT
BRANCH   2   5
HETATM    5  C   UNL     1      -6.215  15.117  68.396  1.00  0.00    -0.108 C  
HETATM    6  C   UNL     1      -7.696  14.963  68.014  1.00  0.00    -0.128 C  
HETATM    7  C   UNL     1      -8.557  16.140  68.470  1.00  0.00    -0.202 C  
HETATM    8  C   UNL     1      -8.027  17.490  67.968  1.00  0.00    -0.234 C  
HETATM    9  C   UNL     1      -6.540  17.661  68.307  1.00  0.00    -0.190 C  
HETATM   10  C   UNL     1      -8.297  17.695  66.478  1.00  0.00    -0.268 C  
HETATM   11  O   UNL     1      -9.615  17.722  66.171  1.00  0.00    -0.452 OA 
HETATM   12  O   UNL     1      -7.440  17.869  65.626  1.00  0.00    -0.544 OA 
HETATM   13  C   UNL     1      -5.679  16.465  67.889  1.00  0.00    -0.140 C  
ENDBRANCH   2   5
TORSDOF 1
ENDMDL
MODEL      101
REMARK 921   NORMALIZED FREE ENERGY PREDICTED BY IDOCK:   -2.63 KCAL/MOL
REMARK 922        TOTAL FREE ENERGY PREDICTED BY IDOCK:   -2.82 KCAL/MOL
REMARK 923 INTER-LIGAND FREE ENERGY PREDICTED BY IDOCK:   -2.77 KCAL/MOL
REMARK 924 INTRA-LIGAND FREE ENERGY PREDICTED BY IDOCK:   -0.05 KCAL/MOL
REMARK 927      BINDING AFFINITY PREDICTED BY RF-SCORE:    0.00 PKD
ROOT
HETATM    1  N   UNL     1      -7.600  11.491  69.495  1.00  0.00    -0.346 NA 
HETATM    2  C   UNL     1      -8.688  11.779  68.566  1.00  0.00    -0.118 C  
HETATM    3  H1  UNL     1      -7.923  10.950  70.297  1.00  0.00     0.000 HD 
HETATM    4  H2  UNL     1      -7.125  12.344  69.788  1.00  0.00     0.000 HD 
ENDROOT
BRANCH   2   5
HETATM    5  C   UNL     1      -8.199  12.596  67.353  1.00  0.00    -0.184 C  
HETATM    6  C   UNL     1      -9.287  12.821  66.291  1.00  0.00    -0.156 C  
HETATM    7  C   UNL     1     -10.365  13.808  66.739  1.00  0.00    -0.272 C  
HETATM    8  C   UNL     1      -9.784  15.157  67.182  1.00  0.00    -0.230 C  
HETATM    9  C   UNL     1      -8.670  14.964  68.222  1.00  0.00    -0.166 C  
HETATM   10  C   UNL     1      -9.314  15.998  65.996  1.00  0.00    -0.345 C  
HETATM   11  O   UNL     1     -10.314  16.332  65.147  1.00  0.00    -0.587 OA 
HETATM   12  O   UNL     1      -8.171  16.391  65.823  1.00  0.00    -0.187 OA 
HETATM   13  C   UNL     1      -7.610  13.945  67.795  1.00  0.00    -0.175 C  
ENDBRANCH   2   5
TORSDOF 1
ENDMDL
MODEL      102
REMARK 921   NORMALIZED FREE ENERGY PREDICTED BY IDOCK:   -2.63 KCAL/MOL
REMARK 922        TOTAL FREE ENERGY PREDICTED BY IDOCK:   -2.82 KCAL/MOL
REMARK 923 INTER-LIGAND FREE ENERGY PREDICTED BY IDOCK:   -2.77 KCAL/MOL
REMARK 924 INTRA-LIGAND FREE ENERGY PREDICTED BY IDOCK:   -0.05 KCAL/MOL
REMARK 927      BINDING AFFINITY PREDICTED BY RF-SCORE:    0.00 PKD
ROOT
HETATM    1  N   UNL     1     -13.428   6.344  72.316  1.00  0.00    -0.388 NA 
HETATM    2  C   UNL     1     -13.008   7.053  71.112  1.00  0.00    -0.228 C  
HETATM    3  H1  UNL     1     -14.384   6.585  72.581  1.00  0.00     0.000 HD 
HETATM    4  H2  UNL     1     -12.777   6.500  73.086  1.00  0.00     0.000 HD 
ENDROOT
BRANCH   2   5
HETATM    5  C   UNL     1     -11.564   6.689  70.712  1.00  0.00    -0.432 C  
HETATM    6  C   UNL     1     -10.980   7.614  69.632  1.00  0.00    -0.145 C  
HETATM    7  C   UNL     1     -10.664   9.016  70.153  1.00  0.00    -0.258 C  
HETATM    8  C   UNL     1      -9.741   8.998  71.378  1.00  0.00    -0.369 C  
HETATM    9  C   UNL     1     -10.283   8.057  72.464  1.00  0.00    -0.361 C  
HETATM   10  C   UNL     1      -8.297   8.664  71.005  1.00  0.00    -0.161 C  
HETATM   11  O   UNL     1      -7.733   9.576  70.180  1.00  0.00    -0.116 OA 
HETATM   12  O   UNL     1      -7.666   7.708  71.427  1.00  0.00    -0.079 OA 
HETATM   13  C   UNL     1     -10.639   6.663  71.938  1.00  0.00    -0.237 C  
ENDBRANCH   2   5
TORSDOF 1
ENDMDL
MODEL      103
REMARK 921   NORMALIZED FREE ENERGY PREDICTED BY IDOCK:   -2.62 KCAL/MOL
REMARK 922        TOTAL FREE ENERGY PREDICTED BY IDOCK:   -2.81 KCAL/MOL
REMARK 923 INTER-LIGAND FREE ENERGY PREDICTED BY IDOCK:   -2.86 KCAL/MOL
REMARK 924 INTRA-LIGAND FREE ENERGY PREDICTED BY IDOCK:    0.05 KCAL/MOL
REMARK 927      BINDING AFFINITY PREDICTED BY RF-SCORE:    0.00 PKD
ROOT
HETATM    1  N   UNL     1     -13.520   7.016  72.131  1.00  0.00    -0.542 NA 
HETATM    2  C   UNL     1     -12.501   7.042  71.087  1.00  0.00    -0.362 C  
HETATM    3  H1  UNL     1     -14.459   6.949  71.738  1.00  0.00     0.000 HD 
HETATM    4  H2  UNL     1     -13.434   7.818  72.756  1.00  0.00     0.000 HD 
ENDROOT
BRANCH   2   5
HETATM    5  C   UNL     1     -11.081   7.143  71.681  1.00  0.00    -0.264 C  
HETATM    6  C   UNL     1     -10.955   6.501  73.072  1.00  0.00    -0.270 C  
HETATM    7  C   UNL     1     -11.016   4.974  73.034  1.00  0.00    -0.360 C  
HETATM    8  C   UNL     1      -9.977   4.365  72.083  1.00  0.00    -0.249 C  
HETATM    9  C   UNL     1     -10.057   5.009  70.691  1.00  0.00    -0.313 C  
HETATM   10  C   UNL     1      -8.563   4.429  72.659  1.00  0.00    -0.109 C  
HETATM   11  O   UNL     1      -8.418   3.722  73.803  1.00  0.00    -0.089 OA 
HETATM   12  O   UNL     1      -7.620   5.008  72.142  1.00  0.00    -0.089 OA 
HETATM   13  C   UNL     1     -10.038   6.539  70.728  1.00  0.00    -0.211 C  
ENDBRANCH   2   5
TORSDOF 1
ENDMDL
MODEL      104
REMARK 921   NORMALIZED FREE ENERGY PREDICTED BY IDOCK:   -2.60 KCAL/MOL
REMARK 922        TOTAL FREE ENERGY PREDICTED BY IDOCK:   -2.80 KCAL/MOL
REMARK 923 INTER-LIGAND FREE ENERGY PREDICTED BY IDOCK:   -2.77 KCAL/MOL
REMARK 924 INTRA-LIGAND FREE ENERGY PREDICTED BY IDOCK:   -0.03 KCAL/MOL
REMARK 927      BINDING AFFINITY PREDICTED BY RF-SCORE:    0.00 PKD
ROOT
HETATM    1  N   UNL     1     -11.247   6.177  66.440  1.00  0.00    -0.688 NA 
HETATM    2  C   UNL     1     -10.606   7.319  67.083  1.00  0.00    -0.346 C  
HETATM    3  H1  UNL     1     -11.787   6.461  65.622  1.00  0.00     0.000 HD 
HETATM    4  H2  UNL     1     -11.819   5.651  67.101  1.00  0.00     0.000 HD 
ENDROOT
BRANCH   2   5
HETATM    5  C   UNL     1      -9.789   6.891  68.319  1.00  0.00    -0.141 C  
HETATM    6  C   UNL     1      -8.394   7.535  68.380  1.00  0.00    -0.125 C  
HETATM    7  C   UNL     1      -8.437   9.026  68.712  1.00  0.00    -0.131 C  
HETATM    8  C   UNL     1      -9.203   9.321  70.008  1.00  0.00    -0.231 C  
HETATM    9  C   UNL     1     -10.592   8.665  69.990  1.00  0.00    -0.233 C  
HETATM   10  C   UNL     1      -8.405   8.930  71.251  1.00  0.00    -0.169 C  
HETATM   11  O   UNL     1      -7.250   9.622  71.385  1.00  0.00    -0.315 OA 
HETATM   12  O   UNL     1      -8.763   8.115  72.087  1.00  0.00    -0.141 OA 
HETATM   13  C   UNL     1     -10.557   7.180  69.618  1.00  0.00    -0.249 C  
ENDBRANCH   2   5
TORSDOF 1
ENDMDL
MODEL      105
REMARK 921   NORMALIZED FREE ENERGY PREDICTED BY IDOCK:   -2.60 KCAL/MOL
REMARK 922        TOTAL FREE ENERGY PREDICTED BY IDOCK:   -2.79 KCAL/MOL
REMARK 923 INTER-LIGAND FREE ENERGY PREDICTED BY IDOCK:   -2.73 KCAL/MOL
REMARK 924 INTRA-LIGAND FREE ENERGY PREDICTED BY IDOCK:   -0.06 KCAL/MOL
REMARK 927      BINDING AFFINITY PREDICTED BY RF-SCORE:    0.00 PKD
ROOT
HETATM    1  N   UNL     1     -13.126   8.963  71.972  1.00  0.00    -0.372 NA 
HETATM    2  C   UNL     1     -11.928   9.292  71.207  1.00  0.00    -0.340 C  
HETATM    3  H1  UNL     1     -13.888   9.613  71.776  1.00  0.00     0.000 HD 
HETATM    4  H2  UNL     1     -12.927   8.911  72.970  1.00  0.00     0.000 HD 
ENDROOT
BRANCH   2   5
HETATM    5  C   UNL     1     -10.776   8.309  71.502  1.00  0.00    -0.295 C  
HETATM    6  C   UNL     1     -11.209   6.834  71.462  1.00  0.00    -0.300 C  
HETATM    7  C   UNL     1     -11.502   6.335  70.048  1.00  0.00    -0.460 C  
HETATM    8  C   UNL     1     -10.327   6.559  69.087  1.00  0.00    -0.226 C  
HETATM    9  C   UNL     1      -9.851   8.018  69.127  1.00  0.00    -0.178 C  
HETATM   10  C   UNL     1      -9.181   5.580  69.341  1.00  0.00    -0.117 C  
HETATM   11  O   UNL     1      -9.528   4.287  69.144  1.00  0.00    -0.148 OA 
HETATM   12  O   UNL     1      -8.042   5.897  69.645  1.00  0.00    -0.102 OA 
HETATM   13  C   UNL     1      -9.596   8.536  70.545  1.00  0.00    -0.194 C  
ENDBRANCH   2   5
TORSDOF 1
ENDMDL
MODEL      106
REMARK 921   NORMALIZED FREE ENERGY PREDICTED BY IDOCK:   -2.58 KCAL/MOL
REMARK 922        TOTAL FREE ENERGY PREDICTED BY IDOCK:   -2.77 KCAL/MOL
REMARK 923 INTER-LIGAND FREE ENERGY PREDICTED BY IDOCK:   -2.75 KCAL/MOL
REMARK 924 INTRA-LIGAND FREE ENERGY PREDICTED BY IDOCK:   -0.03 KCAL/MOL
REMARK 927      BINDING AFFINITY PREDICTED BY RF-SCORE:    0.00 PKD
ROOT
HETATM    1  N   UNL     1     -10.097  10.990  67.234  1.00  0.00    -0.185 NA 
HETATM    2  C   UNL     1     -10.713   9.747  67.685  1.00  0.00    -0.274 C  
HETATM    3  H1  UNL     1     -10.789  11.729  67.110  1.00  0.00     0.000 HD 
HETATM    4  H2  UNL     1      -9.548  10.847  66.386  1.00  0.00     0.000 HD 
ENDROOT
BRANCH   2   5
HETATM    5  C   UNL     1      -9.667   8.629  67.873  1.00  0.00    -0.192 C  
HETATM    6  C   UNL     1      -9.535   8.156  69.330  1.00  0.00    -0.162 C  
HETATM    7  C   UNL     1     -10.740   7.345  69.807  1.00  0.00    -0.252 C  
HETATM    8  C   UNL     1     -11.044   6.148  68.897  1.00  0.00    -0.417 C  
HETATM    9  C   UNL     1     -11.151   6.584  67.428  1.00  0.00    -0.411 C  
HETATM   10  C   UNL     1     -10.036   5.014  69.082  1.00  0.00    -0.196 C  
HETATM   11  O   UNL     1     -10.042   4.491  70.329  1.00  0.00    -0.230 OA 
HETATM   12  O   UNL     1      -9.316   4.565  68.204  1.00  0.00    -0.125 OA 
HETATM   13  C   UNL     1      -9.965   7.432  66.958  1.00  0.00    -0.301 C  
ENDBRANCH   2   5
TORSDOF 1
ENDMDL
MODEL      107
REMARK 921   NORMALIZED FREE ENERGY PREDICTED BY IDOCK:   -2.57 KCAL/MOL
REMARK 922        TOTAL FREE ENERGY PREDICTED BY IDOCK:   -2.76 KCAL/MOL
REMARK 923 INTER-LIGAND FREE ENERGY PREDICTED BY IDOCK:   -2.74 KCAL/MOL
REMARK 924 INTRA-LIGAND FREE ENERGY PREDICTED BY IDOCK:   -0.03 KCAL/MOL
REMARK 927      BINDING AFFINITY PREDICTED BY RF-SCORE:    0.00 PKD
ROOT
HETATM    1  N   UNL     1     -11.937  12.130  70.493  1.00  0.00    -0.500 NA 
HETATM    2  C   UNL     1     -11.428  12.373  69.148  1.00  0.00    -0.302 C  
HETATM    3  H1  UNL     1     -12.442  12.939  70.856  1.00  0.00     0.000 HD 
HETATM    4  H2  UNL     1     -11.193  11.840  71.126  1.00  0.00     0.000 HD 
ENDROOT
BRANCH   2   5
HETATM    5  C   UNL     1     -10.666  11.150  68.598  1.00  0.00    -0.234 C  
HETATM    6  C   UNL     1     -11.263  10.595  67.294  1.00  0.00    -0.237 C  
HETATM    7  C   UNL     1     -11.018  11.504  66.090  1.00  0.00    -0.320 C  
HETATM    8  C   UNL     1      -9.532  11.827  65.886  1.00  0.00    -0.239 C  
HETATM    9  C   UNL     1      -8.899  12.355  67.181  1.00  0.00    -0.197 C  
HETATM   10  C   UNL     1      -8.758  10.639  65.318  1.00  0.00    -0.187 C  
HETATM   11  O   UNL     1      -9.185  10.259  64.091  1.00  0.00    -0.221 OA 
HETATM   12  O   UNL     1      -7.812  10.092  65.863  1.00  0.00    -0.112 OA 
HETATM   13  C   UNL     1      -9.176  11.469  68.399  1.00  0.00    -0.190 C  
ENDBRANCH   2   5
TORSDOF 1
ENDMDL
MODEL      108
REMARK 921   NORMALIZED FREE ENERGY PREDICTED BY IDOCK:   -2.54 KCAL/MOL
REMARK 922        TOTAL FREE ENERGY PREDICTED BY IDOCK:   -2.73 KCAL/MOL
REMARK 923 INTER-LIGAND FREE ENERGY PREDICTED BY IDOCK:   -2.93 KCAL/MOL
REMARK 924 INTRA-LIGAND FREE ENERGY PREDICTED BY IDOCK:    0.20 KCAL/MOL
REMARK 927      BINDING AFFINITY PREDICTED BY RF-SCORE:    0.00 PKD
ROOT
HETATM    1  N   UNL     1     -11.090   8.528  69.274  1.00  0.00    -0.432 NA 
HETATM    2  C   UNL     1     -10.519   7.291  68.753  1.00  0.00    -0.200 C  
HETATM    3  H1  UNL     1     -10.729   9.346  68.782  1.00  0.00     0.000 HD 
HETATM    4  H2  UNL     1     -10.950   8.608  70.281  1.00  0.00     0.000 HD 
ENDROOT
BRANCH   2   5
HETATM    5  C   UNL     1     -11.066   6.055  69.496  1.00  0.00    -0.468 C  
HETATM    6  C   UNL     1      -9.996   4.985  69.769  1.00  0.00    -0.319 C  
HETATM    7  C   UNL     1      -8.993   5.402  70.844  1.00  0.00    -0.156 C  
HETATM    8  C   UNL     1      -9.671   5.806  72.160  1.00  0.00    -0.174 C  
HETATM    9  C   UNL     1     -10.768   6.853  71.917  1.00  0.00    -0.245 C  
HETATM   10  C   UNL     1     -10.200   4.597  72.930  1.00  0.00    -0.179 C  
HETATM   11  O   UNL     1      -9.227   3.737  73.310  1.00  0.00    -0.101 OA 
HETATM   12  O   UNL     1     -11.368   4.414  73.233  1.00  0.00    -0.279 OA 
HETATM   13  C   UNL     1     -11.751   6.458  70.811  1.00  0.00    -0.378 C  
ENDBRANCH   2   5
TORSDOF 1
ENDMDL
MODEL      109
REMARK 921   NORMALIZED FREE ENERGY PREDICTED BY IDOCK:   -2.54 KCAL/MOL
REMARK 922        TOTAL FREE ENERGY PREDICTED BY IDOCK:   -2.73 KCAL/MOL
REMARK 923 INTER-LIGAND FREE ENERGY PREDICTED BY IDOCK:   -2.68 KCAL/MOL
REMARK 924 INTRA-LIGAND FREE ENERGY PREDICTED BY IDOCK:   -0.05 KCAL/MOL
REMARK 927      BINDING AFFINITY PREDICTED BY RF-SCORE:    0.00 PKD
ROOT
HETATM    1  N   UNL     1      -7.425  10.298  68.877  1.00  0.00    -0.087 NA 
HETATM    2  C   UNL     1      -8.434  11.301  68.552  1.00  0.00    -0.156 C  
HETATM    3  H1  UNL     1      -7.597   9.873  69.789  1.00  0.00     0.000 HD 
HETATM    4  H2  UNL     1      -6.483  10.684  68.817  1.00  0.00     0.000 HD 
ENDROOT
BRANCH   2   5
HETATM    5  C   UNL     1      -8.175  11.942  67.174  1.00  0.00    -0.171 C  
HETATM    6  C   UNL     1      -7.801  10.921  66.087  1.00  0.00    -0.144 C  
HETATM    7  C   UNL     1      -8.980  10.052  65.652  1.00  0.00    -0.203 C  
HETATM    8  C   UNL     1     -10.188  10.880  65.194  1.00  0.00    -0.360 C  
HETATM    9  C   UNL     1     -10.567  11.932  66.248  1.00  0.00    -0.289 C  
HETATM   10  C   UNL     1      -9.968  11.507  63.819  1.00  0.00    -0.349 C  
HETATM   11  O   UNL     1      -9.802  10.594  62.834  1.00  0.00    -0.319 OA 
HETATM   12  O   UNL     1      -9.982  12.705  63.583  1.00  0.00    -0.361 OA 
HETATM   13  C   UNL     1      -9.380  12.778  66.717  1.00  0.00    -0.241 C  
ENDBRANCH   2   5
TORSDOF 1
ENDMDL
MODEL      110
REMARK 921   NORMALIZED FREE ENERGY PREDICTED BY IDOCK:   -2.53 KCAL/MOL
REMARK 922        TOTAL FREE ENERGY PREDICTED BY IDOCK:   -2.72 KCAL/MOL
REMARK 923 INTER-LIGAND FREE ENERGY PREDICTED BY IDOCK:   -2.68 KCAL/MOL
REMARK 924 INTRA-LIGAND FREE ENERGY PREDICTED BY IDOCK:   -0.04 KCAL/MOL
REMARK 927      BINDING AFFINITY PREDICTED BY RF-SCORE:    0.00 PKD
ROOT
HETATM    1  N   UNL     1     -11.298  11.199  70.267  1.00  0.00    -0.475 NA 
HETATM    2  C   UNL     1     -11.046   9.773  70.445  1.00  0.00    -0.307 C  
HETATM    3  H1  UNL     1     -12.149  11.493  70.748  1.00  0.00     0.000 HD 
HETATM    4  H2  UNL     1     -11.321  11.453  69.280  1.00  0.00     0.000 HD 
ENDROOT
BRANCH   2   5
HETATM    5  C   UNL     1      -9.760   9.328  69.719  1.00  0.00    -0.202 C  
HETATM    6  C   UNL     1      -9.628   7.801  69.595  1.00  0.00    -0.163 C  
HETATM    7  C   UNL     1     -10.608   7.196  68.591  1.00  0.00    -0.217 C  
HETATM    8  C   UNL     1     -10.507   7.842  67.203  1.00  0.00    -0.413 C  
HETATM    9  C   UNL     1     -10.605   9.372  67.297  1.00  0.00    -0.314 C  
HETATM   10  C   UNL     1      -9.253   7.398  66.451  1.00  0.00    -0.159 C  
HETATM   11  O   UNL     1      -9.222   6.069  66.200  1.00  0.00    -0.157 OA 
HETATM   12  O   UNL     1      -8.370   8.143  66.057  1.00  0.00    -0.116 OA 
HETATM   13  C   UNL     1      -9.653   9.979  68.332  1.00  0.00    -0.153 C  
ENDBRANCH   2   5
TORSDOF 1
ENDMDL
MODEL      111
REMARK 921   NORMALIZED FREE ENERGY PREDICTED BY IDOCK:   -2.51 KCAL/MOL
REMARK 922        TOTAL FREE ENERGY PREDICTED BY IDOCK:   -2.69 KCAL/MOL
REMARK 923 INTER-LIGAND FREE ENERGY PREDICTED BY IDOCK:   -2.64 KCAL/MOL
REMARK 924 INTRA-LIGAND FREE ENERGY PREDICTED BY IDOCK:   -0.06 KCAL/MOL
REMARK 927      BINDING AFFINITY PREDICTED BY RF-SCORE:    0.00 PKD
ROOT
HETATM    1  N   UNL     1     -11.082   5.156  65.787  1.00  0.00    -0.808 NA 
HETATM    2  C   UNL     1      -9.853   5.149  66.574  1.00  0.00    -0.192 C  
HETATM    3  H1  UNL     1     -10.887   5.190  64.786  1.00  0.00     0.000 HD 
HETATM    4  H2  UNL     1     -11.702   5.913  66.072  1.00  0.00     0.000 HD 
ENDROOT
BRANCH   2   5
HETATM    5  C   UNL     1     -10.147   5.096  68.088  1.00  0.00    -0.192 C  
HETATM    6  C   UNL     1      -8.879   5.127  68.956  1.00  0.00    -0.108 C  
HETATM    7  C   UNL     1      -8.191   6.492  68.963  1.00  0.00    -0.116 C  
HETATM    8  C   UNL     1      -9.135   7.627  69.380  1.00  0.00    -0.142 C  
HETATM    9  C   UNL     1     -10.427   7.604  68.550  1.00  0.00    -0.206 C  
HETATM   10  C   UNL     1      -9.423   7.613  70.881  1.00  0.00    -0.164 C  
HETATM   11  O   UNL     1      -8.320   7.806  71.640  1.00  0.00    -0.103 OA 
HETATM   12  O   UNL     1     -10.530   7.493  71.382  1.00  0.00    -0.209 OA 
HETATM   13  C   UNL     1     -11.098   6.228  68.506  1.00  0.00    -0.397 C  
ENDBRANCH   2   5
TORSDOF 1
ENDMDL
MODEL      112
REMARK 921   NORMALIZED FREE ENERGY PREDICTED BY IDOCK:   -2.47 KCAL/MOL
REMARK 922        TOTAL FREE ENERGY PREDICTED BY IDOCK:   -2.66 KCAL/MOL
REMARK 923 INTER-LIGAND FREE ENERGY PREDICTED BY IDOCK:   -2.60 KCAL/MOL
REMARK 924 INTRA-LIGAND FREE ENERGY PREDICTED BY IDOCK:   -0.06 KCAL/MOL
REMARK 927      BINDING AFFINITY PREDICTED BY RF-SCORE:    0.00 PKD
ROOT
HETATM    1  N   UNL     1      -8.944  12.331  65.966  1.00  0.00    -0.425 NA 
HETATM    2  C   UNL     1      -8.510  11.509  67.091  1.00  0.00    -0.158 C  
HETATM    3  H1  UNL     1      -8.151  12.752  65.481  1.00  0.00     0.000 HD 
HETATM    4  H2  UNL     1      -9.619  13.037  66.259  1.00  0.00     0.000 HD 
ENDROOT
BRANCH   2   5
HETATM    5  C   UNL     1      -9.708  10.872  67.824  1.00  0.00    -0.183 C  
HETATM    6  C   UNL     1     -10.578   9.987  66.917  1.00  0.00    -0.261 C  
HETATM    7  C   UNL     1      -9.896   8.674  66.530  1.00  0.00    -0.348 C  
HETATM    8  C   UNL     1      -9.430   7.869  67.750  1.00  0.00    -0.165 C  
HETATM    9  C   UNL     1      -8.583   8.736  68.693  1.00  0.00    -0.134 C  
HETATM   10  C   UNL     1     -10.596   7.205  68.481  1.00  0.00    -0.187 C  
HETATM   11  O   UNL     1     -11.259   6.302  67.723  1.00  0.00    -0.325 OA 
HETATM   12  O   UNL     1     -10.899   7.407  69.646  1.00  0.00    -0.239 OA 
HETATM   13  C   UNL     1      -9.244  10.070  69.050  1.00  0.00    -0.180 C  
ENDBRANCH   2   5
TORSDOF 1
ENDMDL
MODEL      113
REMARK 921   NORMALIZED FREE ENERGY PREDICTED BY IDOCK:   -2.46 KCAL/MOL
REMARK 922        TOTAL FREE ENERGY PREDICTED BY IDOCK:   -2.64 KCAL/MOL
REMARK 923 INTER-LIGAND FREE ENERGY PREDICTED BY IDOCK:   -2.60 KCAL/MOL
REMARK 924 INTRA-LIGAND FREE ENERGY PREDICTED BY IDOCK:   -0.04 KCAL/MOL
REMARK 927      BINDING AFFINITY PREDICTED BY RF-SCORE:    0.00 PKD
ROOT
HETATM    1  N   UNL     1     -10.501   5.694  70.784  1.00  0.00    -0.251 NA 
HETATM    2  C   UNL     1     -11.175   6.176  69.584  1.00  0.00    -0.418 C  
HETATM    3  H1  UNL     1     -10.994   5.977  71.632  1.00  0.00     0.000 HD 
HETATM    4  H2  UNL     1      -9.524   5.987  70.806  1.00  0.00     0.000 HD 
ENDROOT
BRANCH   2   5
HETATM    5  C   UNL     1     -10.430   5.748  68.303  1.00  0.00    -0.281 C  
HETATM    6  C   UNL     1     -10.915   6.482  67.042  1.00  0.00    -0.466 C  
HETATM    7  C   UNL     1     -10.491   7.950  67.004  1.00  0.00    -0.419 C  
HETATM    8  C   UNL     1      -8.975   8.131  67.161  1.00  0.00    -0.154 C  
HETATM    9  C   UNL     1      -8.455   7.383  68.397  1.00  0.00    -0.125 C  
HETATM   10  C   UNL     1      -8.214   7.738  65.896  1.00  0.00    -0.128 C  
HETATM   11  O   UNL     1      -8.529   8.501  64.823  1.00  0.00    -0.170 OA 
HETATM   12  O   UNL     1      -7.366   6.863  65.831  1.00  0.00    -0.075 OA 
HETATM   13  C   UNL     1      -8.912   5.922  68.460  1.00  0.00    -0.113 C  
ENDBRANCH   2   5
TORSDOF 1
ENDMDL
MODEL      114
REMARK 921   NORMALIZED FREE ENERGY PREDICTED BY IDOCK:   -2.45 KCAL/MOL
REMARK 922        TOTAL FREE ENERGY PREDICTED BY IDOCK:   -2.63 KCAL/MOL
REMARK 923 INTER-LIGAND FREE ENERGY PREDICTED BY IDOCK:   -2.58 KCAL/MOL
REMARK 924 INTRA-LIGAND FREE ENERGY PREDICTED BY IDOCK:   -0.05 KCAL/MOL
REMARK 927      BINDING AFFINITY PREDICTED BY RF-SCORE:    0.00 PKD
ROOT
HETATM    1  N   UNL     1      -8.308  14.154  68.895  1.00  0.00    -0.326 NA 
HETATM    2  C   UNL     1      -9.237  13.439  68.026  1.00  0.00    -0.209 C  
HETATM    3  H1  UNL     1      -8.680  15.061  69.179  1.00  0.00     0.000 HD 
HETATM    4  H2  UNL     1      -7.390  14.248  68.460  1.00  0.00     0.000 HD 
ENDROOT
BRANCH   2   5
HETATM    5  C   UNL     1      -8.676  12.069  67.597  1.00  0.00    -0.166 C  
HETATM    6  C   UNL     1      -8.606  11.051  68.748  1.00  0.00    -0.144 C  
HETATM    7  C   UNL     1      -9.981  10.544  69.181  1.00  0.00    -0.236 C  
HETATM    8  C   UNL     1     -10.789   9.958  68.017  1.00  0.00    -0.294 C  
HETATM    9  C   UNL     1     -10.851  10.940  66.838  1.00  0.00    -0.307 C  
HETATM   10  C   UNL     1     -10.269   8.587  67.587  1.00  0.00    -0.236 C  
HETATM   11  O   UNL     1     -10.363   7.650  68.559  1.00  0.00    -0.196 OA 
HETATM   12  O   UNL     1      -9.848   8.313  66.475  1.00  0.00    -0.240 OA 
HETATM   13  C   UNL     1      -9.479  11.483  66.426  1.00  0.00    -0.230 C  
ENDBRANCH   2   5
TORSDOF 1
ENDMDL
MODEL      115
REMARK 921   NORMALIZED FREE ENERGY PREDICTED BY IDOCK:   -2.43 KCAL/MOL
REMARK 922        TOTAL FREE ENERGY PREDICTED BY IDOCK:   -2.61 KCAL/MOL
REMARK 923 INTER-LIGAND FREE ENERGY PREDICTED BY IDOCK:   -2.56 KCAL/MOL
REMARK 924 INTRA-LIGAND FREE ENERGY PREDICTED BY IDOCK:   -0.06 KCAL/MOL
REMARK 927      BINDING AFFINITY PREDICTED BY RF-SCORE:    0.00 PKD
ROOT
HETATM    1  N   UNL     1      -8.188   8.828  64.652  1.00  0.00    -0.158 NA 
HETATM    2  C   UNL     1      -8.361   7.398  64.882  1.00  0.00    -0.022 C  
HETATM    3  H1  UNL     1      -8.285   9.065  63.664  1.00  0.00     0.000 HD 
HETATM    4  H2  UNL     1      -7.302   9.162  65.030  1.00  0.00     0.000 HD 
ENDROOT
BRANCH   2   5
HETATM    5  C   UNL     1      -8.216   7.040  66.375  1.00  0.00    -0.117 C  
HETATM    6  C   UNL     1      -9.029   7.957  67.304  1.00  0.00    -0.137 C  
HETATM    7  C   UNL     1     -10.535   7.712  67.215  1.00  0.00    -0.396 C  
HETATM    8  C   UNL     1     -10.912   6.246  67.469  1.00  0.00    -0.444 C  
HETATM    9  C   UNL     1     -10.093   5.303  66.577  1.00  0.00    -0.260 C  
HETATM   10  C   UNL     1     -10.801   5.872  68.947  1.00  0.00    -0.303 C  
HETATM   11  O   UNL     1     -11.643   6.572  69.741  1.00  0.00    -0.394 OA 
HETATM   12  O   UNL     1     -10.074   5.001  69.397  1.00  0.00    -0.210 OA 
HETATM   13  C   UNL     1      -8.586   5.571  66.631  1.00  0.00    -0.116 C  
ENDBRANCH   2   5
TORSDOF 1
ENDMDL
MODEL      116
REMARK 921   NORMALIZED FREE ENERGY PREDICTED BY IDOCK:   -2.43 KCAL/MOL
REMARK 922        TOTAL FREE ENERGY PREDICTED BY IDOCK:   -2.61 KCAL/MOL
REMARK 923 INTER-LIGAND FREE ENERGY PREDICTED BY IDOCK:   -2.55 KCAL/MOL
REMARK 924 INTRA-LIGAND FREE ENERGY PREDICTED BY IDOCK:   -0.06 KCAL/MOL
REMARK 927      BINDING AFFINITY PREDICTED BY RF-SCORE:    0.00 PKD
ROOT
HETATM    1  N   UNL     1      -8.623   2.292  72.616  1.00  0.00    -0.062 NA 
HETATM    2  C   UNL     1      -8.939   3.135  71.468  1.00  0.00    -0.093 C  
HETATM    3  H1  UNL     1      -8.760   1.303  72.406  1.00  0.00     0.000 HD 
HETATM    4  H2  UNL     1      -9.151   2.574  73.441  1.00  0.00     0.000 HD 
ENDROOT
BRANCH   2   5
HETATM    5  C   UNL     1      -8.732   4.630  71.785  1.00  0.00    -0.134 C  
HETATM    6  C   UNL     1      -9.211   5.563  70.661  1.00  0.00    -0.180 C  
HETATM    7  C   UNL     1     -10.734   5.623  70.541  1.00  0.00    -0.344 C  
HETATM    8  C   UNL     1     -11.416   6.006  71.861  1.00  0.00    -0.328 C  
HETATM    9  C   UNL     1     -10.934   5.110  73.011  1.00  0.00    -0.355 C  
HETATM   10  C   UNL     1     -11.247   7.489  72.187  1.00  0.00    -0.270 C  
HETATM   11  O   UNL     1     -11.817   8.306  71.272  1.00  0.00    -0.282 OA 
HETATM   12  O   UNL     1     -10.703   7.931  73.186  1.00  0.00    -0.368 OA 
HETATM   13  C   UNL     1      -9.409   5.014  73.110  1.00  0.00    -0.136 C  
ENDBRANCH   2   5
TORSDOF 1
ENDMDL
MODEL      117
REMARK 921   NORMALIZED FREE ENERGY PREDICTED BY IDOCK:   -2.42 KCAL/MOL
REMARK 922        TOTAL FREE ENERGY PREDICTED BY IDOCK:   -2.61 KCAL/MOL
REMARK 923 INTER-LIGAND FREE ENERGY PREDICTED BY IDOCK:   -2.57 KCAL/MOL
REMARK 924 INTRA-LIGAND FREE ENERGY PREDICTED BY IDOCK:   -0.03 KCAL/MOL
REMARK 927      BINDING AFFINITY PREDICTED BY RF-SCORE:    0.00 PKD
ROOT
HETATM    1  N   UNL     1     -11.796  10.389  68.224  1.00  0.00    -0.760 NA 
HETATM    2  C   UNL     1     -10.353  10.272  68.041  1.00  0.00    -0.181 C  
HETATM    3  H1  UNL     1     -12.103   9.942  69.088  1.00  0.00     0.000 HD 
HETATM    4  H2  UNL     1     -12.303  10.027  67.417  1.00  0.00     0.000 HD 
ENDROOT
BRANCH   2   5
HETATM    5  C   UNL     1      -9.888  10.947  66.735  1.00  0.00    -0.231 C  
HETATM    6  C   UNL     1      -8.455  11.500  66.811  1.00  0.00    -0.168 C  
HETATM    7  C   UNL     1      -7.391  10.403  66.824  1.00  0.00    -0.110 C  
HETATM    8  C   UNL     1      -7.516   9.444  65.634  1.00  0.00    -0.095 C  
HETATM    9  C   UNL     1      -8.946   8.897  65.513  1.00  0.00    -0.246 C  
HETATM   10  C   UNL     1      -7.038  10.080  64.329  1.00  0.00    -0.130 C  
HETATM   11  O   UNL     1      -5.728  10.415  64.346  1.00  0.00    -0.132 OA 
HETATM   12  O   UNL     1      -7.726  10.240  63.333  1.00  0.00    -0.152 OA 
HETATM   13  C   UNL     1     -10.019   9.990  65.540  1.00  0.00    -0.367 C  
ENDBRANCH   2   5
TORSDOF 1
ENDMDL
MODEL      118
REMARK 921   NORMALIZED FREE ENERGY PREDICTED BY IDOCK:   -2.42 KCAL/MOL
REMARK 922        TOTAL FREE ENERGY PREDICTED BY IDOCK:   -2.60 KCAL/MOL
REMARK 923 INTER-LIGAND FREE ENERGY PREDICTED BY IDOCK:   -2.57 KCAL/MOL
REMARK 924 INTRA-LIGAND FREE ENERGY PREDICTED BY IDOCK:   -0.03 KCAL/MOL
REMARK 927      BINDING AFFINITY PREDICTED BY RF-SCORE:    0.00 PKD
ROOT
HETATM    1  N   UNL     1     -12.796  12.078  71.588  1.00  0.00    -0.342 NA 
HETATM    2  C   UNL     1     -12.857  10.669  71.964  1.00  0.00    -0.284 C  
HETATM    3  H1  UNL     1     -12.825  12.687  72.407  1.00  0.00     0.000 HD 
HETATM    4  H2  UNL     1     -13.527  12.317  70.919  1.00  0.00     0.000 HD 
ENDROOT
BRANCH   2   5
HETATM    5  C   UNL     1     -12.812   9.749  70.727  1.00  0.00    -0.230 C  
HETATM    6  C   UNL     1     -11.842  10.237  69.639  1.00  0.00    -0.181 C  
HETATM    7  C   UNL     1     -10.373  10.070  70.030  1.00  0.00    -0.323 C  
HETATM    8  C   UNL     1     -10.027   8.630  70.428  1.00  0.00    -0.212 C  
HETATM    9  C   UNL     1     -10.999   8.102  71.493  1.00  0.00    -0.294 C  
HETATM   10  C   UNL     1      -9.951   7.701  69.217  1.00  0.00    -0.180 C  
HETATM   11  O   UNL     1      -8.979   8.043  68.340  1.00  0.00    -0.134 OA 
HETATM   12  O   UNL     1     -10.645   6.711  69.047  1.00  0.00    -0.203 OA 
HETATM   13  C   UNL     1     -12.472   8.304  71.124  1.00  0.00    -0.189 C  
ENDBRANCH   2   5
TORSDOF 1
ENDMDL
MODEL      119
REMARK 921   NORMALIZED FREE ENERGY PREDICTED BY IDOCK:   -2.41 KCAL/MOL
REMARK 922        TOTAL FREE ENERGY PREDICTED BY IDOCK:   -2.59 KCAL/MOL
REMARK 923 INTER-LIGAND FREE ENERGY PREDICTED BY IDOCK:   -2.55 KCAL/MOL
REMARK 924 INTRA-LIGAND FREE ENERGY PREDICTED BY IDOCK:   -0.04 KCAL/MOL
REMARK 927      BINDING AFFINITY PREDICTED BY RF-SCORE:    0.00 PKD
ROOT
HETATM    1  N   UNL     1      -7.785  11.321  65.954  1.00  0.00    -0.372 NA 
HETATM    2  C   UNL     1      -7.953  10.531  67.169  1.00  0.00    -0.116 C  
HETATM    3  H1  UNL     1      -7.557  12.293  66.165  1.00  0.00     0.000 HD 
HETATM    4  H2  UNL     1      -8.604  11.253  65.350  1.00  0.00     0.000 HD 
ENDROOT
BRANCH   2   5
HETATM    5  C   UNL     1      -8.297   9.062  66.851  1.00  0.00    -0.119 C  
HETATM    6  C   UNL     1      -8.041   8.107  68.028  1.00  0.00    -0.128 C  
HETATM    7  C   UNL     1      -9.048   8.275  69.164  1.00  0.00    -0.148 C  
HETATM    8  C   UNL     1     -10.501   8.140  68.691  1.00  0.00    -0.195 C  
HETATM    9  C   UNL     1     -10.780   9.060  67.494  1.00  0.00    -0.239 C  
HETATM   10  C   UNL     1     -10.876   6.689  68.392  1.00  0.00    -0.255 C  
HETATM   11  O   UNL     1     -10.806   5.883  69.477  1.00  0.00    -0.317 OA 
HETATM   12  O   UNL     1     -11.254   6.271  67.309  1.00  0.00    -0.332 OA 
HETATM   13  C   UNL     1      -9.750   8.925  66.370  1.00  0.00    -0.332 C  
ENDBRANCH   2   5
TORSDOF 1
ENDMDL
MODEL      120
REMARK 921   NORMALIZED FREE ENERGY PREDICTED BY IDOCK:   -2.41 KCAL/MOL
REMARK 922        TOTAL FREE ENERGY PREDICTED BY IDOCK:   -2.59 KCAL/MOL
REMARK 923 INTER-LIGAND FREE ENERGY PREDICTED BY IDOCK:   -2.57 KCAL/MOL
REMARK 924 INTRA-LIGAND FREE ENERGY PREDICTED BY IDOCK:   -0.03 KCAL/MOL
REMARK 927      BINDING AFFINITY PREDICTED BY RF-SCORE:    0.00 PKD
ROOT
HETATM    1  N   UNL     1      -7.320   6.121  67.827  1.00  0.00    -0.082 NA 
HETATM    2  C   UNL     1      -8.669   6.379  68.317  1.00  0.00    -0.116 C  
HETATM    3  H1  UNL     1      -7.326   5.798  66.859  1.00  0.00     0.000 HD 
HETATM    4  H2  UNL     1      -6.821   5.470  68.433  1.00  0.00     0.000 HD 
ENDROOT
BRANCH   2   5
HETATM    5  C   UNL     1      -8.659   6.868  69.780  1.00  0.00    -0.141 C  
HETATM    6  C   UNL     1      -9.154   8.315  69.942  1.00  0.00    -0.147 C  
HETATM    7  C   UNL     1     -10.659   8.460  69.724  1.00  0.00    -0.221 C  
HETATM    8  C   UNL     1     -11.480   7.526  70.622  1.00  0.00    -0.291 C  
HETATM    9  C   UNL     1     -10.989   6.075  70.506  1.00  0.00    -0.388 C  
HETATM   10  C   UNL     1     -11.508   8.001  72.074  1.00  0.00    -0.309 C  
HETATM   11  O   UNL     1     -12.095   9.210  72.230  1.00  0.00    -0.330 OA 
HETATM   12  O   UNL     1     -11.096   7.363  73.030  1.00  0.00    -0.342 OA 
HETATM   13  C   UNL     1      -9.475   5.930  70.683  1.00  0.00    -0.199 C  
ENDBRANCH   2   5
TORSDOF 1
ENDMDL
MODEL      121
REMARK 921   NORMALIZED FREE ENERGY PREDICTED BY IDOCK:   -2.41 KCAL/MOL
REMARK 922        TOTAL FREE ENERGY PREDICTED BY IDOCK:   -2.59 KCAL/MOL
REMARK 923 INTER-LIGAND FREE ENERGY PREDICTED BY IDOCK:   -2.63 KCAL/MOL
REMARK 924 INTRA-LIGAND FREE ENERGY PREDICTED BY IDOCK:    0.04 KCAL/MOL
REMARK 927      BINDING AFFINITY PREDICTED BY RF-SCORE:    0.00 PKD
ROOT
HETATM    1  N   UNL     1     -12.315  14.087  68.403  1.00  0.00    -0.504 NA 
HETATM    2  C   UNL     1     -11.283  14.992  67.909  1.00  0.00    -0.323 C  
HETATM    3  H1  UNL     1     -12.910  14.539  69.099  1.00  0.00     0.000 HD 
HETATM    4  H2  UNL     1     -11.911  13.222  68.764  1.00  0.00     0.000 HD 
ENDROOT
BRANCH   2   5
HETATM    5  C   UNL     1     -10.384  14.309  66.858  1.00  0.00    -0.268 C  
HETATM    6  C   UNL     1      -8.978  14.926  66.765  1.00  0.00    -0.295 C  
HETATM    7  C   UNL     1      -8.102  14.602  67.975  1.00  0.00    -0.135 C  
HETATM    8  C   UNL     1      -7.993  13.095  68.239  1.00  0.00    -0.148 C  
HETATM    9  C   UNL     1      -9.382  12.444  68.307  1.00  0.00    -0.199 C  
HETATM   10  C   UNL     1      -7.087  12.397  67.226  1.00  0.00    -0.128 C  
HETATM   11  O   UNL     1      -5.806  12.833  67.264  1.00  0.00    -0.279 OA 
HETATM   12  O   UNL     1      -7.434  11.499  66.475  1.00  0.00    -0.115 OA 
HETATM   13  C   UNL     1     -10.278  12.798  67.117  1.00  0.00    -0.235 C  
ENDBRANCH   2   5
TORSDOF 1
ENDMDL
MODEL      122
REMARK 921   NORMALIZED FREE ENERGY PREDICTED BY IDOCK:   -2.37 KCAL/MOL
REMARK 922        TOTAL FREE ENERGY PREDICTED BY IDOCK:   -2.55 KCAL/MOL
REMARK 923 INTER-LIGAND FREE ENERGY PREDICTED BY IDOCK:   -2.50 KCAL/MOL
REMARK 924 INTRA-LIGAND FREE ENERGY PREDICTED BY IDOCK:   -0.06 KCAL/MOL
REMARK 927      BINDING AFFINITY PREDICTED BY RF-SCORE:    0.00 PKD
ROOT
HETATM    1  N   UNL     1     -11.578  12.468  69.964  1.00  0.00    -0.530 NA 
HETATM    2  C   UNL     1     -11.785  11.805  68.681  1.00  0.00    -0.330 C  
HETATM    3  H1  UNL     1     -12.316  12.237  70.630  1.00  0.00     0.000 HD 
HETATM    4  H2  UNL     1     -11.480  13.476  69.850  1.00  0.00     0.000 HD 
ENDROOT
BRANCH   2   5
HETATM    5  C   UNL     1     -10.670  12.153  67.674  1.00  0.00    -0.252 C  
HETATM    6  C   UNL     1      -9.255  12.011  68.258  1.00  0.00    -0.192 C  
HETATM    7  C   UNL     1      -8.842  10.556  68.474  1.00  0.00    -0.144 C  
HETATM    8  C   UNL     1      -8.966   9.710  67.201  1.00  0.00    -0.148 C  
HETATM    9  C   UNL     1     -10.361   9.855  66.575  1.00  0.00    -0.259 C  
HETATM   10  C   UNL     1      -7.857  10.017  66.195  1.00  0.00    -0.114 C  
HETATM   11  O   UNL     1      -6.619   9.733  66.660  1.00  0.00    -0.069 OA 
HETATM   12  O   UNL     1      -8.034  10.431  65.060  1.00  0.00    -0.154 OA 
HETATM   13  C   UNL     1     -10.797  11.312  66.394  1.00  0.00    -0.306 C  
ENDBRANCH   2   5
TORSDOF 1
ENDMDL
MODEL      123
REMARK 921   NORMALIZED FREE ENERGY PREDICTED BY IDOCK:   -2.37 KCAL/MOL
REMARK 922        TOTAL FREE ENERGY PREDICTED BY IDOCK:   -2.55 KCAL/MOL
REMARK 923 INTER-LIGAND FREE ENERGY PREDICTED BY IDOCK:   -2.50 KCAL/MOL
REMARK 924 INTRA-LIGAND FREE ENERGY PREDICTED BY IDOCK:   -0.05 KCAL/MOL
REMARK 927      BINDING AFFINITY PREDICTED BY RF-SCORE:    0.00 PKD
ROOT
HETATM    1  N   UNL     1      -7.186   7.381  69.815  1.00  0.00    -0.079 NA 
HETATM    2  C   UNL     1      -7.949   8.003  68.738  1.00  0.00    -0.119 C  
HETATM    3  H1  UNL     1      -6.923   6.422  69.584  1.00  0.00     0.000 HD 
HETATM    4  H2  UNL     1      -7.687   7.426  70.701  1.00  0.00     0.000 HD 
ENDROOT
BRANCH   2   5
HETATM    5  C   UNL     1      -8.345   9.453  69.086  1.00  0.00    -0.125 C  
HETATM    6  C   UNL     1      -8.826  10.262  67.871  1.00  0.00    -0.122 C  
HETATM    7  C   UNL     1     -10.202   9.824  67.369  1.00  0.00    -0.284 C  
HETATM    8  C   UNL     1     -11.270   9.854  68.469  1.00  0.00    -0.129 C  
HETATM    9  C   UNL     1     -10.805   9.079  69.711  1.00  0.00    -0.215 C  
HETATM   10  C   UNL     1     -11.700  11.279  68.817  1.00  0.00    -0.338 C  
HETATM   11  O   UNL     1     -12.275  11.932  67.781  1.00  0.00    -0.508 OA 
HETATM   12  O   UNL     1     -11.596  11.794  69.918  1.00  0.00    -0.299 OA 
HETATM   13  C   UNL     1      -9.410   9.485  70.194  1.00  0.00    -0.286 C  
ENDBRANCH   2   5
TORSDOF 1
ENDMDL
MODEL      124
REMARK 921   NORMALIZED FREE ENERGY PREDICTED BY IDOCK:   -2.34 KCAL/MOL
REMARK 922        TOTAL FREE ENERGY PREDICTED BY IDOCK:   -2.52 KCAL/MOL
REMARK 923 INTER-LIGAND FREE ENERGY PREDICTED BY IDOCK:   -2.46 KCAL/MOL
REMARK 924 INTRA-LIGAND FREE ENERGY PREDICTED BY IDOCK:   -0.06 KCAL/MOL
REMARK 927      BINDING AFFINITY PREDICTED BY RF-SCORE:    0.00 PKD
ROOT
HETATM    1  N   UNL     1     -12.576  10.707  69.467  1.00  0.00    -0.643 NA 
HETATM    2  C   UNL     1     -11.493  10.430  70.404  1.00  0.00    -0.337 C  
HETATM    3  H1  UNL     1     -12.942  11.652  69.584  1.00  0.00     0.000 HD 
HETATM    4  H2  UNL     1     -13.317  10.010  69.538  1.00  0.00     0.000 HD 
ENDROOT
BRANCH   2   5
HETATM    5  C   UNL     1     -10.940   9.001  70.228  1.00  0.00    -0.274 C  
HETATM    6  C   UNL     1     -10.654   8.634  68.762  1.00  0.00    -0.169 C  
HETATM    7  C   UNL     1      -9.437   9.361  68.191  1.00  0.00    -0.146 C  
HETATM    8  C   UNL     1      -8.173   9.152  69.035  1.00  0.00    -0.115 C  
HETATM    9  C   UNL     1      -8.435   9.480  70.512  1.00  0.00    -0.213 C  
HETATM   10  C   UNL     1      -7.589   7.751  68.859  1.00  0.00    -0.101 C  
HETATM   11  O   UNL     1      -7.187   7.493  67.593  1.00  0.00    -0.085 OA 
HETATM   12  O   UNL     1      -7.439   6.936  69.755  1.00  0.00    -0.089 OA 
HETATM   13  C   UNL     1      -9.678   8.787  71.078  1.00  0.00    -0.292 C  
ENDBRANCH   2   5
TORSDOF 1
ENDMDL
MODEL      125
REMARK 921   NORMALIZED FREE ENERGY PREDICTED BY IDOCK:   -2.34 KCAL/MOL
REMARK 922        TOTAL FREE ENERGY PREDICTED BY IDOCK:   -2.51 KCAL/MOL
REMARK 923 INTER-LIGAND FREE ENERGY PREDICTED BY IDOCK:   -2.47 KCAL/MOL
REMARK 924 INTRA-LIGAND FREE ENERGY PREDICTED BY IDOCK:   -0.05 KCAL/MOL
REMARK 927      BINDING AFFINITY PREDICTED BY RF-SCORE:    0.00 PKD
ROOT
HETATM    1  N   UNL     1      -7.969  10.956  66.381  1.00  0.00    -0.154 NA 
HETATM    2  C   UNL     1      -9.195  11.746  66.429  1.00  0.00    -0.217 C  
HETATM    3  H1  UNL     1      -7.807  10.571  65.450  1.00  0.00     0.000 HD 
HETATM    4  H2  UNL     1      -7.969  10.224  67.091  1.00  0.00     0.000 HD 
ENDROOT
BRANCH   2   5
HETATM    5  C   UNL     1      -9.440  12.328  67.836  1.00  0.00    -0.200 C  
HETATM    6  C   UNL     1      -8.464  13.456  68.208  1.00  0.00    -0.166 C  
HETATM    7  C   UNL     1      -8.725  14.751  67.439  1.00  0.00    -0.210 C  
HETATM    8  C   UNL     1     -10.170  15.245  67.586  1.00  0.00    -0.242 C  
HETATM    9  C   UNL     1     -11.171  14.130  67.251  1.00  0.00    -0.330 C  
HETATM   10  C   UNL     1     -10.434  15.850  68.964  1.00  0.00    -0.234 C  
HETATM   11  O   UNL     1      -9.683  16.946  69.220  1.00  0.00    -0.215 OA 
HETATM   12  O   UNL     1     -11.264  15.445  69.762  1.00  0.00    -0.246 OA 
HETATM   13  C   UNL     1     -10.889  12.817  67.988  1.00  0.00    -0.254 C  
ENDBRANCH   2   5
TORSDOF 1
ENDMDL
MODEL      126
REMARK 921   NORMALIZED FREE ENERGY PREDICTED BY IDOCK:   -2.32 KCAL/MOL
REMARK 922        TOTAL FREE ENERGY PREDICTED BY IDOCK:   -2.49 KCAL/MOL
REMARK 923 INTER-LIGAND FREE ENERGY PREDICTED BY IDOCK:   -2.52 KCAL/MOL
REMARK 924 INTRA-LIGAND FREE ENERGY PREDICTED BY IDOCK:    0.03 KCAL/MOL
REMARK 927      BINDING AFFINITY PREDICTED BY RF-SCORE:    0.00 PKD
ROOT
HETATM    1  N   UNL     1      -9.563   2.523  67.144  1.00  0.00    -0.405 NA 
HETATM    2  C   UNL     1      -9.775   3.881  66.653  1.00  0.00    -0.165 C  
HETATM    3  H1  UNL     1     -10.087   1.839  66.596  1.00  0.00     0.000 HD 
HETATM    4  H2  UNL     1      -9.779   2.448  68.138  1.00  0.00     0.000 HD 
ENDROOT
BRANCH   2   5
HETATM    5  C   UNL     1      -8.983   4.914  67.480  1.00  0.00    -0.114 C  
HETATM    6  C   UNL     1      -9.577   6.331  67.416  1.00  0.00    -0.129 C  
HETATM    7  C   UNL     1     -10.890   6.464  68.187  1.00  0.00    -0.386 C  
HETATM    8  C   UNL     1     -10.764   6.019  69.650  1.00  0.00    -0.405 C  
HETATM    9  C   UNL     1     -10.144   4.618  69.749  1.00  0.00    -0.243 C  
HETATM   10  C   UNL     1     -10.005   7.038  70.498  1.00  0.00    -0.183 C  
HETATM   11  O   UNL     1     -10.622   8.240  70.570  1.00  0.00    -0.211 OA 
HETATM   12  O   UNL     1      -8.969   6.814  71.105  1.00  0.00    -0.146 OA 
HETATM   13  C   UNL     1      -8.850   4.467  68.944  1.00  0.00    -0.134 C  
ENDBRANCH   2   5
TORSDOF 1
ENDMDL
MODEL      127
REMARK 921   NORMALIZED FREE ENERGY PREDICTED BY IDOCK:   -2.32 KCAL/MOL
REMARK 922        TOTAL FREE ENERGY PREDICTED BY IDOCK:   -2.49 KCAL/MOL
REMARK 923 INTER-LIGAND FREE ENERGY PREDICTED BY IDOCK:   -2.44 KCAL/MOL
REMARK 924 INTRA-LIGAND FREE ENERGY PREDICTED BY IDOCK:   -0.05 KCAL/MOL
REMARK 927      BINDING AFFINITY PREDICTED BY RF-SCORE:    0.00 PKD
ROOT
HETATM    1  N   UNL     1      -6.171   9.548  65.336  1.00  0.00    -0.065 NA 
HETATM    2  C   UNL     1      -7.571   9.371  64.966  1.00  0.00    -0.109 C  
HETATM    3  H1  UNL     1      -5.570   9.620  64.514  1.00  0.00     0.000 HD 
HETATM    4  H2  UNL     1      -5.855   8.810  65.965  1.00  0.00     0.000 HD 
ENDROOT
BRANCH   2   5
HETATM    5  C   UNL     1      -8.478   9.263  66.208  1.00  0.00    -0.133 C  
HETATM    6  C   UNL     1      -8.160  10.310  67.289  1.00  0.00    -0.120 C  
HETATM    7  C   UNL     1      -8.579  11.725  66.892  1.00  0.00    -0.177 C  
HETATM    8  C   UNL     1     -10.060  11.815  66.502  1.00  0.00    -0.232 C  
HETATM    9  C   UNL     1     -10.417  10.760  65.445  1.00  0.00    -0.272 C  
HETATM   10  C   UNL     1     -10.982  11.736  67.718  1.00  0.00    -0.225 C  
HETATM   11  O   UNL     1     -10.807  12.757  68.589  1.00  0.00    -0.242 OA 
HETATM   12  O   UNL     1     -11.836  10.882  67.897  1.00  0.00    -0.590 OA 
HETATM   13  C   UNL     1      -9.962   9.346  65.819  1.00  0.00    -0.278 C  
ENDBRANCH   2   5
TORSDOF 1
ENDMDL
MODEL      128
REMARK 921   NORMALIZED FREE ENERGY PREDICTED BY IDOCK:   -2.31 KCAL/MOL
REMARK 922        TOTAL FREE ENERGY PREDICTED BY IDOCK:   -2.48 KCAL/MOL
REMARK 923 INTER-LIGAND FREE ENERGY PREDICTED BY IDOCK:   -2.44 KCAL/MOL
REMARK 924 INTRA-LIGAND FREE ENERGY PREDICTED BY IDOCK:   -0.04 KCAL/MOL
REMARK 927      BINDING AFFINITY PREDICTED BY RF-SCORE:    0.00 PKD
ROOT
HETATM    1  N   UNL     1      -7.878   2.585  70.264  1.00  0.00    -0.042 NA 
HETATM    2  C   UNL     1      -8.315   3.888  69.774  1.00  0.00    -0.056 C  
HETATM    3  H1  UNL     1      -6.919   2.380  69.983  1.00  0.00     0.000 HD 
HETATM    4  H2  UNL     1      -8.518   1.845  69.975  1.00  0.00     0.000 HD 
ENDROOT
BRANCH   2   5
HETATM    5  C   UNL     1      -9.765   4.199  70.199  1.00  0.00    -0.278 C  
HETATM    6  C   UNL     1      -9.902   4.549  71.689  1.00  0.00    -0.258 C  
HETATM    7  C   UNL     1      -9.325   5.921  72.036  1.00  0.00    -0.160 C  
HETATM    8  C   UNL     1      -9.920   7.047  71.180  1.00  0.00    -0.191 C  
HETATM    9  C   UNL     1      -9.826   6.711  69.684  1.00  0.00    -0.168 C  
HETATM   10  C   UNL     1     -11.349   7.392  71.596  1.00  0.00    -0.256 C  
HETATM   11  O   UNL     1     -11.440   7.858  72.864  1.00  0.00    -0.403 OA 
HETATM   12  O   UNL     1     -12.329   7.315  70.873  1.00  0.00    -0.314 OA 
HETATM   13  C   UNL     1     -10.366   5.320  69.338  1.00  0.00    -0.313 C  
ENDBRANCH   2   5
TORSDOF 1
ENDMDL
MODEL      129
REMARK 921   NORMALIZED FREE ENERGY PREDICTED BY IDOCK:   -2.30 KCAL/MOL
REMARK 922        TOTAL FREE ENERGY PREDICTED BY IDOCK:   -2.48 KCAL/MOL
REMARK 923 INTER-LIGAND FREE ENERGY PREDICTED BY IDOCK:   -2.44 KCAL/MOL
REMARK 924 INTRA-LIGAND FREE ENERGY PREDICTED BY IDOCK:   -0.03 KCAL/MOL
REMARK 927      BINDING AFFINITY PREDICTED BY RF-SCORE:    0.00 PKD
ROOT
HETATM    1  N   UNL     1      -7.759   9.566  67.705  1.00  0.00    -0.088 NA 
HETATM    2  C   UNL     1      -9.000   9.375  68.448  1.00  0.00    -0.128 C  
HETATM    3  H1  UNL     1      -7.887  10.197  66.914  1.00  0.00     0.000 HD 
HETATM    4  H2  UNL     1      -7.361   8.675  67.410  1.00  0.00     0.000 HD 
ENDROOT
BRANCH   2   5
HETATM    5  C   UNL     1      -8.807   8.422  69.644  1.00  0.00    -0.141 C  
HETATM    6  C   UNL     1      -9.717   8.750  70.839  1.00  0.00    -0.277 C  
HETATM    7  C   UNL     1     -11.185   8.408  70.584  1.00  0.00    -0.275 C  
HETATM    8  C   UNL     1     -11.387   6.946  70.162  1.00  0.00    -0.364 C  
HETATM    9  C   UNL     1     -10.467   6.579  68.988  1.00  0.00    -0.252 C  
HETATM   10  C   UNL     1     -11.225   5.981  71.335  1.00  0.00    -0.262 C  
HETATM   11  O   UNL     1     -12.139   6.171  72.314  1.00  0.00    -0.311 OA 
HETATM   12  O   UNL     1     -10.399   5.084  71.397  1.00  0.00    -0.209 OA 
HETATM   13  C   UNL     1      -9.002   6.957  69.223  1.00  0.00    -0.137 C  
ENDBRANCH   2   5
TORSDOF 1
ENDMDL
MODEL      130
REMARK 921   NORMALIZED FREE ENERGY PREDICTED BY IDOCK:   -2.28 KCAL/MOL
REMARK 922        TOTAL FREE ENERGY PREDICTED BY IDOCK:   -2.45 KCAL/MOL
REMARK 923 INTER-LIGAND FREE ENERGY PREDICTED BY IDOCK:   -2.43 KCAL/MOL
REMARK 924 INTRA-LIGAND FREE ENERGY PREDICTED BY IDOCK:   -0.03 KCAL/MOL
REMARK 927      BINDING AFFINITY PREDICTED BY RF-SCORE:    0.00 PKD
ROOT
HETATM    1  N   UNL     1      -9.412   2.657  69.193  1.00  0.00    -0.129 NA 
HETATM    2  C   UNL     1      -9.642   4.078  69.430  1.00  0.00    -0.187 C  
HETATM    3  H1  UNL     1      -9.521   2.418  68.207  1.00  0.00     0.000 HD 
HETATM    4  H2  UNL     1     -10.007   2.080  69.785  1.00  0.00     0.000 HD 
ENDROOT
BRANCH   2   5
HETATM    5  C   UNL     1      -9.475   4.441  70.919  1.00  0.00    -0.241 C  
HETATM    6  C   UNL     1      -8.300   5.396  71.186  1.00  0.00    -0.124 C  
HETATM    7  C   UNL     1      -8.562   6.819  70.693  1.00  0.00    -0.142 C  
HETATM    8  C   UNL     1      -9.856   7.413  71.263  1.00  0.00    -0.182 C  
HETATM    9  C   UNL     1     -11.045   6.467  71.039  1.00  0.00    -0.349 C  
HETATM   10  C   UNL     1      -9.711   7.805  72.733  1.00  0.00    -0.232 C  
HETATM   11  O   UNL     1      -8.785   8.770  72.940  1.00  0.00    -0.379 OA 
HETATM   12  O   UNL     1     -10.378   7.352  73.649  1.00  0.00    -0.351 OA 
HETATM   13  C   UNL     1     -10.772   5.030  71.495  1.00  0.00    -0.114 C  
ENDBRANCH   2   5
TORSDOF 1
ENDMDL
MODEL      131
REMARK 921   NORMALIZED FREE ENERGY PREDICTED BY IDOCK:   -2.28 KCAL/MOL
REMARK 922        TOTAL FREE ENERGY PREDICTED BY IDOCK:   -2.45 KCAL/MOL
REMARK 923 INTER-LIGAND FREE ENERGY PREDICTED BY IDOCK:   -2.40 KCAL/MOL
REMARK 924 INTRA-LIGAND FREE ENERGY PREDICTED BY IDOCK:   -0.05 KCAL/MOL
REMARK 927      BINDING AFFINITY PREDICTED BY RF-SCORE:    0.00 PKD
ROOT
HETATM    1  N   UNL     1     -11.303   6.765  72.887  1.00  0.00    -0.467 NA 
HETATM    2  C   UNL     1     -11.702   7.121  71.530  1.00  0.00    -0.290 C  
HETATM    3  H1  UNL     1     -11.695   7.408  73.575  1.00  0.00     0.000 HD 
HETATM    4  H2  UNL     1     -10.289   6.702  72.972  1.00  0.00     0.000 HD 
ENDROOT
BRANCH   2   5
HETATM    5  C   UNL     1     -11.110   6.149  70.489  1.00  0.00    -0.405 C  
HETATM    6  C   UNL     1     -11.318   6.609  69.037  1.00  0.00    -0.235 C  
HETATM    7  C   UNL     1     -10.453   7.810  68.660  1.00  0.00    -0.199 C  
HETATM    8  C   UNL     1      -8.960   7.568  68.920  1.00  0.00    -0.134 C  
HETATM    9  C   UNL     1      -8.722   7.077  70.355  1.00  0.00    -0.147 C  
HETATM   10  C   UNL     1      -8.341   6.627  67.887  1.00  0.00    -0.119 C  
HETATM   11  O   UNL     1      -8.382   7.115  66.626  1.00  0.00    -0.108 OA 
HETATM   12  O   UNL     1      -7.811   5.558  68.141  1.00  0.00    -0.091 OA 
HETATM   13  C   UNL     1      -9.617   5.899  70.751  1.00  0.00    -0.203 C  
ENDBRANCH   2   5
TORSDOF 1
ENDMDL
MODEL      132
REMARK 921   NORMALIZED FREE ENERGY PREDICTED BY IDOCK:   -2.27 KCAL/MOL
REMARK 922        TOTAL FREE ENERGY PREDICTED BY IDOCK:   -2.44 KCAL/MOL
REMARK 923 INTER-LIGAND FREE ENERGY PREDICTED BY IDOCK:   -2.41 KCAL/MOL
REMARK 924 INTRA-LIGAND FREE ENERGY PREDICTED BY IDOCK:   -0.03 KCAL/MOL
REMARK 927      BINDING AFFINITY PREDICTED BY RF-SCORE:    0.00 PKD
ROOT
HETATM    1  N   UNL     1      -7.851   6.396  64.746  1.00  0.00    -0.106 NA 
HETATM    2  C   UNL     1      -8.783   5.986  65.791  1.00  0.00    -0.151 C  
HETATM    3  H1  UNL     1      -7.599   5.614  64.139  1.00  0.00     0.000 HD 
HETATM    4  H2  UNL     1      -7.024   6.844  65.139  1.00  0.00     0.000 HD 
ENDROOT
BRANCH   2   5
HETATM    5  C   UNL     1      -9.165   7.167  66.707  1.00  0.00    -0.188 C  
HETATM    6  C   UNL     1     -10.663   7.214  67.049  1.00  0.00    -0.420 C  
HETATM    7  C   UNL     1     -11.091   6.106  68.011  1.00  0.00    -0.316 C  
HETATM    8  C   UNL     1     -10.263   6.091  69.302  1.00  0.00    -0.263 C  
HETATM    9  C   UNL     1      -8.759   6.076  68.993  1.00  0.00    -0.122 C  
HETATM   10  C   UNL     1     -10.639   7.237  70.240  1.00  0.00    -0.229 C  
HETATM   11  O   UNL     1     -11.921   7.179  70.669  1.00  0.00    -0.319 OA 
HETATM   12  O   UNL     1      -9.876   8.108  70.625  1.00  0.00    -0.180 OA 
HETATM   13  C   UNL     1      -8.332   7.158  67.998  1.00  0.00    -0.119 C  
ENDBRANCH   2   5
TORSDOF 1
ENDMDL
MODEL      133
REMARK 921   NORMALIZED FREE ENERGY PREDICTED BY IDOCK:   -2.25 KCAL/MOL
REMARK 922        TOTAL FREE ENERGY PREDICTED BY IDOCK:   -2.42 KCAL/MOL
REMARK 923 INTER-LIGAND FREE ENERGY PREDICTED BY IDOCK:   -2.40 KCAL/MOL
REMARK 924 INTRA-LIGAND FREE ENERGY PREDICTED BY IDOCK:   -0.03 KCAL/MOL
REMARK 927      BINDING AFFINITY PREDICTED BY RF-SCORE:    0.00 PKD
ROOT
HETATM    1  N   UNL     1     -12.894   8.309  72.849  1.00  0.00    -0.627 NA 
HETATM    2  C   UNL     1     -11.703   7.802  72.177  1.00  0.00    -0.320 C  
HETATM    3  H1  UNL     1     -13.741   7.850  72.511  1.00  0.00     0.000 HD 
HETATM    4  H2  UNL     1     -12.963   9.323  72.770  1.00  0.00     0.000 HD 
ENDROOT
BRANCH   2   5
HETATM    5  C   UNL     1     -10.423   8.495  72.688  1.00  0.00    -0.225 C  
HETATM    6  C   UNL     1      -9.558   7.592  73.583  1.00  0.00    -0.333 C  
HETATM    7  C   UNL     1      -8.852   6.481  72.807  1.00  0.00    -0.127 C  
HETATM    8  C   UNL     1      -8.012   7.016  71.640  1.00  0.00    -0.099 C  
HETATM    9  C   UNL     1      -8.841   7.947  70.744  1.00  0.00    -0.139 C  
HETATM   10  C   UNL     1      -6.724   7.686  72.118  1.00  0.00    -0.056 C  
HETATM   11  O   UNL     1      -5.889   6.840  72.765  1.00  0.00    -0.041 OA 
HETATM   12  O   UNL     1      -6.421   8.851  71.913  1.00  0.00    -0.090 OA 
HETATM   13  C   UNL     1      -9.584   9.038  71.522  1.00  0.00    -0.340 C  
ENDBRANCH   2   5
TORSDOF 1
ENDMDL
MODEL      134
REMARK 921   NORMALIZED FREE ENERGY PREDICTED BY IDOCK:   -2.25 KCAL/MOL
REMARK 922        TOTAL FREE ENERGY PREDICTED BY IDOCK:   -2.42 KCAL/MOL
REMARK 923 INTER-LIGAND FREE ENERGY PREDICTED BY IDOCK:   -2.38 KCAL/MOL
REMARK 924 INTRA-LIGAND FREE ENERGY PREDICTED BY IDOCK:   -0.04 KCAL/MOL
REMARK 927      BINDING AFFINITY PREDICTED BY RF-SCORE:    0.00 PKD
ROOT
HETATM    1  N   UNL     1     -11.257   6.352  66.876  1.00  0.00    -0.737 NA 
HETATM    2  C   UNL     1     -10.629   6.674  68.153  1.00  0.00    -0.241 C  
HETATM    3  H1  UNL     1     -11.217   7.139  66.228  1.00  0.00     0.000 HD 
HETATM    4  H2  UNL     1     -12.214   6.023  67.004  1.00  0.00     0.000 HD 
ENDROOT
BRANCH   2   5
HETATM    5  C   UNL     1     -10.689   5.483  69.132  1.00  0.00    -0.260 C  
HETATM    6  C   UNL     1      -9.614   4.417  68.862  1.00  0.00    -0.233 C  
HETATM    7  C   UNL     1      -8.207   4.879  69.239  1.00  0.00    -0.081 C  
HETATM    8  C   UNL     1      -8.111   5.357  70.693  1.00  0.00    -0.110 C  
HETATM    9  C   UNL     1      -9.193   6.401  71.003  1.00  0.00    -0.157 C  
HETATM   10  C   UNL     1      -8.143   4.195  71.685  1.00  0.00    -0.086 C  
HETATM   11  O   UNL     1      -7.098   3.345  71.547  1.00  0.00    -0.031 OA 
HETATM   12  O   UNL     1      -8.981   4.040  72.559  1.00  0.00    -0.107 OA 
HETATM   13  C   UNL     1     -10.600   5.960  70.589  1.00  0.00    -0.334 C  
ENDBRANCH   2   5
TORSDOF 1
ENDMDL
MODEL      135
REMARK 921   NORMALIZED FREE ENERGY PREDICTED BY IDOCK:   -2.24 KCAL/MOL
REMARK 922        TOTAL FREE ENERGY PREDICTED BY IDOCK:   -2.41 KCAL/MOL
REMARK 923 INTER-LIGAND FREE ENERGY PREDICTED BY IDOCK:   -2.35 KCAL/MOL
REMARK 924 INTRA-LIGAND FREE ENERGY PREDICTED BY IDOCK:   -0.06 KCAL/MOL
REMARK 927      BINDING AFFINITY PREDICTED BY RF-SCORE:    0.00 PKD
ROOT
HETATM    1  N   UNL     1      -6.923   4.501  72.563  1.00  0.00    -0.059 NA 
HETATM    2  C   UNL     1      -8.325   4.424  72.168  1.00  0.00    -0.108 C  
HETATM    3  H1  UNL     1      -6.352   3.821  72.061  1.00  0.00     0.000 HD 
HETATM    4  H2  UNL     1      -6.815   4.405  73.573  1.00  0.00     0.000 HD 
ENDROOT
BRANCH   2   5
HETATM    5  C   UNL     1      -9.187   5.453  72.927  1.00  0.00    -0.139 C  
HETATM    6  C   UNL     1      -8.682   6.898  72.781  1.00  0.00    -0.133 C  
HETATM    7  C   UNL     1      -8.917   7.475  71.385  1.00  0.00    -0.140 C  
HETATM    8  C   UNL     1     -10.386   7.391  70.950  1.00  0.00    -0.206 C  
HETATM    9  C   UNL     1     -10.929   5.964  71.114  1.00  0.00    -0.327 C  
HETATM   10  C   UNL     1     -11.259   8.418  71.669  1.00  0.00    -0.278 C  
HETATM   11  O   UNL     1     -10.909   9.698  71.404  1.00  0.00    -0.340 OA 
HETATM   12  O   UNL     1     -12.215   8.151  72.380  1.00  0.00    -0.344 OA 
HETATM   13  C   UNL     1     -10.660   5.366  72.497  1.00  0.00    -0.277 C  
ENDBRANCH   2   5
TORSDOF 1
ENDMDL
MODEL      136
REMARK 921   NORMALIZED FREE ENERGY PREDICTED BY IDOCK:   -2.23 KCAL/MOL
REMARK 922        TOTAL FREE ENERGY PREDICTED BY IDOCK:   -2.41 KCAL/MOL
REMARK 923 INTER-LIGAND FREE ENERGY PREDICTED BY IDOCK:   -2.35 KCAL/MOL
REMARK 924 INTRA-LIGAND FREE ENERGY PREDICTED BY IDOCK:   -0.06 KCAL/MOL
REMARK 927      BINDING AFFINITY PREDICTED BY RF-SCORE:    0.00 PKD
ROOT
HETATM    1  N   UNL     1      -7.326   8.711  71.934  1.00  0.00    -0.212 NA 
HETATM    2  C   UNL     1      -8.627   8.278  71.436  1.00  0.00    -0.149 C  
HETATM    3  H1  UNL     1      -6.801   7.936  72.340  1.00  0.00     0.000 HD 
HETATM    4  H2  UNL     1      -7.418   9.484  72.593  1.00  0.00     0.000 HD 
ENDROOT
BRANCH   2   5
HETATM    5  C   UNL     1      -9.420   9.449  70.821  1.00  0.00    -0.307 C  
HETATM    6  C   UNL     1      -8.604  10.275  69.813  1.00  0.00    -0.078 C  
HETATM    7  C   UNL     1      -8.350   9.535  68.501  1.00  0.00    -0.118 C  
HETATM    8  C   UNL     1      -9.643   9.038  67.842  1.00  0.00    -0.170 C  
HETATM    9  C   UNL     1     -10.496   8.235  68.834  1.00  0.00    -0.209 C  
HETATM   10  C   UNL     1     -10.437  10.177  67.202  1.00  0.00    -0.246 C  
HETATM   11  O   UNL     1      -9.772  10.796  66.200  1.00  0.00    -0.193 OA 
HETATM   12  O   UNL     1     -11.576  10.494  67.505  1.00  0.00    -0.421 OA 
HETATM   13  C   UNL     1     -10.719   8.956  70.167  1.00  0.00    -0.245 C  
ENDBRANCH   2   5
TORSDOF 1
ENDMDL
MODEL      137
REMARK 921   NORMALIZED FREE ENERGY PREDICTED BY IDOCK:   -2.22 KCAL/MOL
REMARK 922        TOTAL FREE ENERGY PREDICTED BY IDOCK:   -2.39 KCAL/MOL
REMARK 923 INTER-LIGAND FREE ENERGY PREDICTED BY IDOCK:   -2.36 KCAL/MOL
REMARK 924 INTRA-LIGAND FREE ENERGY PREDICTED BY IDOCK:   -0.03 KCAL/MOL
REMARK 927      BINDING AFFINITY PREDICTED BY RF-SCORE:    0.00 PKD
ROOT
HETATM    1  N   UNL     1     -12.061  11.401  68.549  1.00  0.00    -0.567 NA 
HETATM    2  C   UNL     1     -11.271  10.757  67.506  1.00  0.00    -0.274 C  
HETATM    3  H1  UNL     1     -12.545  12.228  68.199  1.00  0.00     0.000 HD 
HETATM    4  H2  UNL     1     -11.491  11.622  69.366  1.00  0.00     0.000 HD 
ENDROOT
BRANCH   2   5
HETATM    5  C   UNL     1     -10.539   9.507  68.035  1.00  0.00    -0.282 C  
HETATM    6  C   UNL     1     -10.373   8.404  66.977  1.00  0.00    -0.385 C  
HETATM    7  C   UNL     1      -9.348   8.758  65.900  1.00  0.00    -0.284 C  
HETATM    8  C   UNL     1      -7.979   9.128  66.485  1.00  0.00    -0.100 C  
HETATM    9  C   UNL     1      -8.115  10.208  67.568  1.00  0.00    -0.113 C  
HETATM   10  C   UNL     1      -7.221   7.904  66.995  1.00  0.00    -0.090 C  
HETATM   11  O   UNL     1      -6.933   7.009  66.022  1.00  0.00    -0.062 OA 
HETATM   12  O   UNL     1      -6.852   7.736  68.146  1.00  0.00    -0.064 OA 
HETATM   13  C   UNL     1      -9.170   9.877  68.628  1.00  0.00    -0.139 C  
ENDBRANCH   2   5
TORSDOF 1
ENDMDL
MODEL      138
REMARK 921   NORMALIZED FREE ENERGY PREDICTED BY IDOCK:   -2.22 KCAL/MOL
REMARK 922        TOTAL FREE ENERGY PREDICTED BY IDOCK:   -2.39 KCAL/MOL
REMARK 923 INTER-LIGAND FREE ENERGY PREDICTED BY IDOCK:   -2.50 KCAL/MOL
REMARK 924 INTRA-LIGAND FREE ENERGY PREDICTED BY IDOCK:    0.11 KCAL/MOL
REMARK 927      BINDING AFFINITY PREDICTED BY RF-SCORE:    0.00 PKD
ROOT
HETATM    1  N   UNL     1      -6.762   9.759  66.705  1.00  0.00    -0.078 NA 
HETATM    2  C   UNL     1      -7.889  10.208  65.895  1.00  0.00    -0.132 C  
HETATM    3  H1  UNL     1      -5.873  10.089  66.328  1.00  0.00     0.000 HD 
HETATM    4  H2  UNL     1      -6.765   8.745  66.818  1.00  0.00     0.000 HD 
ENDROOT
BRANCH   2   5
HETATM    5  C   UNL     1      -9.233   9.709  66.464  1.00  0.00    -0.197 C  
HETATM    6  C   UNL     1      -9.171   9.365  67.961  1.00  0.00    -0.137 C  
HETATM    7  C   UNL     1      -9.056  10.601  68.853  1.00  0.00    -0.181 C  
HETATM    8  C   UNL     1     -10.174  11.620  68.599  1.00  0.00    -0.215 C  
HETATM    9  C   UNL     1     -10.281  11.961  67.106  1.00  0.00    -0.230 C  
HETATM   10  C   UNL     1     -11.513  11.162  69.175  1.00  0.00    -0.298 C  
HETATM   11  O   UNL     1     -11.495  11.019  70.521  1.00  0.00    -0.294 OA 
HETATM   12  O   UNL     1     -12.530  10.980  68.527  1.00  0.00    -0.440 OA 
HETATM   13  C   UNL     1     -10.356  10.725  66.204  1.00  0.00    -0.300 C  
ENDBRANCH   2   5
TORSDOF 1
ENDMDL
MODEL      139
REMARK 921   NORMALIZED FREE ENERGY PREDICTED BY IDOCK:   -2.21 KCAL/MOL
REMARK 922        TOTAL FREE ENERGY PREDICTED BY IDOCK:   -2.38 KCAL/MOL
REMARK 923 INTER-LIGAND FREE ENERGY PREDICTED BY IDOCK:   -2.35 KCAL/MOL
REMARK 924 INTRA-LIGAND FREE ENERGY PREDICTED BY IDOCK:   -0.03 KCAL/MOL
REMARK 927      BINDING AFFINITY PREDICTED BY RF-SCORE:    0.00 PKD
ROOT
HETATM    1  N   UNL     1      -9.434   3.529  69.621  1.00  0.00    -0.174 NA 
HETATM    2  C   UNL     1      -9.611   4.519  68.565  1.00  0.00    -0.149 C  
HETATM    3  H1  UNL     1      -9.232   2.604  69.240  1.00  0.00     0.000 HD 
HETATM    4  H2  UNL     1     -10.237   3.506  70.250  1.00  0.00     0.000 HD 
ENDROOT
BRANCH   2   5
HETATM    5  C   UNL     1      -9.914   5.917  69.141  1.00  0.00    -0.214 C  
HETATM    6  C   UNL     1      -8.728   6.889  69.039  1.00  0.00    -0.131 C  
HETATM    7  C   UNL     1      -8.454   7.350  67.608  1.00  0.00    -0.120 C  
HETATM    8  C   UNL     1      -9.690   7.965  66.938  1.00  0.00    -0.285 C  
HETATM    9  C   UNL     1     -10.902   7.030  67.051  1.00  0.00    -0.413 C  
HETATM   10  C   UNL     1      -9.998   9.363  67.473  1.00  0.00    -0.199 C  
HETATM   11  O   UNL     1      -9.012  10.258  67.233  1.00  0.00    -0.132 OA 
HETATM   12  O   UNL     1     -11.037   9.690  68.024  1.00  0.00    -0.188 OA 
HETATM   13  C   UNL     1     -11.156   6.533  68.477  1.00  0.00    -0.347 C  
ENDBRANCH   2   5
TORSDOF 1
ENDMDL
MODEL      140
REMARK 921   NORMALIZED FREE ENERGY PREDICTED BY IDOCK:   -2.20 KCAL/MOL
REMARK 922        TOTAL FREE ENERGY PREDICTED BY IDOCK:   -2.36 KCAL/MOL
REMARK 923 INTER-LIGAND FREE ENERGY PREDICTED BY IDOCK:   -2.34 KCAL/MOL
REMARK 924 INTRA-LIGAND FREE ENERGY PREDICTED BY IDOCK:   -0.03 KCAL/MOL
REMARK 927      BINDING AFFINITY PREDICTED BY RF-SCORE:    0.00 PKD
ROOT
HETATM    1  N   UNL     1      -8.939  17.237  68.367  1.00  0.00    -0.262 NA 
HETATM    2  C   UNL     1      -7.709  17.873  67.909  1.00  0.00    -0.224 C  
HETATM    3  H1  UNL     1      -8.994  17.214  69.386  1.00  0.00     0.000 HD 
HETATM    4  H2  UNL     1      -9.047  16.305  67.968  1.00  0.00     0.000 HD 
ENDROOT
BRANCH   2   5
HETATM    5  C   UNL     1      -7.626  17.908  66.369  1.00  0.00    -0.308 C  
HETATM    6  C   UNL     1      -8.107  19.236  65.762  1.00  0.00     0.029 C  
HETATM    7  C   UNL     1      -7.140  20.393  66.012  1.00  0.00    -0.255 C  
HETATM    8  C   UNL     1      -5.715  20.086  65.530  1.00  0.00    -0.201 C  
HETATM    9  C   UNL     1      -5.217  18.748  66.096  1.00  0.00    -0.169 C  
HETATM   10  C   UNL     1      -5.599  20.139  64.008  1.00  0.00    -0.231 C  
HETATM   11  O   UNL     1      -5.866  21.361  63.492  1.00  0.00    -0.261 OA 
HETATM   12  O   UNL     1      -5.255  19.208  63.297  1.00  0.00    -0.251 OA 
HETATM   13  C   UNL     1      -6.202  17.595  65.884  1.00  0.00    -0.203 C  
ENDBRANCH   2   5
TORSDOF 1
ENDMDL
MODEL      141
REMARK 921   NORMALIZED FREE ENERGY PREDICTED BY IDOCK:   -2.19 KCAL/MOL
REMARK 922        TOTAL FREE ENERGY PREDICTED BY IDOCK:   -2.36 KCAL/MOL
REMARK 923 INTER-LIGAND FREE ENERGY PREDICTED BY IDOCK:   -2.32 KCAL/MOL
REMARK 924 INTRA-LIGAND FREE ENERGY PREDICTED BY IDOCK:   -0.04 KCAL/MOL
REMARK 927      BINDING AFFINITY PREDICTED BY RF-SCORE:    0.00 PKD
ROOT
HETATM    1  N   UNL     1     -12.260   8.294  71.321  1.00  0.00    -0.331 NA 
HETATM    2  C   UNL     1     -11.722   7.495  72.417  1.00  0.00    -0.290 C  
HETATM    3  H1  UNL     1     -12.494   9.240  71.624  1.00  0.00     0.000 HD 
HETATM    4  H2  UNL     1     -13.058   7.835  70.882  1.00  0.00     0.000 HD 
ENDROOT
BRANCH   2   5
HETATM    5  C   UNL     1     -11.368   6.065  71.958  1.00  0.00    -0.345 C  
HETATM    6  C   UNL     1     -10.039   5.983  71.190  1.00  0.00    -0.241 C  
HETATM    7  C   UNL     1      -8.817   6.183  72.086  1.00  0.00    -0.138 C  
HETATM    8  C   UNL     1      -8.792   5.214  73.275  1.00  0.00    -0.118 C  
HETATM    9  C   UNL     1     -10.120   5.250  74.046  1.00  0.00    -0.240 C  
HETATM   10  C   UNL     1      -8.419   3.794  72.852  1.00  0.00    -0.094 C  
HETATM   11  O   UNL     1      -7.176   3.702  72.325  1.00  0.00    -0.045 OA 
HETATM   12  O   UNL     1      -9.123   2.808  73.004  1.00  0.00    -0.084 OA 
HETATM   13  C   UNL     1     -11.349   5.092  73.147  1.00  0.00    -0.397 C  
ENDBRANCH   2   5
TORSDOF 1
ENDMDL
MODEL      142
REMARK 921   NORMALIZED FREE ENERGY PREDICTED BY IDOCK:   -2.18 KCAL/MOL
REMARK 922        TOTAL FREE ENERGY PREDICTED BY IDOCK:   -2.35 KCAL/MOL
REMARK 923 INTER-LIGAND FREE ENERGY PREDICTED BY IDOCK:   -2.30 KCAL/MOL
REMARK 924 INTRA-LIGAND FREE ENERGY PREDICTED BY IDOCK:   -0.05 KCAL/MOL
REMARK 927      BINDING AFFINITY PREDICTED BY RF-SCORE:    0.00 PKD
ROOT
HETATM    1  N   UNL     1     -11.360   8.417  69.733  1.00  0.00    -0.445 NA 
HETATM    2  C   UNL     1      -9.970   8.650  69.356  1.00  0.00    -0.197 C  
HETATM    3  H1  UNL     1     -11.649   9.025  70.499  1.00  0.00     0.000 HD 
HETATM    4  H2  UNL     1     -11.527   7.435  69.954  1.00  0.00     0.000 HD 
ENDROOT
BRANCH   2   5
HETATM    5  C   UNL     1      -9.533   7.730  68.198  1.00  0.00    -0.152 C  
HETATM    6  C   UNL     1     -10.308   7.982  66.894  1.00  0.00    -0.408 C  
HETATM    7  C   UNL     1      -9.929   9.300  66.219  1.00  0.00    -0.357 C  
HETATM    8  C   UNL     1      -8.421   9.420  65.960  1.00  0.00    -0.132 C  
HETATM    9  C   UNL     1      -7.618   9.142  67.239  1.00  0.00    -0.088 C  
HETATM   10  C   UNL     1      -7.965   8.537  64.799  1.00  0.00    -0.143 C  
HETATM   11  O   UNL     1      -8.531   8.873  63.617  1.00  0.00    -0.187 OA 
HETATM   12  O   UNL     1      -7.139   7.642  64.880  1.00  0.00    -0.060 OA 
HETATM   13  C   UNL     1      -8.022   7.843  67.941  1.00  0.00    -0.128 C  
ENDBRANCH   2   5
TORSDOF 1
ENDMDL
MODEL      143
REMARK 921   NORMALIZED FREE ENERGY PREDICTED BY IDOCK:   -2.18 KCAL/MOL
REMARK 922        TOTAL FREE ENERGY PREDICTED BY IDOCK:   -2.35 KCAL/MOL
REMARK 923 INTER-LIGAND FREE ENERGY PREDICTED BY IDOCK:   -2.30 KCAL/MOL
REMARK 924 INTRA-LIGAND FREE ENERGY PREDICTED BY IDOCK:   -0.05 KCAL/MOL
REMARK 927      BINDING AFFINITY PREDICTED BY RF-SCORE:    0.00 PKD
ROOT
HETATM    1  N   UNL     1     -10.452   6.146  70.436  1.00  0.00    -0.214 NA 
HETATM    2  C   UNL     1     -11.022   7.090  69.480  1.00  0.00    -0.220 C  
HETATM    3  H1  UNL     1     -11.176   5.690  70.991  1.00  0.00     0.000 HD 
HETATM    4  H2  UNL     1      -9.754   6.594  71.029  1.00  0.00     0.000 HD 
ENDROOT
BRANCH   2   5
HETATM    5  C   UNL     1      -9.927   7.779  68.640  1.00  0.00    -0.191 C  
HETATM    6  C   UNL     1     -10.489   8.655  67.507  1.00  0.00    -0.335 C  
HETATM    7  C   UNL     1     -11.149   9.937  68.014  1.00  0.00    -0.220 C  
HETATM    8  C   UNL     1     -10.216  10.770  68.903  1.00  0.00    -0.219 C  
HETATM    9  C   UNL     1      -9.614   9.915  70.027  1.00  0.00    -0.260 C  
HETATM   10  C   UNL     1      -9.136  11.486  68.092  1.00  0.00    -0.181 C  
HETATM   11  O   UNL     1      -9.635  12.379  67.207  1.00  0.00    -0.193 OA 
HETATM   12  O   UNL     1      -7.934  11.330  68.233  1.00  0.00    -0.119 OA 
HETATM   13  C   UNL     1      -8.988   8.609  69.528  1.00  0.00    -0.145 C  
ENDBRANCH   2   5
TORSDOF 1
ENDMDL
MODEL      144
REMARK 921   NORMALIZED FREE ENERGY PREDICTED BY IDOCK:   -2.15 KCAL/MOL
REMARK 922        TOTAL FREE ENERGY PREDICTED BY IDOCK:   -2.31 KCAL/MOL
REMARK 923 INTER-LIGAND FREE ENERGY PREDICTED BY IDOCK:   -2.68 KCAL/MOL
REMARK 924 INTRA-LIGAND FREE ENERGY PREDICTED BY IDOCK:    0.37 KCAL/MOL
REMARK 927      BINDING AFFINITY PREDICTED BY RF-SCORE:    0.00 PKD
ROOT
HETATM    1  N   UNL     1      -5.315  14.810  67.458  1.00  0.00    -0.341 NA 
HETATM    2  C   UNL     1      -6.653  14.660  68.021  1.00  0.00    -0.146 C  
HETATM    3  H1  UNL     1      -4.932  13.914  67.154  1.00  0.00     0.000 HD 
HETATM    4  H2  UNL     1      -4.688  15.283  68.108  1.00  0.00     0.000 HD 
ENDROOT
BRANCH   2   5
HETATM    5  C   UNL     1      -7.232  16.014  68.479  1.00  0.00    -0.138 C  
HETATM    6  C   UNL     1      -6.293  17.202  68.211  1.00  0.00    -0.149 C  
HETATM    7  C   UNL     1      -6.186  17.555  66.727  1.00  0.00    -0.218 C  
HETATM    8  C   UNL     1      -7.552  17.815  66.081  1.00  0.00    -0.302 C  
HETATM    9  C   UNL     1      -8.524  16.659  66.359  1.00  0.00    -0.348 C  
HETATM   10  C   UNL     1      -8.138  19.163  66.499  1.00  0.00    -0.298 C  
HETATM   11  O   UNL     1      -7.384  20.218  66.112  1.00  0.00    -0.276 OA 
HETATM   12  O   UNL     1      -9.201  19.317  67.079  1.00  0.00    -0.292 OA 
HETATM   13  C   UNL     1      -8.604  16.274  67.839  1.00  0.00    -0.173 C  
ENDBRANCH   2   5
TORSDOF 1
ENDMDL
MODEL      145
REMARK 921   NORMALIZED FREE ENERGY PREDICTED BY IDOCK:   -2.13 KCAL/MOL
REMARK 922        TOTAL FREE ENERGY PREDICTED BY IDOCK:   -2.29 KCAL/MOL
REMARK 923 INTER-LIGAND FREE ENERGY PREDICTED BY IDOCK:   -2.26 KCAL/MOL
REMARK 924 INTRA-LIGAND FREE ENERGY PREDICTED BY IDOCK:   -0.03 KCAL/MOL
REMARK 927      BINDING AFFINITY PREDICTED BY RF-SCORE:    0.00 PKD
ROOT
HETATM    1  N   UNL     1      -8.011  10.274  70.321  1.00  0.00    -0.416 NA 
HETATM    2  C   UNL     1      -9.041   9.507  69.629  1.00  0.00    -0.196 C  
HETATM    3  H1  UNL     1      -8.416  10.926  70.994  1.00  0.00     0.000 HD 
HETATM    4  H2  UNL     1      -7.398  10.752  69.662  1.00  0.00     0.000 HD 
ENDROOT
BRANCH   2   5
HETATM    5  C   UNL     1      -8.430   8.521  68.613  1.00  0.00    -0.131 C  
HETATM    6  C   UNL     1      -8.329   7.082  69.144  1.00  0.00    -0.125 C  
HETATM    7  C   UNL     1      -9.688   6.390  69.257  1.00  0.00    -0.150 C  
HETATM    8  C   UNL     1     -10.470   6.404  67.937  1.00  0.00    -0.276 C  
HETATM    9  C   UNL     1     -10.561   7.826  67.364  1.00  0.00    -0.345 C  
HETATM   10  C   UNL     1      -9.899   5.417  66.920  1.00  0.00    -0.166 C  
HETATM   11  O   UNL     1      -9.965   4.129  67.329  1.00  0.00    -0.168 OA 
HETATM   12  O   UNL     1      -9.465   5.716  65.819  1.00  0.00    -0.122 OA 
HETATM   13  C   UNL     1      -9.207   8.538  67.288  1.00  0.00    -0.168 C  
ENDBRANCH   2   5
TORSDOF 1
ENDMDL
MODEL      146
REMARK 921   NORMALIZED FREE ENERGY PREDICTED BY IDOCK:   -2.11 KCAL/MOL
REMARK 922        TOTAL FREE ENERGY PREDICTED BY IDOCK:   -2.28 KCAL/MOL
REMARK 923 INTER-LIGAND FREE ENERGY PREDICTED BY IDOCK:   -2.24 KCAL/MOL
REMARK 924 INTRA-LIGAND FREE ENERGY PREDICTED BY IDOCK:   -0.04 KCAL/MOL
REMARK 927      BINDING AFFINITY PREDICTED BY RF-SCORE:    0.00 PKD
ROOT
HETATM    1  N   UNL     1      -9.164  17.484  66.023  1.00  0.00    -0.515 NA 
HETATM    2  C   UNL     1      -8.932  16.060  66.241  1.00  0.00    -0.345 C  
HETATM    3  H1  UNL     1      -9.291  17.697  65.033  1.00  0.00     0.000 HD 
HETATM    4  H2  UNL     1      -8.421  18.049  66.434  1.00  0.00     0.000 HD 
ENDROOT
BRANCH   2   5
HETATM    5  C   UNL     1      -8.742  15.737  67.737  1.00  0.00    -0.173 C  
HETATM    6  C   UNL     1      -9.069  14.277  68.093  1.00  0.00    -0.193 C  
HETATM    7  C   UNL     1      -8.028  13.288  67.570  1.00  0.00    -0.186 C  
HETATM    8  C   UNL     1      -6.605  13.629  68.030  1.00  0.00    -0.136 C  
HETATM    9  C   UNL     1      -6.259  15.092  67.717  1.00  0.00    -0.168 C  
HETATM   10  C   UNL     1      -6.381  13.295  69.504  1.00  0.00    -0.104 C  
HETATM   11  O   UNL     1      -6.510  11.977  69.780  1.00  0.00    -0.127 OA 
HETATM   12  O   UNL     1      -6.068  14.100  70.367  1.00  0.00    -0.158 OA 
HETATM   13  C   UNL     1      -7.319  16.084  68.202  1.00  0.00    -0.133 C  
ENDBRANCH   2   5
TORSDOF 1
ENDMDL
MODEL      147
REMARK 921   NORMALIZED FREE ENERGY PREDICTED BY IDOCK:   -2.10 KCAL/MOL
REMARK 922        TOTAL FREE ENERGY PREDICTED BY IDOCK:   -2.26 KCAL/MOL
REMARK 923 INTER-LIGAND FREE ENERGY PREDICTED BY IDOCK:   -2.22 KCAL/MOL
REMARK 924 INTRA-LIGAND FREE ENERGY PREDICTED BY IDOCK:   -0.04 KCAL/MOL
REMARK 927      BINDING AFFINITY PREDICTED BY RF-SCORE:    0.00 PKD
ROOT
HETATM    1  N   UNL     1      -6.181   5.502  69.395  1.00  0.00    -0.028 NA 
HETATM    2  C   UNL     1      -7.500   5.131  69.896  1.00  0.00    -0.061 C  
HETATM    3  H1  UNL     1      -5.456   4.874  69.743  1.00  0.00     0.000 HD 
HETATM    4  H2  UNL     1      -5.963   6.476  69.605  1.00  0.00     0.000 HD 
ENDROOT
BRANCH   2   5
HETATM    5  C   UNL     1      -8.596   6.080  69.369  1.00  0.00    -0.122 C  
HETATM    6  C   UNL     1      -9.999   5.452  69.372  1.00  0.00    -0.280 C  
HETATM    7  C   UNL     1     -10.577   5.287  70.777  1.00  0.00    -0.256 C  
HETATM    8  C   UNL     1     -10.594   6.602  71.567  1.00  0.00    -0.251 C  
HETATM    9  C   UNL     1      -9.212   7.270  71.557  1.00  0.00    -0.150 C  
HETATM   10  C   UNL     1     -11.688   7.552  71.082  1.00  0.00    -0.291 C  
HETATM   11  O   UNL     1     -12.937   7.055  71.240  1.00  0.00    -0.378 OA 
HETATM   12  O   UNL     1     -11.498   8.672  70.635  1.00  0.00    -0.269 OA 
HETATM   13  C   UNL     1      -8.610   7.400  70.154  1.00  0.00    -0.139 C  
ENDBRANCH   2   5
TORSDOF 1
ENDMDL
MODEL      148
REMARK 921   NORMALIZED FREE ENERGY PREDICTED BY IDOCK:   -2.09 KCAL/MOL
REMARK 922        TOTAL FREE ENERGY PREDICTED BY IDOCK:   -2.26 KCAL/MOL
REMARK 923 INTER-LIGAND FREE ENERGY PREDICTED BY IDOCK:   -2.23 KCAL/MOL
REMARK 924 INTRA-LIGAND FREE ENERGY PREDICTED BY IDOCK:   -0.03 KCAL/MOL
REMARK 927      BINDING AFFINITY PREDICTED BY RF-SCORE:    0.00 PKD
ROOT
HETATM    1  N   UNL     1      -5.829   9.261  65.811  1.00  0.00    -0.053 NA 
HETATM    2  C   UNL     1      -6.698   9.844  66.828  1.00  0.00    -0.079 C  
HETATM    3  H1  UNL     1      -5.108   8.671  66.227  1.00  0.00     0.000 HD 
HETATM    4  H2  UNL     1      -5.423   9.979  65.212  1.00  0.00     0.000 HD 
ENDROOT
BRANCH   2   5
HETATM    5  C   UNL     1      -7.789  10.736  66.200  1.00  0.00    -0.155 C  
HETATM    6  C   UNL     1      -9.173  10.067  66.157  1.00  0.00    -0.205 C  
HETATM    7  C   UNL     1      -9.822   9.947  67.535  1.00  0.00    -0.209 C  
HETATM    8  C   UNL     1      -9.918  11.294  68.263  1.00  0.00    -0.201 C  
HETATM    9  C   UNL     1      -8.556  12.002  68.295  1.00  0.00    -0.174 C  
HETATM   10  C   UNL     1     -11.010  12.188  67.676  1.00  0.00    -0.243 C  
HETATM   11  O   UNL     1     -12.251  11.662  67.790  1.00  0.00    -0.560 OA 
HETATM   12  O   UNL     1     -10.826  13.293  67.190  1.00  0.00    -0.255 OA 
HETATM   13  C   UNL     1      -7.882  12.088  66.923  1.00  0.00    -0.095 C  
ENDBRANCH   2   5
TORSDOF 1
ENDMDL
MODEL      149
REMARK 921   NORMALIZED FREE ENERGY PREDICTED BY IDOCK:   -2.08 KCAL/MOL
REMARK 922        TOTAL FREE ENERGY PREDICTED BY IDOCK:   -2.24 KCAL/MOL
REMARK 923 INTER-LIGAND FREE ENERGY PREDICTED BY IDOCK:   -2.19 KCAL/MOL
REMARK 924 INTRA-LIGAND FREE ENERGY PREDICTED BY IDOCK:   -0.05 KCAL/MOL
REMARK 927      BINDING AFFINITY PREDICTED BY RF-SCORE:    0.00 PKD
ROOT
HETATM    1  N   UNL     1      -8.136  10.477  69.065  1.00  0.00    -0.134 NA 
HETATM    2  C   UNL     1      -9.311   9.749  69.530  1.00  0.00    -0.213 C  
HETATM    3  H1  UNL     1      -8.327  10.987  68.202  1.00  0.00     0.000 HD 
HETATM    4  H2  UNL     1      -7.331   9.859  68.962  1.00  0.00     0.000 HD 
ENDROOT
BRANCH   2   5
HETATM    5  C   UNL     1      -9.023   8.978  70.835  1.00  0.00    -0.300 C  
HETATM    6  C   UNL     1     -10.295   8.486  71.546  1.00  0.00    -0.321 C  
HETATM    7  C   UNL     1     -10.980   7.333  70.814  1.00  0.00    -0.273 C  
HETATM    8  C   UNL     1     -10.037   6.150  70.558  1.00  0.00    -0.237 C  
HETATM    9  C   UNL     1      -8.742   6.615  69.876  1.00  0.00    -0.141 C  
HETATM   10  C   UNL     1      -9.754   5.354  71.831  1.00  0.00    -0.163 C  
HETATM   11  O   UNL     1     -10.861   4.784  72.363  1.00  0.00    -0.186 OA 
HETATM   12  O   UNL     1      -8.650   5.184  72.323  1.00  0.00    -0.123 OA 
HETATM   13  C   UNL     1      -8.073   7.798  70.583  1.00  0.00    -0.103 C  
ENDBRANCH   2   5
TORSDOF 1
ENDMDL
MODEL      150
REMARK 921   NORMALIZED FREE ENERGY PREDICTED BY IDOCK:   -2.07 KCAL/MOL
REMARK 922        TOTAL FREE ENERGY PREDICTED BY IDOCK:   -2.23 KCAL/MOL
REMARK 923 INTER-LIGAND FREE ENERGY PREDICTED BY IDOCK:   -2.17 KCAL/MOL
REMARK 924 INTRA-LIGAND FREE ENERGY PREDICTED BY IDOCK:   -0.06 KCAL/MOL
REMARK 927      BINDING AFFINITY PREDICTED BY RF-SCORE:    0.00 PKD
ROOT
HETATM    1  N   UNL     1      -6.766   8.839  66.349  1.00  0.00    -0.069 NA 
HETATM    2  C   UNL     1      -8.173   9.131  66.602  1.00  0.00    -0.115 C  
HETATM    3  H1  UNL     1      -6.229   9.691  66.181  1.00  0.00     0.000 HD 
HETATM    4  H2  UNL     1      -6.655   8.172  65.585  1.00  0.00     0.000 HD 
ENDROOT
BRANCH   2   5
HETATM    5  C   UNL     1      -8.984   7.845  66.857  1.00  0.00    -0.157 C  
HETATM    6  C   UNL     1      -8.313   6.889  67.856  1.00  0.00    -0.121 C  
HETATM    7  C   UNL     1      -8.353   7.404  69.295  1.00  0.00    -0.132 C  
HETATM    8  C   UNL     1      -9.776   7.734  69.765  1.00  0.00    -0.176 C  
HETATM    9  C   UNL     1     -10.484   8.664  68.770  1.00  0.00    -0.209 C  
HETATM   10  C   UNL     1     -10.594   6.475  70.049  1.00  0.00    -0.230 C  
HETATM   11  O   UNL     1     -10.084   5.719  71.048  1.00  0.00    -0.189 OA 
HETATM   12  O   UNL     1     -11.635   6.174  69.488  1.00  0.00    -0.396 OA 
HETATM   13  C   UNL     1     -10.411   8.173  67.321  1.00  0.00    -0.379 C  
ENDBRANCH   2   5
TORSDOF 1
ENDMDL
MODEL      151
REMARK 921   NORMALIZED FREE ENERGY PREDICTED BY IDOCK:   -2.06 KCAL/MOL
REMARK 922        TOTAL FREE ENERGY PREDICTED BY IDOCK:   -2.22 KCAL/MOL
REMARK 923 INTER-LIGAND FREE ENERGY PREDICTED BY IDOCK:   -2.19 KCAL/MOL
REMARK 924 INTRA-LIGAND FREE ENERGY PREDICTED BY IDOCK:   -0.03 KCAL/MOL
REMARK 927      BINDING AFFINITY PREDICTED BY RF-SCORE:    0.00 PKD
ROOT
HETATM    1  N   UNL     1      -7.758   3.751  66.679  1.00  0.00    -0.087 NA 
HETATM    2  C   UNL     1      -8.922   4.629  66.709  1.00  0.00    -0.112 C  
HETATM    3  H1  UNL     1      -7.841   3.039  65.952  1.00  0.00     0.000 HD 
HETATM    4  H2  UNL     1      -7.584   3.332  67.592  1.00  0.00     0.000 HD 
ENDROOT
BRANCH   2   5
HETATM    5  C   UNL     1      -8.796   5.705  67.807  1.00  0.00    -0.105 C  
HETATM    6  C   UNL     1      -8.247   7.044  67.288  1.00  0.00    -0.119 C  
HETATM    7  C   UNL     1      -9.248   7.804  66.418  1.00  0.00    -0.229 C  
HETATM    8  C   UNL     1     -10.591   8.031  67.124  1.00  0.00    -0.367 C  
HETATM    9  C   UNL     1     -11.151   6.714  67.682  1.00  0.00    -0.357 C  
HETATM   10  C   UNL     1     -10.500   9.111  68.201  1.00  0.00    -0.211 C  
HETATM   11  O   UNL     1     -10.174  10.329  67.711  1.00  0.00    -0.169 OA 
HETATM   12  O   UNL     1     -10.737   8.942  69.387  1.00  0.00    -0.228 OA 
HETATM   13  C   UNL     1     -10.138   5.929  68.520  1.00  0.00    -0.210 C  
ENDBRANCH   2   5
TORSDOF 1
ENDMDL
MODEL      152
REMARK 921   NORMALIZED FREE ENERGY PREDICTED BY IDOCK:   -2.04 KCAL/MOL
REMARK 922        TOTAL FREE ENERGY PREDICTED BY IDOCK:   -2.20 KCAL/MOL
REMARK 923 INTER-LIGAND FREE ENERGY PREDICTED BY IDOCK:   -2.18 KCAL/MOL
REMARK 924 INTRA-LIGAND FREE ENERGY PREDICTED BY IDOCK:   -0.03 KCAL/MOL
REMARK 927      BINDING AFFINITY PREDICTED BY RF-SCORE:    0.00 PKD
ROOT
HETATM    1  N   UNL     1     -11.272  15.728  67.524  1.00  0.00    -0.271 NA 
HETATM    2  C   UNL     1     -10.653  14.552  68.127  1.00  0.00    -0.238 C  
HETATM    3  H1  UNL     1     -11.539  16.416  68.230  1.00  0.00     0.000 HD 
HETATM    4  H2  UNL     1     -12.065  15.472  66.936  1.00  0.00     0.000 HD 
ENDROOT
BRANCH   2   5
HETATM    5  C   UNL     1     -10.249  13.513  67.061  1.00  0.00    -0.249 C  
HETATM    6  C   UNL     1      -8.737  13.239  67.019  1.00  0.00    -0.192 C  
HETATM    7  C   UNL     1      -8.240  12.446  68.228  1.00  0.00    -0.170 C  
HETATM    8  C   UNL     1      -9.002  11.130  68.426  1.00  0.00    -0.165 C  
HETATM    9  C   UNL     1     -10.519  11.367  68.441  1.00  0.00    -0.221 C  
HETATM   10  C   UNL     1      -8.602  10.073  67.397  1.00  0.00    -0.125 C  
HETATM   11  O   UNL     1      -7.300   9.715  67.476  1.00  0.00    -0.089 OA 
HETATM   12  O   UNL     1      -9.363   9.545  66.601  1.00  0.00    -0.148 OA 
HETATM   13  C   UNL     1     -11.017  12.196  67.253  1.00  0.00    -0.308 C  
ENDBRANCH   2   5
TORSDOF 1
ENDMDL
MODEL      153
REMARK 921   NORMALIZED FREE ENERGY PREDICTED BY IDOCK:   -2.04 KCAL/MOL
REMARK 922        TOTAL FREE ENERGY PREDICTED BY IDOCK:   -2.20 KCAL/MOL
REMARK 923 INTER-LIGAND FREE ENERGY PREDICTED BY IDOCK:   -2.15 KCAL/MOL
REMARK 924 INTRA-LIGAND FREE ENERGY PREDICTED BY IDOCK:   -0.05 KCAL/MOL
REMARK 927      BINDING AFFINITY PREDICTED BY RF-SCORE:    0.00 PKD
ROOT
HETATM    1  N   UNL     1      -7.060  10.904  68.560  1.00  0.00    -0.071 NA 
HETATM    2  C   UNL     1      -7.453  10.213  69.783  1.00  0.00    -0.163 C  
HETATM    3  H1  UNL     1      -6.070  11.150  68.568  1.00  0.00     0.000 HD 
HETATM    4  H2  UNL     1      -7.646  11.722  68.390  1.00  0.00     0.000 HD 
ENDROOT
BRANCH   2   5
HETATM    5  C   UNL     1      -8.949   9.841  69.771  1.00  0.00    -0.239 C  
HETATM    6  C   UNL     1      -9.313   8.812  68.688  1.00  0.00    -0.141 C  
HETATM    7  C   UNL     1      -8.790   7.409  68.997  1.00  0.00    -0.132 C  
HETATM    8  C   UNL     1      -9.242   6.899  70.371  1.00  0.00    -0.156 C  
HETATM    9  C   UNL     1      -8.920   7.920  71.472  1.00  0.00    -0.167 C  
HETATM   10  C   UNL     1     -10.716   6.499  70.381  1.00  0.00    -0.255 C  
HETATM   11  O   UNL     1     -10.999   5.477  69.540  1.00  0.00    -0.288 OA 
HETATM   12  O   UNL     1     -11.573   6.994  71.096  1.00  0.00    -0.279 OA 
HETATM   13  C   UNL     1      -9.405   9.336  71.149  1.00  0.00    -0.259 C  
ENDBRANCH   2   5
TORSDOF 1
ENDMDL
MODEL      154
REMARK 921   NORMALIZED FREE ENERGY PREDICTED BY IDOCK:   -2.03 KCAL/MOL
REMARK 922        TOTAL FREE ENERGY PREDICTED BY IDOCK:   -2.19 KCAL/MOL
REMARK 923 INTER-LIGAND FREE ENERGY PREDICTED BY IDOCK:   -2.16 KCAL/MOL
REMARK 924 INTRA-LIGAND FREE ENERGY PREDICTED BY IDOCK:   -0.03 KCAL/MOL
REMARK 927      BINDING AFFINITY PREDICTED BY RF-SCORE:    0.00 PKD
ROOT
HETATM    1  N   UNL     1     -11.924  10.309  70.123  1.00  0.00    -0.391 NA 
HETATM    2  C   UNL     1     -10.672   9.647  69.771  1.00  0.00    -0.245 C  
HETATM    3  H1  UNL     1     -12.518   9.710  70.697  1.00  0.00     0.000 HD 
HETATM    4  H2  UNL     1     -12.417  10.639  69.294  1.00  0.00     0.000 HD 
ENDROOT
BRANCH   2   5
HETATM    5  C   UNL     1      -9.773  10.553  68.905  1.00  0.00    -0.206 C  
HETATM    6  C   UNL     1      -8.642   9.791  68.195  1.00  0.00    -0.118 C  
HETATM    7  C   UNL     1      -9.143   8.905  67.054  1.00  0.00    -0.161 C  
HETATM    8  C   UNL     1      -9.973   9.682  66.024  1.00  0.00    -0.344 C  
HETATM    9  C   UNL     1     -11.094  10.480  66.706  1.00  0.00    -0.061 C  
HETATM   10  C   UNL     1      -9.103  10.570  65.135  1.00  0.00    -0.197 C  
HETATM   11  O   UNL     1      -8.216   9.873  64.387  1.00  0.00    -0.145 OA 
HETATM   12  O   UNL     1      -9.201  11.783  65.044  1.00  0.00    -0.057 OA 
HETATM   13  C   UNL     1     -10.604  11.337  67.877  1.00  0.00    -0.231 C  
ENDBRANCH   2   5
TORSDOF 1
ENDMDL
MODEL      155
REMARK 921   NORMALIZED FREE ENERGY PREDICTED BY IDOCK:   -2.01 KCAL/MOL
REMARK 922        TOTAL FREE ENERGY PREDICTED BY IDOCK:   -2.16 KCAL/MOL
REMARK 923 INTER-LIGAND FREE ENERGY PREDICTED BY IDOCK:   -2.14 KCAL/MOL
REMARK 924 INTRA-LIGAND FREE ENERGY PREDICTED BY IDOCK:   -0.03 KCAL/MOL
REMARK 927      BINDING AFFINITY PREDICTED BY RF-SCORE:    0.00 PKD
ROOT
HETATM    1  N   UNL     1      -7.468   3.665  69.648  1.00  0.00    -0.051 NA 
HETATM    2  C   UNL     1      -8.378   4.649  69.072  1.00  0.00    -0.080 C  
HETATM    3  H1  UNL     1      -7.176   2.973  68.958  1.00  0.00     0.000 HD 
HETATM    4  H2  UNL     1      -7.872   3.222  70.473  1.00  0.00     0.000 HD 
ENDROOT
BRANCH   2   5
HETATM    5  C   UNL     1      -8.818   5.697  70.115  1.00  0.00    -0.144 C  
HETATM    6  C   UNL     1      -8.238   7.097  69.855  1.00  0.00    -0.133 C  
HETATM    7  C   UNL     1      -8.864   7.788  68.644  1.00  0.00    -0.131 C  
HETATM    8  C   UNL     1     -10.393   7.867  68.734  1.00  0.00    -0.220 C  
HETATM    9  C   UNL     1     -11.001   6.487  69.024  1.00  0.00    -0.378 C  
HETATM   10  C   UNL     1     -10.857   8.916  69.743  1.00  0.00    -0.200 C  
HETATM   11  O   UNL     1     -10.480  10.175  69.419  1.00  0.00    -0.202 OA 
HETATM   12  O   UNL     1     -11.542   8.689  70.728  1.00  0.00    -0.278 OA 
HETATM   13  C   UNL     1     -10.349   5.773  70.211  1.00  0.00    -0.319 C  
ENDBRANCH   2   5
TORSDOF 1
ENDMDL
MODEL      156
REMARK 921   NORMALIZED FREE ENERGY PREDICTED BY IDOCK:   -1.99 KCAL/MOL
REMARK 922        TOTAL FREE ENERGY PREDICTED BY IDOCK:   -2.15 KCAL/MOL
REMARK 923 INTER-LIGAND FREE ENERGY PREDICTED BY IDOCK:   -2.33 KCAL/MOL
REMARK 924 INTRA-LIGAND FREE ENERGY PREDICTED BY IDOCK:    0.18 KCAL/MOL
REMARK 927      BINDING AFFINITY PREDICTED BY RF-SCORE:    0.00 PKD
ROOT
HETATM    1  N   UNL     1     -10.321  16.406  69.302  1.00  0.00    -0.274 NA 
HETATM    2  C   UNL     1      -9.464  15.501  68.542  1.00  0.00    -0.200 C  
HETATM    3  H1  UNL     1     -10.682  15.961  70.146  1.00  0.00     0.000 HD 
HETATM    4  H2  UNL     1     -11.075  16.777  68.724  1.00  0.00     0.000 HD 
ENDROOT
BRANCH   2   5
HETATM    5  C   UNL     1      -8.916  16.173  67.267  1.00  0.00    -0.210 C  
HETATM    6  C   UNL     1      -9.036  17.706  67.285  1.00  0.00    -0.242 C  
HETATM    7  C   UNL     1      -8.062  18.369  68.259  1.00  0.00    -0.315 C  
HETATM    8  C   UNL     1      -6.605  17.964  68.006  1.00  0.00    -0.194 C  
HETATM    9  C   UNL     1      -6.458  16.437  67.950  1.00  0.00    -0.150 C  
HETATM   10  C   UNL     1      -6.029  18.636  66.760  1.00  0.00    -0.154 C  
HETATM   11  O   UNL     1      -5.985  19.985  66.851  1.00  0.00    -0.172 OA 
HETATM   12  O   UNL     1      -5.596  18.048  65.782  1.00  0.00    -0.174 OA 
HETATM   13  C   UNL     1      -7.459  15.763  67.007  1.00  0.00    -0.242 C  
ENDBRANCH   2   5
TORSDOF 1
ENDMDL
MODEL      157
REMARK 921   NORMALIZED FREE ENERGY PREDICTED BY IDOCK:   -1.96 KCAL/MOL
REMARK 922        TOTAL FREE ENERGY PREDICTED BY IDOCK:   -2.11 KCAL/MOL
REMARK 923 INTER-LIGAND FREE ENERGY PREDICTED BY IDOCK:   -2.06 KCAL/MOL
REMARK 924 INTRA-LIGAND FREE ENERGY PREDICTED BY IDOCK:   -0.05 KCAL/MOL
REMARK 927      BINDING AFFINITY PREDICTED BY RF-SCORE:    0.00 PKD
ROOT
HETATM    1  N   UNL     1      -6.929   8.826  72.933  1.00  0.00    -0.328 NA 
HETATM    2  C   UNL     1      -6.852   8.345  71.557  1.00  0.00    -0.073 C  
HETATM    3  H1  UNL     1      -6.015   9.114  73.282  1.00  0.00     0.000 HD 
HETATM    4  H2  UNL     1      -7.361   8.135  73.545  1.00  0.00     0.000 HD 
ENDROOT
BRANCH   2   5
HETATM    5  C   UNL     1      -8.234   7.911  71.028  1.00  0.00    -0.100 C  
HETATM    6  C   UNL     1      -9.197   9.087  70.800  1.00  0.00    -0.299 C  
HETATM    7  C   UNL     1      -8.815   9.947  69.596  1.00  0.00    -0.224 C  
HETATM    8  C   UNL     1      -8.678   9.129  68.305  1.00  0.00    -0.129 C  
HETATM    9  C   UNL     1      -7.745   7.927  68.509  1.00  0.00    -0.114 C  
HETATM   10  C   UNL     1     -10.036   8.707  67.745  1.00  0.00    -0.190 C  
HETATM   11  O   UNL     1     -10.818   9.752  67.391  1.00  0.00    -0.274 OA 
HETATM   12  O   UNL     1     -10.395   7.553  67.572  1.00  0.00    -0.207 OA 
HETATM   13  C   UNL     1      -8.098   7.086  69.739  1.00  0.00    -0.126 C  
ENDBRANCH   2   5
TORSDOF 1
ENDMDL
MODEL      158
REMARK 921   NORMALIZED FREE ENERGY PREDICTED BY IDOCK:   -1.96 KCAL/MOL
REMARK 922        TOTAL FREE ENERGY PREDICTED BY IDOCK:   -2.11 KCAL/MOL
REMARK 923 INTER-LIGAND FREE ENERGY PREDICTED BY IDOCK:   -2.05 KCAL/MOL
REMARK 924 INTRA-LIGAND FREE ENERGY PREDICTED BY IDOCK:   -0.06 KCAL/MOL
REMARK 927      BINDING AFFINITY PREDICTED BY RF-SCORE:    0.00 PKD
ROOT
HETATM    1  N   UNL     1      -7.667   5.648  66.850  1.00  0.00    -0.099 NA 
HETATM    2  C   UNL     1      -8.554   5.039  67.836  1.00  0.00    -0.103 C  
HETATM    3  H1  UNL     1      -6.831   5.083  66.696  1.00  0.00     0.000 HD 
HETATM    4  H2  UNL     1      -7.427   6.605  67.105  1.00  0.00     0.000 HD 
ENDROOT
BRANCH   2   5
HETATM    5  C   UNL     1      -9.817   5.893  68.067  1.00  0.00    -0.144 C  
HETATM    6  C   UNL     1     -10.717   5.356  69.193  1.00  0.00    -0.168 C  
HETATM    7  C   UNL     1     -10.118   5.558  70.584  1.00  0.00    -0.288 C  
HETATM    8  C   UNL     1      -9.751   7.021  70.864  1.00  0.00    -0.176 C  
HETATM    9  C   UNL     1      -8.876   7.596  69.739  1.00  0.00    -0.140 C  
HETATM   10  C   UNL     1     -10.985   7.885  71.122  1.00  0.00    -0.239 C  
HETATM   11  O   UNL     1     -11.684   7.505  72.216  1.00  0.00    -0.292 OA 
HETATM   12  O   UNL     1     -11.312   8.857  70.460  1.00  0.00    -0.260 OA 
HETATM   13  C   UNL     1      -9.453   7.360  68.340  1.00  0.00    -0.143 C  
ENDBRANCH   2   5
TORSDOF 1
ENDMDL
MODEL      159
REMARK 921   NORMALIZED FREE ENERGY PREDICTED BY IDOCK:   -1.94 KCAL/MOL
REMARK 922        TOTAL FREE ENERGY PREDICTED BY IDOCK:   -2.09 KCAL/MOL
REMARK 923 INTER-LIGAND FREE ENERGY PREDICTED BY IDOCK:   -2.05 KCAL/MOL
REMARK 924 INTRA-LIGAND FREE ENERGY PREDICTED BY IDOCK:   -0.04 KCAL/MOL
REMARK 927      BINDING AFFINITY PREDICTED BY RF-SCORE:    0.00 PKD
ROOT
HETATM    1  N   UNL     1     -11.027  12.789  66.999  1.00  0.00    -0.257 NA 
HETATM    2  C   UNL     1     -10.494  13.712  67.996  1.00  0.00    -0.248 C  
HETATM    3  H1  UNL     1     -11.498  11.996  67.434  1.00  0.00     0.000 HD 
HETATM    4  H2  UNL     1     -10.302  12.482  66.351  1.00  0.00     0.000 HD 
ENDROOT
BRANCH   2   5
HETATM    5  C   UNL     1      -9.782  14.911  67.338  1.00  0.00    -0.217 C  
HETATM    6  C   UNL     1      -9.739  16.161  68.233  1.00  0.00    -0.220 C  
HETATM    7  C   UNL     1      -8.779  16.018  69.413  1.00  0.00    -0.153 C  
HETATM    8  C   UNL     1      -7.357  15.642  68.976  1.00  0.00    -0.169 C  
HETATM    9  C   UNL     1      -7.369  14.414  68.054  1.00  0.00    -0.148 C  
HETATM   10  C   UNL     1      -6.619  16.821  68.344  1.00  0.00    -0.149 C  
HETATM   11  O   UNL     1      -6.440  17.859  69.193  1.00  0.00    -0.226 OA 
HETATM   12  O   UNL     1      -6.177  16.843  67.206  1.00  0.00    -0.133 OA 
HETATM   13  C   UNL     1      -8.360  14.535  66.893  1.00  0.00    -0.133 C  
ENDBRANCH   2   5
TORSDOF 1
ENDMDL
MODEL      160
REMARK 921   NORMALIZED FREE ENERGY PREDICTED BY IDOCK:   -1.94 KCAL/MOL
REMARK 922        TOTAL FREE ENERGY PREDICTED BY IDOCK:   -2.09 KCAL/MOL
REMARK 923 INTER-LIGAND FREE ENERGY PREDICTED BY IDOCK:   -2.06 KCAL/MOL
REMARK 924 INTRA-LIGAND FREE ENERGY PREDICTED BY IDOCK:   -0.03 KCAL/MOL
REMARK 927      BINDING AFFINITY PREDICTED BY RF-SCORE:    0.00 PKD
ROOT
HETATM    1  N   UNL     1     -10.237   5.501  73.064  1.00  0.00    -0.180 NA 
HETATM    2  C   UNL     1     -10.373   5.151  71.655  1.00  0.00    -0.207 C  
HETATM    3  H1  UNL     1     -10.818   4.907  73.657  1.00  0.00     0.000 HD 
HETATM    4  H2  UNL     1     -10.432   6.489  73.223  1.00  0.00     0.000 HD 
ENDROOT
BRANCH   2   5
HETATM    5  C   UNL     1      -9.496   6.048  70.758  1.00  0.00    -0.189 C  
HETATM    6  C   UNL     1      -8.485   5.260  69.909  1.00  0.00    -0.098 C  
HETATM    7  C   UNL     1      -9.142   4.475  68.774  1.00  0.00    -0.166 C  
HETATM    8  C   UNL     1     -10.006   5.359  67.866  1.00  0.00    -0.202 C  
HETATM    9  C   UNL     1     -11.007   6.184  68.689  1.00  0.00    -0.415 C  
HETATM   10  C   UNL     1      -9.161   6.242  66.949  1.00  0.00    -0.130 C  
HETATM   11  O   UNL     1      -8.392   5.536  66.087  1.00  0.00    -0.113 OA 
HETATM   12  O   UNL     1      -9.186   7.462  66.931  1.00  0.00    -0.139 OA 
HETATM   13  C   UNL     1     -10.359   6.940  69.853  1.00  0.00    -0.223 C  
ENDBRANCH   2   5
TORSDOF 1
ENDMDL
MODEL      161
REMARK 921   NORMALIZED FREE ENERGY PREDICTED BY IDOCK:   -1.89 KCAL/MOL
REMARK 922        TOTAL FREE ENERGY PREDICTED BY IDOCK:   -2.04 KCAL/MOL
REMARK 923 INTER-LIGAND FREE ENERGY PREDICTED BY IDOCK:   -2.04 KCAL/MOL
REMARK 924 INTRA-LIGAND FREE ENERGY PREDICTED BY IDOCK:   -0.00 KCAL/MOL
REMARK 927      BINDING AFFINITY PREDICTED BY RF-SCORE:    0.00 PKD
ROOT
HETATM    1  N   UNL     1      -7.001   9.903  66.465  1.00  0.00    -0.087 NA 
HETATM    2  C   UNL     1      -8.364  10.423  66.427  1.00  0.00    -0.139 C  
HETATM    3  H1  UNL     1      -6.698   9.574  65.548  1.00  0.00     0.000 HD 
HETATM    4  H2  UNL     1      -6.900   9.177  67.174  1.00  0.00     0.000 HD 
ENDROOT
BRANCH   2   5
HETATM    5  C   UNL     1      -8.822  10.921  67.813  1.00  0.00    -0.135 C  
HETATM    6  C   UNL     1     -10.351  11.010  67.953  1.00  0.00    -0.213 C  
HETATM    7  C   UNL     1     -11.024   9.641  68.033  1.00  0.00    -0.197 C  
HETATM    8  C   UNL     1     -10.449   8.762  69.151  1.00  0.00    -0.230 C  
HETATM    9  C   UNL     1      -8.919   8.679  69.056  1.00  0.00    -0.142 C  
HETATM   10  C   UNL     1     -10.908   9.219  70.535  1.00  0.00    -0.263 C  
HETATM   11  O   UNL     1     -12.248   9.139  70.708  1.00  0.00    -0.227 OA 
HETATM   12  O   UNL     1     -10.168   9.580  71.437  1.00  0.00    -0.283 OA 
HETATM   13  C   UNL     1      -8.242  10.047  68.935  1.00  0.00    -0.121 C  
ENDBRANCH   2   5
TORSDOF 1
ENDMDL
MODEL      162
REMARK 921   NORMALIZED FREE ENERGY PREDICTED BY IDOCK:   -1.88 KCAL/MOL
REMARK 922        TOTAL FREE ENERGY PREDICTED BY IDOCK:   -2.03 KCAL/MOL
REMARK 923 INTER-LIGAND FREE ENERGY PREDICTED BY IDOCK:   -1.98 KCAL/MOL
REMARK 924 INTRA-LIGAND FREE ENERGY PREDICTED BY IDOCK:   -0.05 KCAL/MOL
REMARK 927      BINDING AFFINITY PREDICTED BY RF-SCORE:    0.00 PKD
ROOT
HETATM    1  N   UNL     1      -5.682   7.958  71.593  1.00  0.00    -0.035 NA 
HETATM    2  C   UNL     1      -7.084   7.597  71.778  1.00  0.00    -0.063 C  
HETATM    3  H1  UNL     1      -5.087   7.132  71.527  1.00  0.00     0.000 HD 
HETATM    4  H2  UNL     1      -5.361   8.591  72.324  1.00  0.00     0.000 HD 
ENDROOT
BRANCH   2   5
HETATM    5  C   UNL     1      -7.984   8.845  71.877  1.00  0.00     0.017 C  
HETATM    6  C   UNL     1      -8.076   9.636  70.562  1.00  0.00    -0.145 C  
HETATM    7  C   UNL     1      -8.896   8.919  69.489  1.00  0.00    -0.144 C  
HETATM    8  C   UNL     1     -10.303   8.545  69.971  1.00  0.00    -0.213 C  
HETATM    9  C   UNL     1     -10.246   7.780  71.301  1.00  0.00    -0.218 C  
HETATM   10  C   UNL     1     -11.225   9.761  70.054  1.00  0.00    -0.251 C  
HETATM   11  O   UNL     1     -11.433  10.358  68.858  1.00  0.00    -0.244 OA 
HETATM   12  O   UNL     1     -11.775  10.157  71.069  1.00  0.00    -0.337 OA 
HETATM   13  C   UNL     1      -9.393   8.474  72.366  1.00  0.00    -0.349 C  
ENDBRANCH   2   5
TORSDOF 1
ENDMDL
MODEL      163
REMARK 921   NORMALIZED FREE ENERGY PREDICTED BY IDOCK:   -1.88 KCAL/MOL
REMARK 922        TOTAL FREE ENERGY PREDICTED BY IDOCK:   -2.03 KCAL/MOL
REMARK 923 INTER-LIGAND FREE ENERGY PREDICTED BY IDOCK:   -1.97 KCAL/MOL
REMARK 924 INTRA-LIGAND FREE ENERGY PREDICTED BY IDOCK:   -0.06 KCAL/MOL
REMARK 927      BINDING AFFINITY PREDICTED BY RF-SCORE:    0.00 PKD
ROOT
HETATM    1  N   UNL     1      -7.621   8.619  73.779  1.00  0.00    -0.406 NA 
HETATM    2  C   UNL     1      -8.886   7.924  73.565  1.00  0.00    -0.272 C  
HETATM    3  H1  UNL     1      -7.536   8.960  74.737  1.00  0.00     0.000 HD 
HETATM    4  H2  UNL     1      -7.490   9.371  73.103  1.00  0.00     0.000 HD 
ENDROOT
BRANCH   2   5
HETATM    5  C   UNL     1      -9.013   7.408  72.117  1.00  0.00    -0.154 C  
HETATM    6  C   UNL     1      -7.786   6.613  71.642  1.00  0.00    -0.102 C  
HETATM    7  C   UNL     1      -7.672   5.239  72.304  1.00  0.00    -0.101 C  
HETATM    8  C   UNL     1      -8.940   4.393  72.130  1.00  0.00    -0.143 C  
HETATM    9  C   UNL     1     -10.189   5.173  72.567  1.00  0.00    -0.242 C  
HETATM   10  C   UNL     1      -9.078   3.848  70.710  1.00  0.00    -0.106 C  
HETATM   11  O   UNL     1      -8.074   3.014  70.356  1.00  0.00    -0.042 OA 
HETATM   12  O   UNL     1     -10.011   4.079  69.957  1.00  0.00    -0.190 OA 
HETATM   13  C   UNL     1     -10.286   6.566  71.939  1.00  0.00    -0.214 C  
ENDBRANCH   2   5
TORSDOF 1
ENDMDL
MODEL      164
REMARK 921   NORMALIZED FREE ENERGY PREDICTED BY IDOCK:   -1.88 KCAL/MOL
REMARK 922        TOTAL FREE ENERGY PREDICTED BY IDOCK:   -2.03 KCAL/MOL
REMARK 923 INTER-LIGAND FREE ENERGY PREDICTED BY IDOCK:   -2.00 KCAL/MOL
REMARK 924 INTRA-LIGAND FREE ENERGY PREDICTED BY IDOCK:   -0.03 KCAL/MOL
REMARK 927      BINDING AFFINITY PREDICTED BY RF-SCORE:    0.00 PKD
ROOT
HETATM    1  N   UNL     1      -9.179   5.116  72.628  1.00  0.00    -0.134 NA 
HETATM    2  C   UNL     1      -8.878   5.211  71.203  1.00  0.00    -0.134 C  
HETATM    3  H1  UNL     1      -8.489   4.549  73.121  1.00  0.00     0.000 HD 
HETATM    4  H2  UNL     1     -10.126   4.772  72.786  1.00  0.00     0.000 HD 
ENDROOT
BRANCH   2   5
HETATM    5  C   UNL     1      -9.921   6.069  70.458  1.00  0.00    -0.233 C  
HETATM    6  C   UNL     1      -9.427   7.489  70.138  1.00  0.00    -0.161 C  
HETATM    7  C   UNL     1      -8.365   7.519  69.040  1.00  0.00    -0.129 C  
HETATM    8  C   UNL     1      -8.827   6.827  67.751  1.00  0.00    -0.118 C  
HETATM    9  C   UNL     1      -9.356   5.415  68.042  1.00  0.00    -0.127 C  
HETATM   10  C   UNL     1      -9.843   7.667  66.979  1.00  0.00    -0.215 C  
HETATM   11  O   UNL     1      -9.347   8.853  66.557  1.00  0.00    -0.165 OA 
HETATM   12  O   UNL     1     -10.981   7.318  66.708  1.00  0.00    -0.284 OA 
HETATM   13  C   UNL     1     -10.391   5.374  69.170  1.00  0.00    -0.300 C  
ENDBRANCH   2   5
TORSDOF 1
ENDMDL
MODEL      165
REMARK 921   NORMALIZED FREE ENERGY PREDICTED BY IDOCK:   -1.88 KCAL/MOL
REMARK 922        TOTAL FREE ENERGY PREDICTED BY IDOCK:   -2.03 KCAL/MOL
REMARK 923 INTER-LIGAND FREE ENERGY PREDICTED BY IDOCK:   -2.00 KCAL/MOL
REMARK 924 INTRA-LIGAND FREE ENERGY PREDICTED BY IDOCK:   -0.03 KCAL/MOL
REMARK 927      BINDING AFFINITY PREDICTED BY RF-SCORE:    0.00 PKD
ROOT
HETATM    1  N   UNL     1      -8.641   9.163  65.257  1.00  0.00    -0.157 NA 
HETATM    2  C   UNL     1      -8.533   8.472  66.537  1.00  0.00    -0.115 C  
HETATM    3  H1  UNL     1      -8.153   8.660  64.515  1.00  0.00     0.000 HD 
HETATM    4  H2  UNL     1      -8.319  10.128  65.326  1.00  0.00     0.000 HD 
ENDROOT
BRANCH   2   5
HETATM    5  C   UNL     1      -9.270   9.232  67.658  1.00  0.00    -0.139 C  
HETATM    6  C   UNL     1     -10.675   8.679  67.948  1.00  0.00    -0.158 C  
HETATM    7  C   UNL     1     -10.650   7.321  68.649  1.00  0.00    -0.194 C  
HETATM    8  C   UNL     1      -9.821   7.338  69.941  1.00  0.00    -0.178 C  
HETATM    9  C   UNL     1      -8.421   7.916  69.690  1.00  0.00    -0.132 C  
HETATM   10  C   UNL     1     -10.541   8.064  71.076  1.00  0.00    -0.213 C  
HETATM   11  O   UNL     1     -11.703   7.474  71.438  1.00  0.00    -0.267 OA 
HETATM   12  O   UNL     1     -10.118   9.052  71.657  1.00  0.00    -0.316 OA 
HETATM   13  C   UNL     1      -8.439   9.257  68.950  1.00  0.00    -0.129 C  
ENDBRANCH   2   5
TORSDOF 1
ENDMDL
MODEL      166
REMARK 921   NORMALIZED FREE ENERGY PREDICTED BY IDOCK:   -1.82 KCAL/MOL
REMARK 922        TOTAL FREE ENERGY PREDICTED BY IDOCK:   -1.97 KCAL/MOL
REMARK 923 INTER-LIGAND FREE ENERGY PREDICTED BY IDOCK:   -1.94 KCAL/MOL
REMARK 924 INTRA-LIGAND FREE ENERGY PREDICTED BY IDOCK:   -0.03 KCAL/MOL
REMARK 927      BINDING AFFINITY PREDICTED BY RF-SCORE:    0.00 PKD
ROOT
HETATM    1  N   UNL     1      -8.140   6.219  68.860  1.00  0.00    -0.109 NA 
HETATM    2  C   UNL     1      -8.999   7.146  68.129  1.00  0.00    -0.128 C  
HETATM    3  H1  UNL     1      -8.060   5.322  68.379  1.00  0.00     0.000 HD 
HETATM    4  H2  UNL     1      -8.455   6.100  69.822  1.00  0.00     0.000 HD 
ENDROOT
BRANCH   2   5
HETATM    5  C   UNL     1      -9.119   8.502  68.854  1.00  0.00    -0.146 C  
HETATM    6  C   UNL     1      -8.010   9.497  68.474  1.00  0.00    -0.093 C  
HETATM    7  C   UNL     1      -8.162  10.047  67.056  1.00  0.00    -0.117 C  
HETATM    8  C   UNL     1      -9.538  10.682  66.812  1.00  0.00    -0.200 C  
HETATM    9  C   UNL     1     -10.667   9.722  67.213  1.00  0.00    -0.296 C  
HETATM   10  C   UNL     1      -9.674  12.039  67.499  1.00  0.00    -0.187 C  
HETATM   11  O   UNL     1      -8.798  12.963  67.040  1.00  0.00    -0.205 OA 
HETATM   12  O   UNL     1     -10.509  12.317  68.346  1.00  0.00    -0.221 OA 
HETATM   13  C   UNL     1     -10.498   9.136  68.618  1.00  0.00    -0.235 C  
ENDBRANCH   2   5
TORSDOF 1
ENDMDL
MODEL      167
REMARK 921   NORMALIZED FREE ENERGY PREDICTED BY IDOCK:   -1.82 KCAL/MOL
REMARK 922        TOTAL FREE ENERGY PREDICTED BY IDOCK:   -1.97 KCAL/MOL
REMARK 923 INTER-LIGAND FREE ENERGY PREDICTED BY IDOCK:   -1.95 KCAL/MOL
REMARK 924 INTRA-LIGAND FREE ENERGY PREDICTED BY IDOCK:   -0.02 KCAL/MOL
REMARK 927      BINDING AFFINITY PREDICTED BY RF-SCORE:    0.00 PKD
ROOT
HETATM    1  N   UNL     1      -8.997   9.266  66.373  1.00  0.00    -0.147 NA 
HETATM    2  C   UNL     1     -10.089   8.587  67.061  1.00  0.00    -0.277 C  
HETATM    3  H1  UNL     1      -9.022  10.274  66.531  1.00  0.00     0.000 HD 
HETATM    4  H2  UNL     1      -8.989   9.045  65.378  1.00  0.00     0.000 HD 
ENDROOT
BRANCH   2   5
HETATM    5  C   UNL     1     -10.051   7.063  66.823  1.00  0.00    -0.270 C  
HETATM    6  C   UNL     1      -8.626   6.488  66.781  1.00  0.00    -0.117 C  
HETATM    7  C   UNL     1      -7.951   6.464  68.152  1.00  0.00    -0.109 C  
HETATM    8  C   UNL     1      -8.780   5.721  69.207  1.00  0.00    -0.113 C  
HETATM    9  C   UNL     1     -10.220   6.253  69.252  1.00  0.00    -0.236 C  
HETATM   10  C   UNL     1      -8.740   4.206  69.009  1.00  0.00    -0.087 C  
HETATM   11  O   UNL     1      -7.498   3.683  69.137  1.00  0.00    -0.052 OA 
HETATM   12  O   UNL     1      -9.713   3.499  68.804  1.00  0.00    -0.126 OA 
HETATM   13  C   UNL     1     -10.887   6.318  67.875  1.00  0.00    -0.417 C  
ENDBRANCH   2   5
TORSDOF 1
ENDMDL
MODEL      168
REMARK 921   NORMALIZED FREE ENERGY PREDICTED BY IDOCK:   -1.82 KCAL/MOL
REMARK 922        TOTAL FREE ENERGY PREDICTED BY IDOCK:   -1.96 KCAL/MOL
REMARK 923 INTER-LIGAND FREE ENERGY PREDICTED BY IDOCK:   -1.93 KCAL/MOL
REMARK 924 INTRA-LIGAND FREE ENERGY PREDICTED BY IDOCK:   -0.03 KCAL/MOL
REMARK 927      BINDING AFFINITY PREDICTED BY RF-SCORE:    0.00 PKD
ROOT
HETATM    1  N   UNL     1     -11.184   7.173  67.167  1.00  0.00    -0.559 NA 
HETATM    2  C   UNL     1     -10.471   7.861  68.239  1.00  0.00    -0.164 C  
HETATM    3  H1  UNL     1     -11.367   7.795  66.379  1.00  0.00     0.000 HD 
HETATM    4  H2  UNL     1     -12.042   6.741  67.508  1.00  0.00     0.000 HD 
ENDROOT
BRANCH   2   5
HETATM    5  C   UNL     1     -10.193   6.922  69.431  1.00  0.00    -0.194 C  
HETATM    6  C   UNL     1      -8.822   6.230  69.355  1.00  0.00    -0.127 C  
HETATM    7  C   UNL     1      -7.656   7.184  69.613  1.00  0.00    -0.104 C  
HETATM    8  C   UNL     1      -7.788   7.932  70.946  1.00  0.00    -0.088 C  
HETATM    9  C   UNL     1      -9.162   8.609  71.065  1.00  0.00    -0.253 C  
HETATM   10  C   UNL     1      -7.493   7.030  72.144  1.00  0.00    -0.090 C  
HETATM   11  O   UNL     1      -6.227   6.554  72.156  1.00  0.00    -0.041 OA 
HETATM   12  O   UNL     1      -8.279   6.780  73.044  1.00  0.00    -0.108 OA 
HETATM   13  C   UNL     1     -10.332   7.667  70.767  1.00  0.00    -0.203 C  
ENDBRANCH   2   5
TORSDOF 1
ENDMDL
MODEL      169
REMARK 921   NORMALIZED FREE ENERGY PREDICTED BY IDOCK:   -1.78 KCAL/MOL
REMARK 922        TOTAL FREE ENERGY PREDICTED BY IDOCK:   -1.92 KCAL/MOL
REMARK 923 INTER-LIGAND FREE ENERGY PREDICTED BY IDOCK:   -2.19 KCAL/MOL
REMARK 924 INTRA-LIGAND FREE ENERGY PREDICTED BY IDOCK:    0.27 KCAL/MOL
REMARK 927      BINDING AFFINITY PREDICTED BY RF-SCORE:    0.00 PKD
ROOT
HETATM    1  N   UNL     1     -11.160   6.864  73.542  1.00  0.00    -0.517 NA 
HETATM    2  C   UNL     1     -11.652   6.551  72.204  1.00  0.00    -0.308 C  
HETATM    3  H1  UNL     1     -11.893   6.766  74.245  1.00  0.00     0.000 HD 
HETATM    4  H2  UNL     1     -10.734   7.790  73.574  1.00  0.00     0.000 HD 
ENDROOT
BRANCH   2   5
HETATM    5  C   UNL     1     -10.544   6.698  71.142  1.00  0.00    -0.263 C  
HETATM    6  C   UNL     1      -9.144   6.903  71.744  1.00  0.00    -0.138 C  
HETATM    7  C   UNL     1      -8.585   5.641  72.400  1.00  0.00    -0.121 C  
HETATM    8  C   UNL     1      -8.571   4.437  71.449  1.00  0.00    -0.125 C  
HETATM    9  C   UNL     1      -9.949   4.225  70.806  1.00  0.00    -0.224 C  
HETATM   10  C   UNL     1      -7.465   4.546  70.400  1.00  0.00    -0.050 C  
HETATM   11  O   UNL     1      -6.221   4.560  70.933  1.00  0.00    -0.017 OA 
HETATM   12  O   UNL     1      -7.643   4.570  69.192  1.00  0.00    -0.055 OA 
HETATM   13  C   UNL     1     -10.532   5.498  70.184  1.00  0.00    -0.370 C  
ENDBRANCH   2   5
TORSDOF 1
ENDMDL
MODEL      170
REMARK 921   NORMALIZED FREE ENERGY PREDICTED BY IDOCK:   -1.73 KCAL/MOL
REMARK 922        TOTAL FREE ENERGY PREDICTED BY IDOCK:   -1.87 KCAL/MOL
REMARK 923 INTER-LIGAND FREE ENERGY PREDICTED BY IDOCK:   -2.08 KCAL/MOL
REMARK 924 INTRA-LIGAND FREE ENERGY PREDICTED BY IDOCK:    0.20 KCAL/MOL
REMARK 927      BINDING AFFINITY PREDICTED BY RF-SCORE:    0.00 PKD
ROOT
HETATM    1  N   UNL     1      -6.484   8.176  69.900  1.00  0.00    -0.038 NA 
HETATM    2  C   UNL     1      -6.679   7.072  70.833  1.00  0.00    -0.053 C  
HETATM    3  H1  UNL     1      -5.685   8.755  70.163  1.00  0.00     0.000 HD 
HETATM    4  H2  UNL     1      -7.331   8.735  69.801  1.00  0.00     0.000 HD 
ENDROOT
BRANCH   2   5
HETATM    5  C   UNL     1      -7.886   6.198  70.435  1.00  0.00    -0.106 C  
HETATM    6  C   UNL     1      -8.733   5.746  71.636  1.00  0.00    -0.136 C  
HETATM    7  C   UNL     1      -9.544   6.883  72.257  1.00  0.00    -0.159 C  
HETATM    8  C   UNL     1     -10.433   7.603  71.235  1.00  0.00    -0.223 C  
HETATM    9  C   UNL     1      -9.619   8.040  70.008  1.00  0.00    -0.171 C  
HETATM   10  C   UNL     1     -11.650   6.768  70.842  1.00  0.00    -0.353 C  
HETATM   11  O   UNL     1     -12.481   6.511  71.879  1.00  0.00    -0.347 OA 
HETATM   12  O   UNL     1     -11.908   6.393  69.709  1.00  0.00    -0.357 OA 
HETATM   13  C   UNL     1      -8.774   6.914  69.406  1.00  0.00    -0.133 C  
ENDBRANCH   2   5
TORSDOF 1
ENDMDL
MODEL      171
REMARK 921   NORMALIZED FREE ENERGY PREDICTED BY IDOCK:   -1.72 KCAL/MOL
REMARK 922        TOTAL FREE ENERGY PREDICTED BY IDOCK:   -1.86 KCAL/MOL
REMARK 923 INTER-LIGAND FREE ENERGY PREDICTED BY IDOCK:   -2.21 KCAL/MOL
REMARK 924 INTRA-LIGAND FREE ENERGY PREDICTED BY IDOCK:    0.34 KCAL/MOL
REMARK 927      BINDING AFFINITY PREDICTED BY RF-SCORE:    0.00 PKD
ROOT
HETATM    1  N   UNL     1      -7.178   8.846  73.875  1.00  0.00    -0.385 NA 
HETATM    2  C   UNL     1      -6.795   7.906  72.827  1.00  0.00    -0.081 C  
HETATM    3  H1  UNL     1      -6.362   9.240  74.344  1.00  0.00     0.000 HD 
HETATM    4  H2  UNL     1      -7.821   8.419  74.541  1.00  0.00     0.000 HD 
ENDROOT
BRANCH   2   5
HETATM    5  C   UNL     1      -8.029   7.312  72.117  1.00  0.00    -0.098 C  
HETATM    6  C   UNL     1      -8.012   5.776  72.048  1.00  0.00    -0.107 C  
HETATM    7  C   UNL     1      -8.260   5.115  73.404  1.00  0.00    -0.111 C  
HETATM    8  C   UNL     1      -9.559   5.592  74.066  1.00  0.00    -0.144 C  
HETATM    9  C   UNL     1      -9.620   7.125  74.121  1.00  0.00    -0.272 C  
HETATM   10  C   UNL     1     -10.797   4.997  73.397  1.00  0.00    -0.299 C  
HETATM   11  O   UNL     1     -10.858   3.648  73.485  1.00  0.00    -0.195 OA 
HETATM   12  O   UNL     1     -11.689   5.644  72.869  1.00  0.00    -0.250 OA 
HETATM   13  C   UNL     1      -9.331   7.794  72.774  1.00  0.00    -0.263 C  
ENDBRANCH   2   5
TORSDOF 1
ENDMDL
MODEL      172
REMARK 921   NORMALIZED FREE ENERGY PREDICTED BY IDOCK:   -1.71 KCAL/MOL
REMARK 922        TOTAL FREE ENERGY PREDICTED BY IDOCK:   -1.85 KCAL/MOL
REMARK 923 INTER-LIGAND FREE ENERGY PREDICTED BY IDOCK:   -1.79 KCAL/MOL
REMARK 924 INTRA-LIGAND FREE ENERGY PREDICTED BY IDOCK:   -0.06 KCAL/MOL
REMARK 927      BINDING AFFINITY PREDICTED BY RF-SCORE:    0.00 PKD
ROOT
HETATM    1  N   UNL     1      -6.242   3.345  70.805  1.00  0.00    -0.018 NA 
HETATM    2  C   UNL     1      -7.612   3.764  70.530  1.00  0.00    -0.041 C  
HETATM    3  H1  UNL     1      -6.164   2.329  70.867  1.00  0.00     0.000 HD 
HETATM    4  H2  UNL     1      -5.875   3.799  71.642  1.00  0.00     0.000 HD 
ENDROOT
BRANCH   2   5
HETATM    5  C   UNL     1      -7.730   5.298  70.436  1.00  0.00    -0.076 C  
HETATM    6  C   UNL     1      -9.174   5.788  70.239  1.00  0.00    -0.174 C  
HETATM    7  C   UNL     1     -10.036   5.627  71.491  1.00  0.00    -0.230 C  
HETATM    8  C   UNL     1      -9.420   6.303  72.723  1.00  0.00    -0.147 C  
HETATM    9  C   UNL     1      -7.965   5.858  72.929  1.00  0.00    -0.107 C  
HETATM   10  C   UNL     1      -9.546   7.825  72.667  1.00  0.00    -0.202 C  
HETATM   11  O   UNL     1     -10.829   8.256  72.660  1.00  0.00    -0.345 OA 
HETATM   12  O   UNL     1      -8.609   8.608  72.676  1.00  0.00    -0.376 OA 
HETATM   13  C   UNL     1      -7.108   5.978  71.665  1.00  0.00    -0.078 C  
ENDBRANCH   2   5
TORSDOF 1
ENDMDL
MODEL      173
REMARK 921   NORMALIZED FREE ENERGY PREDICTED BY IDOCK:   -1.71 KCAL/MOL
REMARK 922        TOTAL FREE ENERGY PREDICTED BY IDOCK:   -1.85 KCAL/MOL
REMARK 923 INTER-LIGAND FREE ENERGY PREDICTED BY IDOCK:   -1.80 KCAL/MOL
REMARK 924 INTRA-LIGAND FREE ENERGY PREDICTED BY IDOCK:   -0.05 KCAL/MOL
REMARK 927      BINDING AFFINITY PREDICTED BY RF-SCORE:    0.00 PKD
ROOT
HETATM    1  N   UNL     1      -7.058  11.017  70.195  1.00  0.00    -0.461 NA 
HETATM    2  C   UNL     1      -7.805  10.064  69.381  1.00  0.00    -0.141 C  
HETATM    3  H1  UNL     1      -7.577  11.286  71.031  1.00  0.00     0.000 HD 
HETATM    4  H2  UNL     1      -6.779  11.833  69.650  1.00  0.00     0.000 HD 
ENDROOT
BRANCH   2   5
HETATM    5  C   UNL     1      -7.021   9.656  68.118  1.00  0.00    -0.077 C  
HETATM    6  C   UNL     1      -7.676   8.503  67.339  1.00  0.00    -0.098 C  
HETATM    7  C   UNL     1      -8.957   8.921  66.618  1.00  0.00    -0.165 C  
HETATM    8  C   UNL     1      -8.746  10.123  65.688  1.00  0.00    -0.173 C  
HETATM    9  C   UNL     1      -8.064  11.282  66.430  1.00  0.00    -0.138 C  
HETATM   10  C   UNL     1      -7.993   9.740  64.415  1.00  0.00    -0.145 C  
HETATM   11  O   UNL     1      -8.655   8.843  63.650  1.00  0.00    -0.175 OA 
HETATM   12  O   UNL     1      -6.922  10.212  64.065  1.00  0.00    -0.130 OA 
HETATM   13  C   UNL     1      -6.803  10.859  67.188  1.00  0.00    -0.093 C  
ENDBRANCH   2   5
TORSDOF 1
ENDMDL
MODEL      174
REMARK 921   NORMALIZED FREE ENERGY PREDICTED BY IDOCK:   -1.69 KCAL/MOL
REMARK 922        TOTAL FREE ENERGY PREDICTED BY IDOCK:   -1.83 KCAL/MOL
REMARK 923 INTER-LIGAND FREE ENERGY PREDICTED BY IDOCK:   -1.80 KCAL/MOL
REMARK 924 INTRA-LIGAND FREE ENERGY PREDICTED BY IDOCK:   -0.04 KCAL/MOL
REMARK 927      BINDING AFFINITY PREDICTED BY RF-SCORE:    0.00 PKD
ROOT
HETATM    1  N   UNL     1      -7.556   5.129  72.570  1.00  0.00    -0.095 NA 
HETATM    2  C   UNL     1      -8.832   5.079  71.864  1.00  0.00    -0.129 C  
HETATM    3  H1  UNL     1      -7.632   4.741  73.511  1.00  0.00     0.000 HD 
HETATM    4  H2  UNL     1      -7.175   6.074  72.586  1.00  0.00     0.000 HD 
ENDROOT
BRANCH   2   5
HETATM    5  C   UNL     1      -8.718   5.664  70.442  1.00  0.00    -0.135 C  
HETATM    6  C   UNL     1     -10.081   5.959  69.793  1.00  0.00    -0.258 C  
HETATM    7  C   UNL     1     -10.791   7.161  70.415  1.00  0.00    -0.269 C  
HETATM    8  C   UNL     1      -9.926   8.428  70.407  1.00  0.00    -0.199 C  
HETATM    9  C   UNL     1      -8.545   8.157  71.022  1.00  0.00    -0.152 C  
HETATM   10  C   UNL     1      -9.817   9.042  69.012  1.00  0.00    -0.175 C  
HETATM   11  O   UNL     1     -11.006   9.451  68.513  1.00  0.00    -0.148 OA 
HETATM   12  O   UNL     1      -8.775   9.209  68.398  1.00  0.00    -0.128 OA 
HETATM   13  C   UNL     1      -7.847   6.929  70.430  1.00  0.00    -0.109 C  
ENDBRANCH   2   5
TORSDOF 1
ENDMDL
MODEL      175
REMARK 921   NORMALIZED FREE ENERGY PREDICTED BY IDOCK:   -1.65 KCAL/MOL
REMARK 922        TOTAL FREE ENERGY PREDICTED BY IDOCK:   -1.79 KCAL/MOL
REMARK 923 INTER-LIGAND FREE ENERGY PREDICTED BY IDOCK:   -1.83 KCAL/MOL
REMARK 924 INTRA-LIGAND FREE ENERGY PREDICTED BY IDOCK:    0.04 KCAL/MOL
REMARK 927      BINDING AFFINITY PREDICTED BY RF-SCORE:    0.00 PKD
ROOT
HETATM    1  N   UNL     1     -11.282   9.615  68.259  1.00  0.00    -0.513 NA 
HETATM    2  C   UNL     1     -10.616   8.851  69.308  1.00  0.00    -0.207 C  
HETATM    3  H1  UNL     1     -12.238   9.857  68.519  1.00  0.00     0.000 HD 
HETATM    4  H2  UNL     1     -11.251   9.125  67.365  1.00  0.00     0.000 HD 
ENDROOT
BRANCH   2   5
HETATM    5  C   UNL     1      -9.170   8.486  68.916  1.00  0.00    -0.146 C  
HETATM    6  C   UNL     1      -8.646   7.225  69.623  1.00  0.00    -0.137 C  
HETATM    7  C   UNL     1      -9.293   5.939  69.108  1.00  0.00    -0.137 C  
HETATM    8  C   UNL     1      -9.158   5.778  67.588  1.00  0.00    -0.106 C  
HETATM    9  C   UNL     1      -9.645   7.036  66.854  1.00  0.00    -0.214 C  
HETATM   10  C   UNL     1      -7.739   5.391  67.174  1.00  0.00    -0.096 C  
HETATM   11  O   UNL     1      -7.344   4.195  67.669  1.00  0.00    -0.067 OA 
HETATM   12  O   UNL     1      -7.022   6.044  66.433  1.00  0.00    -0.063 OA 
HETATM   13  C   UNL     1      -9.031   8.330  67.394  1.00  0.00    -0.142 C  
ENDBRANCH   2   5
TORSDOF 1
ENDMDL
MODEL      176
REMARK 921   NORMALIZED FREE ENERGY PREDICTED BY IDOCK:   -1.61 KCAL/MOL
REMARK 922        TOTAL FREE ENERGY PREDICTED BY IDOCK:   -1.75 KCAL/MOL
REMARK 923 INTER-LIGAND FREE ENERGY PREDICTED BY IDOCK:   -1.70 KCAL/MOL
REMARK 924 INTRA-LIGAND FREE ENERGY PREDICTED BY IDOCK:   -0.05 KCAL/MOL
REMARK 927      BINDING AFFINITY PREDICTED BY RF-SCORE:    0.00 PKD
ROOT
HETATM    1  N   UNL     1      -5.462   9.086  69.617  1.00  0.00    -0.033 NA 
HETATM    2  C   UNL     1      -5.833   7.894  68.861  1.00  0.00    -0.035 C  
HETATM    3  H1  UNL     1      -4.819   8.863  70.377  1.00  0.00     0.000 HD 
HETATM    4  H2  UNL     1      -6.285   9.582  69.957  1.00  0.00     0.000 HD 
ENDROOT
BRANCH   2   5
HETATM    5  C   UNL     1      -6.804   8.231  67.710  1.00  0.00    -0.070 C  
HETATM    6  C   UNL     1      -7.425   6.987  67.053  1.00  0.00    -0.094 C  
HETATM    7  C   UNL     1      -8.452   6.289  67.945  1.00  0.00    -0.117 C  
HETATM    8  C   UNL     1      -9.562   7.235  68.420  1.00  0.00    -0.139 C  
HETATM    9  C   UNL     1      -8.973   8.504  69.054  1.00  0.00    -0.146 C  
HETATM   10  C   UNL     1     -10.553   7.565  67.305  1.00  0.00    -0.324 C  
HETATM   11  O   UNL     1     -11.218   6.481  66.842  1.00  0.00    -0.387 OA 
HETATM   12  O   UNL     1     -10.785   8.686  66.881  1.00  0.00    -0.252 OA 
HETATM   13  C   UNL     1      -7.913   9.184  68.182  1.00  0.00    -0.100 C  
ENDBRANCH   2   5
TORSDOF 1
ENDMDL
MODEL      177
REMARK 921   NORMALIZED FREE ENERGY PREDICTED BY IDOCK:   -1.59 KCAL/MOL
REMARK 922        TOTAL FREE ENERGY PREDICTED BY IDOCK:   -1.72 KCAL/MOL
REMARK 923 INTER-LIGAND FREE ENERGY PREDICTED BY IDOCK:   -1.69 KCAL/MOL
REMARK 924 INTRA-LIGAND FREE ENERGY PREDICTED BY IDOCK:   -0.03 KCAL/MOL
REMARK 927      BINDING AFFINITY PREDICTED BY RF-SCORE:    0.00 PKD
ROOT
HETATM    1  N   UNL     1      -8.961   4.268  73.987  1.00  0.00    -0.095 NA 
HETATM    2  C   UNL     1      -8.562   4.717  72.658  1.00  0.00    -0.115 C  
HETATM    3  H1  UNL     1      -8.273   3.633  74.392  1.00  0.00     0.000 HD 
HETATM    4  H2  UNL     1      -9.892   3.851  73.975  1.00  0.00     0.000 HD 
ENDROOT
BRANCH   2   5
HETATM    5  C   UNL     1      -9.601   5.678  72.045  1.00  0.00    -0.173 C  
HETATM    6  C   UNL     1      -9.388   7.145  72.452  1.00  0.00    -0.155 C  
HETATM    7  C   UNL     1      -8.163   7.776  71.792  1.00  0.00    -0.126 C  
HETATM    8  C   UNL     1      -8.188   7.658  70.262  1.00  0.00    -0.123 C  
HETATM    9  C   UNL     1      -8.430   6.206  69.825  1.00  0.00    -0.128 C  
HETATM   10  C   UNL     1      -9.193   8.619  69.628  1.00  0.00    -0.157 C  
HETATM   11  O   UNL     1      -8.905   9.921  69.853  1.00  0.00    -0.203 OA 
HETATM   12  O   UNL     1     -10.144   8.285  68.939  1.00  0.00    -0.189 OA 
HETATM   13  C   UNL     1      -9.633   5.556  70.514  1.00  0.00    -0.225 C  
ENDBRANCH   2   5
TORSDOF 1
ENDMDL
MODEL      178
REMARK 921   NORMALIZED FREE ENERGY PREDICTED BY IDOCK:   -1.56 KCAL/MOL
REMARK 922        TOTAL FREE ENERGY PREDICTED BY IDOCK:   -1.70 KCAL/MOL
REMARK 923 INTER-LIGAND FREE ENERGY PREDICTED BY IDOCK:   -2.25 KCAL/MOL
REMARK 924 INTRA-LIGAND FREE ENERGY PREDICTED BY IDOCK:    0.55 KCAL/MOL
REMARK 927      BINDING AFFINITY PREDICTED BY RF-SCORE:    0.00 PKD
ROOT
HETATM    1  N   UNL     1      -7.154   7.983  73.704  1.00  0.00    -0.122 NA 
HETATM    2  C   UNL     1      -7.594   6.596  73.811  1.00  0.00    -0.082 C  
HETATM    3  H1  UNL     1      -6.185   8.094  74.004  1.00  0.00     0.000 HD 
HETATM    4  H2  UNL     1      -7.776   8.611  74.212  1.00  0.00     0.000 HD 
ENDROOT
BRANCH   2   5
HETATM    5  C   UNL     1      -9.059   6.426  73.357  1.00  0.00    -0.136 C  
HETATM    6  C   UNL     1      -9.816   7.759  73.234  1.00  0.00    -0.362 C  
HETATM    7  C   UNL     1      -9.363   8.596  72.039  1.00  0.00    -0.362 C  
HETATM    8  C   UNL     1      -9.443   7.828  70.714  1.00  0.00    -0.163 C  
HETATM    9  C   UNL     1      -8.721   6.476  70.814  1.00  0.00    -0.143 C  
HETATM   10  C   UNL     1     -10.883   7.668  70.228  1.00  0.00    -0.246 C  
HETATM   11  O   UNL     1     -11.493   8.846  69.964  1.00  0.00    -0.131 OA 
HETATM   12  O   UNL     1     -11.445   6.601  70.038  1.00  0.00    -0.358 OA 
HETATM   13  C   UNL     1      -9.142   5.651  72.033  1.00  0.00    -0.145 C  
ENDBRANCH   2   5
TORSDOF 1
ENDMDL
MODEL      179
REMARK 921   NORMALIZED FREE ENERGY PREDICTED BY IDOCK:   -1.56 KCAL/MOL
REMARK 922        TOTAL FREE ENERGY PREDICTED BY IDOCK:   -1.69 KCAL/MOL
REMARK 923 INTER-LIGAND FREE ENERGY PREDICTED BY IDOCK:   -1.65 KCAL/MOL
REMARK 924 INTRA-LIGAND FREE ENERGY PREDICTED BY IDOCK:   -0.04 KCAL/MOL
REMARK 927      BINDING AFFINITY PREDICTED BY RF-SCORE:    0.00 PKD
ROOT
HETATM    1  N   UNL     1      -7.657  10.086  67.212  1.00  0.00    -0.095 NA 
HETATM    2  C   UNL     1      -7.573   8.690  67.628  1.00  0.00    -0.098 C  
HETATM    3  H1  UNL     1      -7.370  10.719  67.959  1.00  0.00     0.000 HD 
HETATM    4  H2  UNL     1      -8.588  10.316  66.866  1.00  0.00     0.000 HD 
ENDROOT
BRANCH   2   5
HETATM    5  C   UNL     1      -8.006   7.733  66.499  1.00  0.00    -0.106 C  
HETATM    6  C   UNL     1      -7.386   6.331  66.617  1.00  0.00    -0.078 C  
HETATM    7  C   UNL     1      -7.972   5.513  67.768  1.00  0.00    -0.101 C  
HETATM    8  C   UNL     1      -9.501   5.402  67.697  1.00  0.00    -0.132 C  
HETATM    9  C   UNL     1     -10.148   6.786  67.547  1.00  0.00    -0.215 C  
HETATM   10  C   UNL     1      -9.957   4.439  66.601  1.00  0.00    -0.210 C  
HETATM   11  O   UNL     1      -9.542   3.167  66.801  1.00  0.00    -0.121 OA 
HETATM   12  O   UNL     1     -10.665   4.739  65.653  1.00  0.00    -0.274 OA 
HETATM   13  C   UNL     1      -9.537   7.625  66.421  1.00  0.00    -0.223 C  
ENDBRANCH   2   5
TORSDOF 1
ENDMDL
MODEL      180
REMARK 921   NORMALIZED FREE ENERGY PREDICTED BY IDOCK:   -1.50 KCAL/MOL
REMARK 922        TOTAL FREE ENERGY PREDICTED BY IDOCK:   -1.63 KCAL/MOL
REMARK 923 INTER-LIGAND FREE ENERGY PREDICTED BY IDOCK:   -1.58 KCAL/MOL
REMARK 924 INTRA-LIGAND FREE ENERGY PREDICTED BY IDOCK:   -0.05 KCAL/MOL
REMARK 927      BINDING AFFINITY PREDICTED BY RF-SCORE:    0.00 PKD
ROOT
HETATM    1  N   UNL     1      -9.447  11.978  68.923  1.00  0.00    -0.407 NA 
HETATM    2  C   UNL     1      -8.634  11.765  67.731  1.00  0.00    -0.151 C  
HETATM    3  H1  UNL     1     -10.029  12.813  68.837  1.00  0.00     0.000 HD 
HETATM    4  H2  UNL     1      -8.873  12.010  69.765  1.00  0.00     0.000 HD 
ENDROOT
BRANCH   2   5
HETATM    5  C   UNL     1      -7.756  10.504  67.860  1.00  0.00    -0.092 C  
HETATM    6  C   UNL     1      -8.567   9.200  67.933  1.00  0.00    -0.121 C  
HETATM    7  C   UNL     1      -9.213   8.823  66.600  1.00  0.00    -0.223 C  
HETATM    8  C   UNL     1      -8.197   8.739  65.453  1.00  0.00    -0.137 C  
HETATM    9  C   UNL     1      -7.348  10.017  65.374  1.00  0.00    -0.139 C  
HETATM   10  C   UNL     1      -7.329   7.485  65.543  1.00  0.00    -0.071 C  
HETATM   11  O   UNL     1      -8.037   6.336  65.441  1.00  0.00    -0.118 OA 
HETATM   12  O   UNL     1      -6.113   7.479  65.648  1.00  0.00    -0.037 OA 
HETATM   13  C   UNL     1      -6.733  10.422  66.717  1.00  0.00    -0.086 C  
ENDBRANCH   2   5
TORSDOF 1
ENDMDL
MODEL      181
REMARK 921   NORMALIZED FREE ENERGY PREDICTED BY IDOCK:   -1.45 KCAL/MOL
REMARK 922        TOTAL FREE ENERGY PREDICTED BY IDOCK:   -1.58 KCAL/MOL
REMARK 923 INTER-LIGAND FREE ENERGY PREDICTED BY IDOCK:   -1.52 KCAL/MOL
REMARK 924 INTRA-LIGAND FREE ENERGY PREDICTED BY IDOCK:   -0.06 KCAL/MOL
REMARK 927      BINDING AFFINITY PREDICTED BY RF-SCORE:    0.00 PKD
ROOT
HETATM    1  N   UNL     1     -10.218   8.840  66.085  1.00  0.00    -0.381 NA 
HETATM    2  C   UNL     1      -9.700   9.967  66.854  1.00  0.00    -0.186 C  
HETATM    3  H1  UNL     1     -10.405   9.100  65.116  1.00  0.00     0.000 HD 
HETATM    4  H2  UNL     1     -11.041   8.434  66.528  1.00  0.00     0.000 HD 
ENDROOT
BRANCH   2   5
HETATM    5  C   UNL     1      -9.416   9.574  68.318  1.00  0.00    -0.143 C  
HETATM    6  C   UNL     1      -8.407   8.422  68.455  1.00  0.00    -0.131 C  
HETATM    7  C   UNL     1      -6.977   8.835  68.108  1.00  0.00    -0.074 C  
HETATM    8  C   UNL     1      -6.498  10.045  68.920  1.00  0.00    -0.048 C  
HETATM    9  C   UNL     1      -7.501  11.204  68.828  1.00  0.00    -0.118 C  
HETATM   10  C   UNL     1      -6.185   9.678  70.369  1.00  0.00    -0.071 C  
HETATM   11  O   UNL     1      -5.179   8.781  70.489  1.00  0.00    -0.021 OA 
HETATM   12  O   UNL     1      -6.731  10.160  71.349  1.00  0.00    -0.247 OA 
HETATM   13  C   UNL     1      -8.942  10.786  69.134  1.00  0.00    -0.100 C  
ENDBRANCH   2   5
TORSDOF 1
ENDMDL
MODEL      182
REMARK 921   NORMALIZED FREE ENERGY PREDICTED BY IDOCK:   -1.44 KCAL/MOL
REMARK 922        TOTAL FREE ENERGY PREDICTED BY IDOCK:   -1.57 KCAL/MOL
REMARK 923 INTER-LIGAND FREE ENERGY PREDICTED BY IDOCK:   -1.51 KCAL/MOL
REMARK 924 INTRA-LIGAND FREE ENERGY PREDICTED BY IDOCK:   -0.06 KCAL/MOL
REMARK 927      BINDING AFFINITY PREDICTED BY RF-SCORE:    0.00 PKD
ROOT
HETATM    1  N   UNL     1      -6.375   9.973  66.881  1.00  0.00    -0.064 NA 
HETATM    2  C   UNL     1      -7.313  10.055  67.995  1.00  0.00    -0.087 C  
HETATM    3  H1  UNL     1      -6.380  10.826  66.321  1.00  0.00     0.000 HD 
HETATM    4  H2  UNL     1      -6.550   9.148  66.306  1.00  0.00     0.000 HD 
ENDROOT
BRANCH   2   5
HETATM    5  C   UNL     1      -7.305   8.766  68.842  1.00  0.00    -0.078 C  
HETATM    6  C   UNL     1      -8.367   8.760  69.954  1.00  0.00    -0.125 C  
HETATM    7  C   UNL     1      -9.790   8.604  69.420  1.00  0.00    -0.184 C  
HETATM    8  C   UNL     1      -9.957   7.362  68.535  1.00  0.00    -0.172 C  
HETATM    9  C   UNL     1      -8.889   7.323  67.432  1.00  0.00    -0.119 C  
HETATM   10  C   UNL     1      -9.977   6.071  69.352  1.00  0.00    -0.174 C  
HETATM   11  O   UNL     1     -11.015   6.002  70.218  1.00  0.00    -0.301 OA 
HETATM   12  O   UNL     1      -9.184   5.152  69.231  1.00  0.00    -0.102 OA 
HETATM   13  C   UNL     1      -7.465   7.520  67.957  1.00  0.00    -0.105 C  
ENDBRANCH   2   5
TORSDOF 1
ENDMDL
MODEL      183
REMARK 921   NORMALIZED FREE ENERGY PREDICTED BY IDOCK:   -1.44 KCAL/MOL
REMARK 922        TOTAL FREE ENERGY PREDICTED BY IDOCK:   -1.56 KCAL/MOL
REMARK 923 INTER-LIGAND FREE ENERGY PREDICTED BY IDOCK:   -1.63 KCAL/MOL
REMARK 924 INTRA-LIGAND FREE ENERGY PREDICTED BY IDOCK:    0.07 KCAL/MOL
REMARK 927      BINDING AFFINITY PREDICTED BY RF-SCORE:    0.00 PKD
ROOT
HETATM    1  N   UNL     1      -5.759  10.333  66.634  1.00  0.00    -0.053 NA 
HETATM    2  C   UNL     1      -6.675  10.333  67.770  1.00  0.00    -0.073 C  
HETATM    3  H1  UNL     1      -5.493  11.281  66.366  1.00  0.00     0.000 HD 
HETATM    4  H2  UNL     1      -6.146   9.817  65.844  1.00  0.00     0.000 HD 
ENDROOT
BRANCH   2   5
HETATM    5  C   UNL     1      -7.077   8.900  68.175  1.00  0.00    -0.078 C  
HETATM    6  C   UNL     1      -8.467   8.819  68.829  1.00  0.00    -0.129 C  
HETATM    7  C   UNL     1      -9.608   9.043  67.837  1.00  0.00    -0.170 C  
HETATM    8  C   UNL     1      -9.541   8.091  66.635  1.00  0.00    -0.297 C  
HETATM    9  C   UNL     1      -8.153   8.126  65.979  1.00  0.00    -0.112 C  
HETATM   10  C   UNL     1      -9.960   6.669  67.004  1.00  0.00    -0.169 C  
HETATM   11  O   UNL     1     -11.243   6.580  67.425  1.00  0.00    -0.359 OA 
HETATM   12  O   UNL     1      -9.253   5.679  66.897  1.00  0.00    -0.117 OA 
HETATM   13  C   UNL     1      -7.005   7.944  66.975  1.00  0.00    -0.074 C  
ENDBRANCH   2   5
TORSDOF 1
ENDMDL
MODEL      184
REMARK 921   NORMALIZED FREE ENERGY PREDICTED BY IDOCK:   -1.42 KCAL/MOL
REMARK 922        TOTAL FREE ENERGY PREDICTED BY IDOCK:   -1.55 KCAL/MOL
REMARK 923 INTER-LIGAND FREE ENERGY PREDICTED BY IDOCK:   -1.52 KCAL/MOL
REMARK 924 INTRA-LIGAND FREE ENERGY PREDICTED BY IDOCK:   -0.03 KCAL/MOL
REMARK 927      BINDING AFFINITY PREDICTED BY RF-SCORE:    0.00 PKD
ROOT
HETATM    1  N   UNL     1     -10.923   9.493  67.720  1.00  0.00    -0.495 NA 
HETATM    2  C   UNL     1     -10.616   8.327  68.542  1.00  0.00    -0.100 C  
HETATM    3  H1  UNL     1     -11.922   9.701  67.719  1.00  0.00     0.000 HD 
HETATM    4  H2  UNL     1     -10.564   9.384  66.771  1.00  0.00     0.000 HD 
ENDROOT
BRANCH   2   5
HETATM    5  C   UNL     1      -9.106   8.013  68.544  1.00  0.00    -0.136 C  
HETATM    6  C   UNL     1      -8.406   8.393  69.859  1.00  0.00    -0.124 C  
HETATM    7  C   UNL     1      -8.774   7.470  71.020  1.00  0.00    -0.134 C  
HETATM    8  C   UNL     1      -8.519   5.991  70.703  1.00  0.00    -0.133 C  
HETATM    9  C   UNL     1      -9.181   5.588  69.378  1.00  0.00    -0.145 C  
HETATM   10  C   UNL     1      -7.030   5.646  70.723  1.00  0.00    -0.057 C  
HETATM   11  O   UNL     1      -6.455   5.829  71.934  1.00  0.00    -0.049 OA 
HETATM   12  O   UNL     1      -6.400   5.203  69.777  1.00  0.00    -0.028 OA 
HETATM   13  C   UNL     1      -8.848   6.534  68.220  1.00  0.00    -0.119 C  
ENDBRANCH   2   5
TORSDOF 1
ENDMDL
MODEL      185
REMARK 921   NORMALIZED FREE ENERGY PREDICTED BY IDOCK:   -1.41 KCAL/MOL
REMARK 922        TOTAL FREE ENERGY PREDICTED BY IDOCK:   -1.53 KCAL/MOL
REMARK 923 INTER-LIGAND FREE ENERGY PREDICTED BY IDOCK:   -1.54 KCAL/MOL
REMARK 924 INTRA-LIGAND FREE ENERGY PREDICTED BY IDOCK:    0.01 KCAL/MOL
REMARK 927      BINDING AFFINITY PREDICTED BY RF-SCORE:    0.00 PKD
ROOT
HETATM    1  N   UNL     1      -5.412   8.958  66.291  1.00  0.00    -0.037 NA 
HETATM    2  C   UNL     1      -6.388   9.252  67.335  1.00  0.00    -0.062 C  
HETATM    3  H1  UNL     1      -4.455   9.072  66.628  1.00  0.00     0.000 HD 
HETATM    4  H2  UNL     1      -5.581   9.517  65.455  1.00  0.00     0.000 HD 
ENDROOT
BRANCH   2   5
HETATM    5  C   UNL     1      -7.834   9.079  66.827  1.00  0.00    -0.104 C  
HETATM    6  C   UNL     1      -7.984   7.956  65.787  1.00  0.00    -0.109 C  
HETATM    7  C   UNL     1      -7.848   6.559  66.391  1.00  0.00    -0.104 C  
HETATM    8  C   UNL     1      -8.817   6.322  67.557  1.00  0.00    -0.103 C  
HETATM    9  C   UNL     1      -8.712   7.445  68.599  1.00  0.00    -0.128 C  
HETATM   10  C   UNL     1     -10.254   6.123  67.079  1.00  0.00    -0.202 C  
HETATM   11  O   UNL     1     -10.411   5.033  66.293  1.00  0.00    -0.246 OA 
HETATM   12  O   UNL     1     -11.202   6.826  67.392  1.00  0.00    -0.313 OA 
HETATM   13  C   UNL     1      -8.807   8.848  67.993  1.00  0.00    -0.133 C  
ENDBRANCH   2   5
TORSDOF 1
ENDMDL
MODEL      186
REMARK 921   NORMALIZED FREE ENERGY PREDICTED BY IDOCK:   -1.37 KCAL/MOL
REMARK 922        TOTAL FREE ENERGY PREDICTED BY IDOCK:   -1.49 KCAL/MOL
REMARK 923 INTER-LIGAND FREE ENERGY PREDICTED BY IDOCK:   -1.47 KCAL/MOL
REMARK 924 INTRA-LIGAND FREE ENERGY PREDICTED BY IDOCK:   -0.03 KCAL/MOL
REMARK 927      BINDING AFFINITY PREDICTED BY RF-SCORE:    0.00 PKD
ROOT
HETATM    1  N   UNL     1      -7.239   6.266  63.763  1.00  0.00    -0.057 NA 
HETATM    2  C   UNL     1      -7.966   6.361  65.025  1.00  0.00    -0.120 C  
HETATM    3  H1  UNL     1      -7.388   7.090  63.180  1.00  0.00     0.000 HD 
HETATM    4  H2  UNL     1      -7.472   5.409  63.263  1.00  0.00     0.000 HD 
ENDROOT
BRANCH   2   5
HETATM    5  C   UNL     1      -7.740   5.116  65.906  1.00  0.00    -0.091 C  
HETATM    6  C   UNL     1      -7.292   5.456  67.338  1.00  0.00    -0.083 C  
HETATM    7  C   UNL     1      -8.409   6.065  68.184  1.00  0.00    -0.113 C  
HETATM    8  C   UNL     1      -9.666   5.185  68.227  1.00  0.00    -0.191 C  
HETATM    9  C   UNL     1     -10.120   4.803  66.811  1.00  0.00    -0.261 C  
HETATM   10  C   UNL     1      -9.478   3.956  69.115  1.00  0.00    -0.176 C  
HETATM   11  O   UNL     1      -9.246   4.263  70.412  1.00  0.00    -0.098 OA 
HETATM   12  O   UNL     1      -9.569   2.798  68.739  1.00  0.00    -0.153 OA 
HETATM   13  C   UNL     1      -8.994   4.230  65.945  1.00  0.00    -0.124 C  
ENDBRANCH   2   5
TORSDOF 1
ENDMDL
MODEL      187
REMARK 921   NORMALIZED FREE ENERGY PREDICTED BY IDOCK:   -1.37 KCAL/MOL
REMARK 922        TOTAL FREE ENERGY PREDICTED BY IDOCK:   -1.49 KCAL/MOL
REMARK 923 INTER-LIGAND FREE ENERGY PREDICTED BY IDOCK:   -1.79 KCAL/MOL
REMARK 924 INTRA-LIGAND FREE ENERGY PREDICTED BY IDOCK:    0.30 KCAL/MOL
REMARK 927      BINDING AFFINITY PREDICTED BY RF-SCORE:    0.00 PKD
ROOT
HETATM    1  N   UNL     1      -9.490   3.157  66.825  1.00  0.00    -0.374 NA 
HETATM    2  C   UNL     1      -9.131   4.534  67.147  1.00  0.00    -0.126 C  
HETATM    3  H1  UNL     1     -10.087   3.107  65.999  1.00  0.00     0.000 HD 
HETATM    4  H2  UNL     1      -9.917   2.686  67.622  1.00  0.00     0.000 HD 
ENDROOT
BRANCH   2   5
HETATM    5  C   UNL     1      -8.228   4.609  68.395  1.00  0.00    -0.083 C  
HETATM    6  C   UNL     1      -8.687   5.661  69.418  1.00  0.00    -0.109 C  
HETATM    7  C   UNL     1      -9.964   5.259  70.156  1.00  0.00    -0.313 C  
HETATM    8  C   UNL     1      -9.848   3.888  70.835  1.00  0.00    -0.213 C  
HETATM    9  C   UNL     1      -9.360   2.821  69.845  1.00  0.00    -0.202 C  
HETATM   10  C   UNL     1      -8.977   3.940  72.090  1.00  0.00    -0.113 C  
HETATM   11  O   UNL     1      -9.476   4.745  73.055  1.00  0.00    -0.128 OA 
HETATM   12  O   UNL     1      -7.954   3.296  72.261  1.00  0.00    -0.058 OA 
HETATM   13  C   UNL     1      -8.104   3.236  69.073  1.00  0.00    -0.072 C  
ENDBRANCH   2   5
TORSDOF 1
ENDMDL
MODEL      188
REMARK 921   NORMALIZED FREE ENERGY PREDICTED BY IDOCK:   -1.37 KCAL/MOL
REMARK 922        TOTAL FREE ENERGY PREDICTED BY IDOCK:   -1.49 KCAL/MOL
REMARK 923 INTER-LIGAND FREE ENERGY PREDICTED BY IDOCK:   -1.46 KCAL/MOL
REMARK 924 INTRA-LIGAND FREE ENERGY PREDICTED BY IDOCK:   -0.03 KCAL/MOL
REMARK 927      BINDING AFFINITY PREDICTED BY RF-SCORE:    0.00 PKD
ROOT
HETATM    1  N   UNL     1      -5.710   7.311  69.166  1.00  0.00    -0.018 NA 
HETATM    2  C   UNL     1      -6.096   8.484  68.390  1.00  0.00    -0.050 C  
HETATM    3  H1  UNL     1      -4.696   7.215  69.225  1.00  0.00     0.000 HD 
HETATM    4  H2  UNL     1      -6.144   6.463  68.801  1.00  0.00     0.000 HD 
ENDROOT
BRANCH   2   5
HETATM    5  C   UNL     1      -7.628   8.630  68.302  1.00  0.00    -0.097 C  
HETATM    6  C   UNL     1      -8.206   9.625  69.322  1.00  0.00    -0.123 C  
HETATM    7  C   UNL     1      -7.877  11.080  68.990  1.00  0.00    -0.126 C  
HETATM    8  C   UNL     1      -8.312  11.476  67.573  1.00  0.00    -0.143 C  
HETATM    9  C   UNL     1      -7.776  10.481  66.533  1.00  0.00    -0.131 C  
HETATM   10  C   UNL     1      -9.826  11.651  67.464  1.00  0.00    -0.188 C  
HETATM   11  O   UNL     1     -10.308  12.644  68.247  1.00  0.00    -0.229 OA 
HETATM   12  O   UNL     1     -10.555  11.013  66.722  1.00  0.00    -0.244 OA 
HETATM   13  C   UNL     1      -8.067   9.019  66.883  1.00  0.00    -0.112 C  
ENDBRANCH   2   5
TORSDOF 1
ENDMDL
MODEL      189
REMARK 921   NORMALIZED FREE ENERGY PREDICTED BY IDOCK:   -1.35 KCAL/MOL
REMARK 922        TOTAL FREE ENERGY PREDICTED BY IDOCK:   -1.47 KCAL/MOL
REMARK 923 INTER-LIGAND FREE ENERGY PREDICTED BY IDOCK:   -1.41 KCAL/MOL
REMARK 924 INTRA-LIGAND FREE ENERGY PREDICTED BY IDOCK:   -0.06 KCAL/MOL
REMARK 927      BINDING AFFINITY PREDICTED BY RF-SCORE:    0.00 PKD
ROOT
HETATM    1  N   UNL     1      -8.462   9.407  70.228  1.00  0.00    -0.195 NA 
HETATM    2  C   UNL     1      -9.160   8.338  69.522  1.00  0.00    -0.154 C  
HETATM    3  H1  UNL     1      -9.113  10.023  70.715  1.00  0.00     0.000 HD 
HETATM    4  H2  UNL     1      -7.851   9.930  69.602  1.00  0.00     0.000 HD 
ENDROOT
BRANCH   2   5
HETATM    5  C   UNL     1      -8.176   7.405  68.786  1.00  0.00    -0.129 C  
HETATM    6  C   UNL     1      -8.873   6.291  67.988  1.00  0.00    -0.112 C  
HETATM    7  C   UNL     1      -9.585   6.807  66.739  1.00  0.00    -0.210 C  
HETATM    8  C   UNL     1      -8.656   7.605  65.815  1.00  0.00    -0.156 C  
HETATM    9  C   UNL     1      -7.920   8.708  66.591  1.00  0.00    -0.096 C  
HETATM   10  C   UNL     1      -7.686   6.702  65.055  1.00  0.00    -0.103 C  
HETATM   11  O   UNL     1      -8.305   5.830  64.226  1.00  0.00    -0.126 OA 
HETATM   12  O   UNL     1      -6.469   6.764  65.123  1.00  0.00    -0.041 OA 
HETATM   13  C   UNL     1      -7.239   8.203  67.866  1.00  0.00    -0.091 C  
ENDBRANCH   2   5
TORSDOF 1
ENDMDL
MODEL      190
REMARK 921   NORMALIZED FREE ENERGY PREDICTED BY IDOCK:   -1.34 KCAL/MOL
REMARK 922        TOTAL FREE ENERGY PREDICTED BY IDOCK:   -1.46 KCAL/MOL
REMARK 923 INTER-LIGAND FREE ENERGY PREDICTED BY IDOCK:   -1.42 KCAL/MOL
REMARK 924 INTRA-LIGAND FREE ENERGY PREDICTED BY IDOCK:   -0.04 KCAL/MOL
REMARK 927      BINDING AFFINITY PREDICTED BY RF-SCORE:    0.00 PKD
ROOT
HETATM    1  N   UNL     1     -11.504  10.073  70.315  1.00  0.00    -0.283 NA 
HETATM    2  C   UNL     1     -10.716   9.110  69.553  1.00  0.00    -0.215 C  
HETATM    3  H1  UNL     1     -12.197  10.540  69.730  1.00  0.00     0.000 HD 
HETATM    4  H2  UNL     1     -10.906  10.747  70.794  1.00  0.00     0.000 HD 
ENDROOT
BRANCH   2   5
HETATM    5  C   UNL     1      -9.669   8.404  70.438  1.00  0.00    -0.185 C  
HETATM    6  C   UNL     1      -9.176   7.070  69.853  1.00  0.00    -0.144 C  
HETATM    7  C   UNL     1      -8.275   7.250  68.632  1.00  0.00    -0.125 C  
HETATM    8  C   UNL     1      -7.079   8.169  68.910  1.00  0.00    -0.066 C  
HETATM    9  C   UNL     1      -7.537   9.500  69.525  1.00  0.00    -0.096 C  
HETATM   10  C   UNL     1      -6.013   7.485  69.766  1.00  0.00    -0.024 C  
HETATM   11  O   UNL     1      -5.465   6.401  69.171  1.00  0.00    -0.011 OA 
HETATM   12  O   UNL     1      -5.633   7.875  70.858  1.00  0.00    -0.030 OA 
HETATM   13  C   UNL     1      -8.473   9.325  70.724  1.00  0.00    -0.244 C  
ENDBRANCH   2   5
TORSDOF 1
ENDMDL
MODEL      191
REMARK 921   NORMALIZED FREE ENERGY PREDICTED BY IDOCK:   -1.32 KCAL/MOL
REMARK 922        TOTAL FREE ENERGY PREDICTED BY IDOCK:   -1.44 KCAL/MOL
REMARK 923 INTER-LIGAND FREE ENERGY PREDICTED BY IDOCK:   -1.41 KCAL/MOL
REMARK 924 INTRA-LIGAND FREE ENERGY PREDICTED BY IDOCK:   -0.03 KCAL/MOL
REMARK 927      BINDING AFFINITY PREDICTED BY RF-SCORE:    0.00 PKD
ROOT
HETATM    1  N   UNL     1      -9.302   9.112  67.255  1.00  0.00    -0.133 NA 
HETATM    2  C   UNL     1      -8.932   7.917  68.007  1.00  0.00    -0.127 C  
HETATM    3  H1  UNL     1      -9.246   9.952  67.832  1.00  0.00     0.000 HD 
HETATM    4  H2  UNL     1     -10.223   9.014  66.829  1.00  0.00     0.000 HD 
ENDROOT
BRANCH   2   5
HETATM    5  C   UNL     1      -9.017   6.648  67.135  1.00  0.00    -0.118 C  
HETATM    6  C   UNL     1      -7.712   5.836  67.113  1.00  0.00    -0.101 C  
HETATM    7  C   UNL     1      -7.432   5.118  68.433  1.00  0.00    -0.075 C  
HETATM    8  C   UNL     1      -8.595   4.222  68.878  1.00  0.00    -0.107 C  
HETATM    9  C   UNL     1      -9.920   4.998  68.880  1.00  0.00    -0.236 C  
HETATM   10  C   UNL     1      -8.686   2.943  68.046  1.00  0.00    -0.107 C  
HETATM   11  O   UNL     1      -7.596   2.151  68.161  1.00  0.00    -0.054 OA 
HETATM   12  O   UNL     1      -9.649   2.612  67.372  1.00  0.00    -0.114 OA 
HETATM   13  C   UNL     1     -10.185   5.752  67.574  1.00  0.00    -0.239 C  
ENDBRANCH   2   5
TORSDOF 1
ENDMDL
MODEL      192
REMARK 921   NORMALIZED FREE ENERGY PREDICTED BY IDOCK:   -1.31 KCAL/MOL
REMARK 922        TOTAL FREE ENERGY PREDICTED BY IDOCK:   -1.43 KCAL/MOL
REMARK 923 INTER-LIGAND FREE ENERGY PREDICTED BY IDOCK:   -1.39 KCAL/MOL
REMARK 924 INTRA-LIGAND FREE ENERGY PREDICTED BY IDOCK:   -0.04 KCAL/MOL
REMARK 927      BINDING AFFINITY PREDICTED BY RF-SCORE:    0.00 PKD
ROOT
HETATM    1  N   UNL     1      -6.380   7.628  69.791  1.00  0.00    -0.030 NA 
HETATM    2  C   UNL     1      -7.701   7.011  69.729  1.00  0.00    -0.109 C  
HETATM    3  H1  UNL     1      -6.439   8.646  69.765  1.00  0.00     0.000 HD 
HETATM    4  H2  UNL     1      -5.768   7.271  69.058  1.00  0.00     0.000 HD 
ENDROOT
BRANCH   2   5
HETATM    5  C   UNL     1      -7.613   5.472  69.769  1.00  0.00    -0.074 C  
HETATM    6  C   UNL     1      -7.366   4.912  71.180  1.00  0.00    -0.068 C  
HETATM    7  C   UNL     1      -8.585   5.038  72.094  1.00  0.00    -0.125 C  
HETATM    8  C   UNL     1      -9.843   4.399  71.494  1.00  0.00    -0.259 C  
HETATM    9  C   UNL     1     -10.100   4.915  70.070  1.00  0.00    -0.337 C  
HETATM   10  C   UNL     1      -9.793   2.873  71.544  1.00  0.00    -0.125 C  
HETATM   11  O   UNL     1      -9.741   2.380  72.803  1.00  0.00    -0.098 OA 
HETATM   12  O   UNL     1      -9.843   2.136  70.572  1.00  0.00    -0.043 OA 
HETATM   13  C   UNL     1      -8.870   4.830  69.162  1.00  0.00    -0.122 C  
ENDBRANCH   2   5
TORSDOF 1
ENDMDL
MODEL      193
REMARK 921   NORMALIZED FREE ENERGY PREDICTED BY IDOCK:   -1.30 KCAL/MOL
REMARK 922        TOTAL FREE ENERGY PREDICTED BY IDOCK:   -1.42 KCAL/MOL
REMARK 923 INTER-LIGAND FREE ENERGY PREDICTED BY IDOCK:   -1.39 KCAL/MOL
REMARK 924 INTRA-LIGAND FREE ENERGY PREDICTED BY IDOCK:   -0.03 KCAL/MOL
REMARK 927      BINDING AFFINITY PREDICTED BY RF-SCORE:    0.00 PKD
ROOT
HETATM    1  N   UNL     1     -10.633   5.743  72.346  1.00  0.00    -0.211 NA 
HETATM    2  C   UNL     1      -9.375   6.358  71.938  1.00  0.00    -0.152 C  
HETATM    3  H1  UNL     1     -10.500   5.089  73.119  1.00  0.00     0.000 HD 
HETATM    4  H2  UNL     1     -11.103   5.298  71.558  1.00  0.00     0.000 HD 
ENDROOT
BRANCH   2   5
HETATM    5  C   UNL     1      -9.576   7.346  70.772  1.00  0.00    -0.170 C  
HETATM    6  C   UNL     1      -8.991   8.741  71.047  1.00  0.00    -0.269 C  
HETATM    7  C   UNL     1      -7.463   8.763  71.027  1.00  0.00    -0.105 C  
HETATM    8  C   UNL     1      -6.880   8.203  69.724  1.00  0.00    -0.040 C  
HETATM    9  C   UNL     1      -7.470   6.821  69.405  1.00  0.00    -0.094 C  
HETATM   10  C   UNL     1      -7.045   9.174  68.556  1.00  0.00    -0.072 C  
HETATM   11  O   UNL     1      -6.388  10.343  68.735  1.00  0.00    -0.047 OA 
HETATM   12  O   UNL     1      -7.657   8.938  67.526  1.00  0.00    -0.091 OA 
HETATM   13  C   UNL     1      -8.999   6.784  69.463  1.00  0.00    -0.139 C  
ENDBRANCH   2   5
TORSDOF 1
ENDMDL
MODEL      194
REMARK 921   NORMALIZED FREE ENERGY PREDICTED BY IDOCK:   -1.18 KCAL/MOL
REMARK 922        TOTAL FREE ENERGY PREDICTED BY IDOCK:   -1.29 KCAL/MOL
REMARK 923 INTER-LIGAND FREE ENERGY PREDICTED BY IDOCK:   -1.27 KCAL/MOL
REMARK 924 INTRA-LIGAND FREE ENERGY PREDICTED BY IDOCK:   -0.03 KCAL/MOL
REMARK 927      BINDING AFFINITY PREDICTED BY RF-SCORE:    0.00 PKD
ROOT
HETATM    1  N   UNL     1      -7.692   2.701  72.124  1.00  0.00    -0.052 NA 
HETATM    2  C   UNL     1      -7.765   3.062  70.713  1.00  0.00    -0.039 C  
HETATM    3  H1  UNL     1      -7.302   1.767  72.254  1.00  0.00     0.000 HD 
HETATM    4  H2  UNL     1      -8.600   2.792  72.580  1.00  0.00     0.000 HD 
ENDROOT
BRANCH   2   5
HETATM    5  C   UNL     1      -8.354   4.474  70.516  1.00  0.00    -0.087 C  
HETATM    6  C   UNL     1      -7.447   5.403  69.693  1.00  0.00    -0.066 C  
HETATM    7  C   UNL     1      -7.397   5.030  68.211  1.00  0.00    -0.074 C  
HETATM    8  C   UNL     1      -8.790   4.962  67.571  1.00  0.00    -0.105 C  
HETATM    9  C   UNL     1      -9.730   4.064  68.389  1.00  0.00    -0.135 C  
HETATM   10  C   UNL     1      -9.386   6.350  67.342  1.00  0.00    -0.116 C  
HETATM   11  O   UNL     1      -8.665   7.107  66.483  1.00  0.00    -0.122 OA 
HETATM   12  O   UNL     1     -10.431   6.754  67.827  1.00  0.00    -0.178 OA 
HETATM   13  C   UNL     1      -9.752   4.407  69.881  1.00  0.00    -0.291 C  
ENDBRANCH   2   5
TORSDOF 1
ENDMDL
MODEL      195
REMARK 921   NORMALIZED FREE ENERGY PREDICTED BY IDOCK:   -1.18 KCAL/MOL
REMARK 922        TOTAL FREE ENERGY PREDICTED BY IDOCK:   -1.29 KCAL/MOL
REMARK 923 INTER-LIGAND FREE ENERGY PREDICTED BY IDOCK:   -2.29 KCAL/MOL
REMARK 924 INTRA-LIGAND FREE ENERGY PREDICTED BY IDOCK:    1.00 KCAL/MOL
REMARK 927      BINDING AFFINITY PREDICTED BY RF-SCORE:    0.00 PKD
ROOT
HETATM    1  N   UNL     1     -11.034   6.728  73.667  1.00  0.00    -0.509 NA 
HETATM    2  C   UNL     1     -10.919   5.777  72.567  1.00  0.00    -0.263 C  
HETATM    3  H1  UNL     1     -11.946   6.667  74.122  1.00  0.00     0.000 HD 
HETATM    4  H2  UNL     1     -10.834   7.679  73.360  1.00  0.00     0.000 HD 
ENDROOT
BRANCH   2   5
HETATM    5  C   UNL     1      -9.541   5.868  71.879  1.00  0.00    -0.169 C  
HETATM    6  C   UNL     1      -9.345   7.165  71.077  1.00  0.00    -0.158 C  
HETATM    7  C   UNL     1      -9.173   8.397  71.966  1.00  0.00    -0.304 C  
HETATM    8  C   UNL     1      -8.037   8.237  72.985  1.00  0.00    -0.210 C  
HETATM    9  C   UNL     1      -8.189   6.933  73.781  1.00  0.00    -0.136 C  
HETATM   10  C   UNL     1      -6.660   8.348  72.333  1.00  0.00    -0.088 C  
HETATM   11  O   UNL     1      -6.430   9.557  71.769  1.00  0.00    -0.296 OA 
HETATM   12  O   UNL     1      -5.807   7.475  72.342  1.00  0.00    -0.040 OA 
HETATM   13  C   UNL     1      -8.402   5.701  72.896  1.00  0.00    -0.119 C  
ENDBRANCH   2   5
TORSDOF 1
ENDMDL
MODEL      196
REMARK 921   NORMALIZED FREE ENERGY PREDICTED BY IDOCK:   -1.18 KCAL/MOL
REMARK 922        TOTAL FREE ENERGY PREDICTED BY IDOCK:   -1.29 KCAL/MOL
REMARK 923 INTER-LIGAND FREE ENERGY PREDICTED BY IDOCK:   -1.26 KCAL/MOL
REMARK 924 INTRA-LIGAND FREE ENERGY PREDICTED BY IDOCK:   -0.03 KCAL/MOL
REMARK 927      BINDING AFFINITY PREDICTED BY RF-SCORE:    0.00 PKD
ROOT
HETATM    1  N   UNL     1      -6.216  10.440  67.568  1.00  0.00    -0.056 NA 
HETATM    2  C   UNL     1      -7.085  10.110  68.692  1.00  0.00    -0.074 C  
HETATM    3  H1  UNL     1      -5.864  11.395  67.632  1.00  0.00     0.000 HD 
HETATM    4  H2  UNL     1      -6.681  10.273  66.676  1.00  0.00     0.000 HD 
ENDROOT
BRANCH   2   5
HETATM    5  C   UNL     1      -7.616   8.665  68.596  1.00  0.00    -0.097 C  
HETATM    6  C   UNL     1      -6.853   7.674  69.489  1.00  0.00    -0.044 C  
HETATM    7  C   UNL     1      -7.144   7.864  70.978  1.00  0.00    -0.049 C  
HETATM    8  C   UNL     1      -8.643   7.806  71.299  1.00  0.00    -0.127 C  
HETATM    9  C   UNL     1      -9.438   8.764  70.400  1.00  0.00    -0.206 C  
HETATM   10  C   UNL     1      -9.190   6.381  71.236  1.00  0.00    -0.156 C  
HETATM   11  O   UNL     1      -8.626   5.550  72.142  1.00  0.00    -0.125 OA 
HETATM   12  O   UNL     1     -10.081   6.004  70.491  1.00  0.00    -0.178 OA 
HETATM   13  C   UNL     1      -9.119   8.606  68.911  1.00  0.00    -0.145 C  
ENDBRANCH   2   5
TORSDOF 1
ENDMDL
MODEL      197
REMARK 921   NORMALIZED FREE ENERGY PREDICTED BY IDOCK:   -1.12 KCAL/MOL
REMARK 922        TOTAL FREE ENERGY PREDICTED BY IDOCK:   -1.23 KCAL/MOL
REMARK 923 INTER-LIGAND FREE ENERGY PREDICTED BY IDOCK:   -1.17 KCAL/MOL
REMARK 924 INTRA-LIGAND FREE ENERGY PREDICTED BY IDOCK:   -0.06 KCAL/MOL
REMARK 927      BINDING AFFINITY PREDICTED BY RF-SCORE:    0.00 PKD
ROOT
HETATM    1  N   UNL     1      -5.457   9.030  69.756  1.00  0.00    -0.033 NA 
HETATM    2  C   UNL     1      -5.684   7.601  69.940  1.00  0.00    -0.023 C  
HETATM    3  H1  UNL     1      -4.477   9.277  69.900  1.00  0.00     0.000 HD 
HETATM    4  H2  UNL     1      -6.072   9.584  70.352  1.00  0.00     0.000 HD 
ENDROOT
BRANCH   2   5
HETATM    5  C   UNL     1      -7.164   7.227  69.723  1.00  0.00    -0.082 C  
HETATM    6  C   UNL     1      -7.450   5.729  69.917  1.00  0.00    -0.079 C  
HETATM    7  C   UNL     1      -7.376   5.291  71.380  1.00  0.00    -0.086 C  
HETATM    8  C   UNL     1      -8.292   6.117  72.292  1.00  0.00    -0.113 C  
HETATM    9  C   UNL     1      -8.052   7.622  72.098  1.00  0.00    -0.122 C  
HETATM   10  C   UNL     1      -9.764   5.749  72.115  1.00  0.00    -0.152 C  
HETATM   11  O   UNL     1     -10.039   4.466  72.446  1.00  0.00    -0.169 OA 
HETATM   12  O   UNL     1     -10.642   6.519  71.760  1.00  0.00    -0.210 OA 
HETATM   13  C   UNL     1      -8.084   8.058  70.630  1.00  0.00    -0.104 C  
ENDBRANCH   2   5
TORSDOF 1
ENDMDL
MODEL      198
REMARK 921   NORMALIZED FREE ENERGY PREDICTED BY IDOCK:   -1.10 KCAL/MOL
REMARK 922        TOTAL FREE ENERGY PREDICTED BY IDOCK:   -1.20 KCAL/MOL
REMARK 923 INTER-LIGAND FREE ENERGY PREDICTED BY IDOCK:   -1.87 KCAL/MOL
REMARK 924 INTRA-LIGAND FREE ENERGY PREDICTED BY IDOCK:    0.67 KCAL/MOL
REMARK 927      BINDING AFFINITY PREDICTED BY RF-SCORE:    0.00 PKD
ROOT
HETATM    1  N   UNL     1      -6.816   3.084  70.132  1.00  0.00    -0.033 NA 
HETATM    2  C   UNL     1      -6.875   3.185  68.678  1.00  0.00    -0.045 C  
HETATM    3  H1  UNL     1      -5.898   2.772  70.450  1.00  0.00     0.000 HD 
HETATM    4  H2  UNL     1      -7.559   2.486  70.494  1.00  0.00     0.000 HD 
ENDROOT
BRANCH   2   5
HETATM    5  C   UNL     1      -8.262   3.657  68.196  1.00  0.00    -0.090 C  
HETATM    6  C   UNL     1      -9.388   3.368  69.202  1.00  0.00    -0.237 C  
HETATM    7  C   UNL     1      -9.325   4.260  70.442  1.00  0.00    -0.219 C  
HETATM    8  C   UNL     1      -9.308   5.754  70.095  1.00  0.00    -0.184 C  
HETATM    9  C   UNL     1      -8.212   6.070  69.067  1.00  0.00    -0.108 C  
HETATM   10  C   UNL     1     -10.678   6.254  69.638  1.00  0.00    -0.306 C  
HETATM   11  O   UNL     1     -11.632   6.147  70.591  1.00  0.00    -0.321 OA 
HETATM   12  O   UNL     1     -10.916   6.752  68.549  1.00  0.00    -0.231 OA 
HETATM   13  C   UNL     1      -8.246   5.152  67.841  1.00  0.00    -0.098 C  
ENDBRANCH   2   5
TORSDOF 1
ENDMDL
MODEL      199
REMARK 921   NORMALIZED FREE ENERGY PREDICTED BY IDOCK:   -0.94 KCAL/MOL
REMARK 922        TOTAL FREE ENERGY PREDICTED BY IDOCK:   -1.04 KCAL/MOL
REMARK 923 INTER-LIGAND FREE ENERGY PREDICTED BY IDOCK:   -1.01 KCAL/MOL
REMARK 924 INTRA-LIGAND FREE ENERGY PREDICTED BY IDOCK:   -0.03 KCAL/MOL
REMARK 927      BINDING AFFINITY PREDICTED BY RF-SCORE:    0.00 PKD
ROOT
HETATM    1  N   UNL     1      -5.321   8.748  73.524  1.00  0.00    -0.082 NA 
HETATM    2  C   UNL     1      -5.658   7.808  72.460  1.00  0.00    -0.036 C  
HETATM    3  H1  UNL     1      -4.338   8.677  73.791  1.00  0.00     0.000 HD 
HETATM    4  H2  UNL     1      -5.935   8.635  74.329  1.00  0.00     0.000 HD 
ENDROOT
BRANCH   2   5
HETATM    5  C   UNL     1      -7.142   7.916  72.055  1.00  0.00    -0.076 C  
HETATM    6  C   UNL     1      -7.365   8.733  70.772  1.00  0.00    -0.080 C  
HETATM    7  C   UNL     1      -6.896   8.007  69.511  1.00  0.00    -0.046 C  
HETATM    8  C   UNL     1      -7.528   6.617  69.360  1.00  0.00    -0.094 C  
HETATM    9  C   UNL     1      -7.348   5.787  70.639  1.00  0.00    -0.084 C  
HETATM   10  C   UNL     1      -8.994   6.695  68.934  1.00  0.00    -0.130 C  
HETATM   11  O   UNL     1      -9.169   7.271  67.722  1.00  0.00    -0.128 OA 
HETATM   12  O   UNL     1      -9.935   6.249  69.571  1.00  0.00    -0.156 OA 
HETATM   13  C   UNL     1      -7.779   6.526  71.909  1.00  0.00    -0.098 C  
ENDBRANCH   2   5
TORSDOF 1
ENDMDL
MODEL      200
REMARK 921   NORMALIZED FREE ENERGY PREDICTED BY IDOCK:   -0.91 KCAL/MOL
REMARK 922        TOTAL FREE ENERGY PREDICTED BY IDOCK:   -1.00 KCAL/MOL
REMARK 923 INTER-LIGAND FREE ENERGY PREDICTED BY IDOCK:   -0.94 KCAL/MOL
REMARK 924 INTRA-LIGAND FREE ENERGY PREDICTED BY IDOCK:   -0.06 KCAL/MOL
REMARK 927      BINDING AFFINITY PREDICTED BY RF-SCORE:    0.00 PKD
ROOT
HETATM    1  N   UNL     1      -5.676   7.578  71.320  1.00  0.00    -0.035 NA 
HETATM    2  C   UNL     1      -6.595   6.445  71.356  1.00  0.00    -0.054 C  
HETATM    3  H1  UNL     1      -4.930   7.480  72.009  1.00  0.00     0.000 HD 
HETATM    4  H2  UNL     1      -6.171   8.463  71.430  1.00  0.00     0.000 HD 
ENDROOT
BRANCH   2   5
HETATM    5  C   UNL     1      -7.722   6.593  70.314  1.00  0.00    -0.098 C  
HETATM    6  C   UNL     1      -7.205   6.878  68.894  1.00  0.00    -0.091 C  
HETATM    7  C   UNL     1      -6.533   5.667  68.248  1.00  0.00    -0.043 C  
HETATM    8  C   UNL     1      -7.436   4.427  68.234  1.00  0.00    -0.065 C  
HETATM    9  C   UNL     1      -7.994   4.134  69.635  1.00  0.00    -0.056 C  
HETATM   10  C   UNL     1      -8.548   4.536  67.191  1.00  0.00    -0.104 C  
HETATM   11  O   UNL     1      -8.085   4.622  65.923  1.00  0.00    -0.102 OA 
HETATM   12  O   UNL     1      -9.744   4.504  67.434  1.00  0.00    -0.171 OA 
HETATM   13  C   UNL     1      -8.632   5.356  70.303  1.00  0.00    -0.126 C  
ENDBRANCH   2   5
TORSDOF 1
ENDMDL
MODEL      201
REMARK 921   NORMALIZED FREE ENERGY PREDICTED BY IDOCK:   -0.86 KCAL/MOL
REMARK 922        TOTAL FREE ENERGY PREDICTED BY IDOCK:   -0.95 KCAL/MOL
REMARK 923 INTER-LIGAND FREE ENERGY PREDICTED BY IDOCK:   -1.55 KCAL/MOL
REMARK 924 INTRA-LIGAND FREE ENERGY PREDICTED BY IDOCK:    0.60 KCAL/MOL
REMARK 927      BINDING AFFINITY PREDICTED BY RF-SCORE:    0.00 PKD
ROOT
HETATM    1  N   UNL     1     -11.261  10.310  66.901  1.00  0.00    -0.091 NA 
HETATM    2  C   UNL     1     -11.279  10.486  68.349  1.00  0.00    -0.279 C  
HETATM    3  H1  UNL     1     -12.172  10.507  66.486  1.00  0.00     0.000 HD 
HETATM    4  H2  UNL     1     -10.927   9.381  66.642  1.00  0.00     0.000 HD 
ENDROOT
BRANCH   2   5
HETATM    5  C   UNL     1      -9.901  10.188  68.975  1.00  0.00    -0.211 C  
HETATM    6  C   UNL     1      -9.858   8.861  69.751  1.00  0.00    -0.186 C  
HETATM    7  C   UNL     1      -9.900   7.635  68.840  1.00  0.00    -0.164 C  
HETATM    8  C   UNL     1      -8.796   7.651  67.775  1.00  0.00    -0.125 C  
HETATM    9  C   UNL     1      -8.793   8.978  67.003  1.00  0.00    -0.131 C  
HETATM   10  C   UNL     1      -7.422   7.334  68.366  1.00  0.00    -0.106 C  
HETATM   11  O   UNL     1      -7.344   6.095  68.904  1.00  0.00    -0.081 OA 
HETATM   12  O   UNL     1      -6.455   8.078  68.331  1.00  0.00    -0.054 OA 
HETATM   13  C   UNL     1      -8.793  10.211  67.912  1.00  0.00    -0.125 C  
ENDBRANCH   2   5
TORSDOF 1
ENDMDL
MODEL      202
REMARK 921   NORMALIZED FREE ENERGY PREDICTED BY IDOCK:   -0.51 KCAL/MOL
REMARK 922        TOTAL FREE ENERGY PREDICTED BY IDOCK:   -0.58 KCAL/MOL
REMARK 923 INTER-LIGAND FREE ENERGY PREDICTED BY IDOCK:   -0.55 KCAL/MOL
REMARK 924 INTRA-LIGAND FREE ENERGY PREDICTED BY IDOCK:   -0.03 KCAL/MOL
REMARK 927      BINDING AFFINITY PREDICTED BY RF-SCORE:    0.00 PKD
ROOT
HETATM    1  N   UNL     1      -6.093  10.453  74.074  1.00  0.00     0.577 NA 
HETATM    2  C   UNL     1      -5.777   9.073  74.425  1.00  0.00    -0.122 C  
HETATM    3  H1  UNL     1      -5.254  11.032  74.031  1.00  0.00     0.000 HD 
HETATM    4  H2  UNL     1      -6.788  10.848  74.707  1.00  0.00     0.000 HD 
ENDROOT
BRANCH   2   5
HETATM    5  C   UNL     1      -7.044   8.197  74.489  1.00  0.00    -0.210 C  
HETATM    6  C   UNL     1      -8.065   8.520  73.385  1.00  0.00    -0.066 C  
HETATM    7  C   UNL     1      -7.611   8.064  71.999  1.00  0.00    -0.108 C  
HETATM    8  C   UNL     1      -7.253   6.573  71.955  1.00  0.00    -0.086 C  
HETATM    9  C   UNL     1      -6.257   6.212  73.066  1.00  0.00    -0.058 C  
HETATM   10  C   UNL     1      -8.493   5.682  71.991  1.00  0.00    -0.126 C  
HETATM   11  O   UNL     1      -9.310   5.857  70.926  1.00  0.00    -0.158 OA 
HETATM   12  O   UNL     1      -8.735   4.849  72.850  1.00  0.00    -0.117 OA 
HETATM   13  C   UNL     1      -6.687   6.703  74.451  1.00  0.00    -0.080 C  
ENDBRANCH   2   5
TORSDOF 1
ENDMDL
MODEL      203
REMARK 921   NORMALIZED FREE ENERGY PREDICTED BY IDOCK:   -0.43 KCAL/MOL
REMARK 922        TOTAL FREE ENERGY PREDICTED BY IDOCK:   -0.49 KCAL/MOL
REMARK 923 INTER-LIGAND FREE ENERGY PREDICTED BY IDOCK:   -1.48 KCAL/MOL
REMARK 924 INTRA-LIGAND FREE ENERGY PREDICTED BY IDOCK:    0.99 KCAL/MOL
REMARK 927      BINDING AFFINITY PREDICTED BY RF-SCORE:    0.00 PKD
ROOT
HETATM    1  N   UNL     1      -6.761   7.256  68.681  1.00  0.00    -0.058 NA 
HETATM    2  C   UNL     1      -7.891   7.243  69.604  1.00  0.00    -0.118 C  
HETATM    3  H1  UNL     1      -5.960   6.751  69.060  1.00  0.00     0.000 HD 
HETATM    4  H2  UNL     1      -6.509   8.208  68.414  1.00  0.00     0.000 HD 
ENDROOT
BRANCH   2   5
HETATM    5  C   UNL     1      -9.102   8.007  69.031  1.00  0.00    -0.144 C  
HETATM    6  C   UNL     1      -8.915   9.533  69.027  1.00  0.00    -0.144 C  
HETATM    7  C   UNL     1      -7.904  10.008  67.984  1.00  0.00    -0.089 C  
HETATM    8  C   UNL     1      -8.242   9.522  66.568  1.00  0.00    -0.119 C  
HETATM    9  C   UNL     1      -8.466   8.003  66.545  1.00  0.00    -0.137 C  
HETATM   10  C   UNL     1      -9.425  10.280  65.967  1.00  0.00    -0.185 C  
HETATM   11  O   UNL     1      -9.190  11.604  65.814  1.00  0.00    -0.225 OA 
HETATM   12  O   UNL     1     -10.473   9.771  65.603  1.00  0.00    -0.106 OA 
HETATM   13  C   UNL     1      -9.447   7.517  67.616  1.00  0.00    -0.159 C  
ENDBRANCH   2   5
TORSDOF 1
ENDMDL
MODEL      204
REMARK 921   NORMALIZED FREE ENERGY PREDICTED BY IDOCK:   -0.38 KCAL/MOL
REMARK 922        TOTAL FREE ENERGY PREDICTED BY IDOCK:   -0.44 KCAL/MOL
REMARK 923 INTER-LIGAND FREE ENERGY PREDICTED BY IDOCK:   -0.41 KCAL/MOL
REMARK 924 INTRA-LIGAND FREE ENERGY PREDICTED BY IDOCK:   -0.03 KCAL/MOL
REMARK 927      BINDING AFFINITY PREDICTED BY RF-SCORE:    0.00 PKD
ROOT
HETATM    1  N   UNL     1     -10.068  11.526  67.474  1.00  0.00    -0.182 NA 
HETATM    2  C   UNL     1     -10.225  12.133  68.791  1.00  0.00    -0.116 C  
HETATM    3  H1  UNL     1      -9.543  10.652  67.522  1.00  0.00     0.000 HD 
HETATM    4  H2  UNL     1      -9.648  12.177  66.811  1.00  0.00     0.000 HD 
ENDROOT
BRANCH   2   5
HETATM    5  C   UNL     1     -11.019  13.453  68.718  1.00  0.00    -0.290 C  
HETATM    6  C   UNL     1     -12.308  13.437  69.556  1.00  0.00    -0.155 C  
HETATM    7  C   UNL     1     -12.043  13.480  71.061  1.00  0.00    -0.233 C  
HETATM    8  C   UNL     1     -11.169  14.672  71.474  1.00  0.00     0.251 C  
HETATM    9  C   UNL     1      -9.887  14.733  70.631  1.00  0.00     1.150 C  
HETATM   10  C   UNL     1     -11.939  15.991  71.434  1.00  0.00    -0.449 C  
HETATM   11  O   UNL     1     -12.980  16.029  72.299  1.00  0.00    -0.450 OA 
HETATM   12  O   UNL     1     -11.648  16.953  70.743  1.00  0.00     0.239 OA 
HETATM   13  C   UNL     1     -10.144  14.649  69.124  1.00  0.00    -0.178 C  
ENDBRANCH   2   5
TORSDOF 1
ENDMDL
MODEL      205
REMARK 921   NORMALIZED FREE ENERGY PREDICTED BY IDOCK:   -0.19 KCAL/MOL
REMARK 922        TOTAL FREE ENERGY PREDICTED BY IDOCK:   -0.25 KCAL/MOL
REMARK 923 INTER-LIGAND FREE ENERGY PREDICTED BY IDOCK:   -1.17 KCAL/MOL
REMARK 924 INTRA-LIGAND FREE ENERGY PREDICTED BY IDOCK:    0.92 KCAL/MOL
REMARK 927      BINDING AFFINITY PREDICTED BY RF-SCORE:    0.00 PKD
ROOT
HETATM    1  N   UNL     1      -6.548   5.679  69.746  1.00  0.00    -0.048 NA 
HETATM    2  C   UNL     1      -7.753   5.529  70.555  1.00  0.00    -0.093 C  
HETATM    3  H1  UNL     1      -5.973   4.836  69.766  1.00  0.00     0.000 HD 
HETATM    4  H2  UNL     1      -6.013   6.501  70.024  1.00  0.00     0.000 HD 
ENDROOT
BRANCH   2   5
HETATM    5  C   UNL     1      -8.621   6.803  70.523  1.00  0.00    -0.142 C  
HETATM    6  C   UNL     1      -7.808   8.099  70.665  1.00  0.00    -0.091 C  
HETATM    7  C   UNL     1      -6.981   8.425  69.421  1.00  0.00    -0.050 C  
HETATM    8  C   UNL     1      -7.831   8.481  68.145  1.00  0.00    -0.103 C  
HETATM    9  C   UNL     1      -8.680   7.210  67.991  1.00  0.00    -0.127 C  
HETATM   10  C   UNL     1      -8.684   9.747  68.076  1.00  0.00    -0.118 C  
HETATM   11  O   UNL     1      -7.952  10.884  68.035  1.00  0.00    -0.104 OA 
HETATM   12  O   UNL     1      -9.903   9.769  68.013  1.00  0.00    -0.143 OA 
HETATM   13  C   UNL     1      -9.478   6.857  69.249  1.00  0.00    -0.147 C  
ENDBRANCH   2   5
TORSDOF 1
ENDMDL
