MODEL        1
REMARK 921   NORMALIZED FREE ENERGY PREDICTED BY IDOCK:   -7.32 KCAL/MOL
REMARK 922        TOTAL FREE ENERGY PREDICTED BY IDOCK:  -13.12 KCAL/MOL
REMARK 923 INTER-LIGAND FREE ENERGY PREDICTED BY IDOCK:  -11.17 KCAL/MOL
REMARK 924 INTRA-LIGAND FREE ENERGY PREDICTED BY IDOCK:   -1.95 KCAL/MOL
REMARK 927      BINDING AFFINITY PREDICTED BY RF-SCORE:    0.00 PKD
ROOT
ATOM      1  C   ALA A   1     -10.983   9.578  70.304  1.00  0.00    -0.317 C  
ATOM      2  C   ALA A   1      -9.743  10.229  69.715  1.00  0.00    -0.183 C  
ATOM      3  CA  ALA A   1     -10.340  11.426  68.959  1.00  0.00    -0.142 C  
ATOM      4  N   ALA A   1     -11.595  11.755  69.690  1.00  0.00    -0.314 N  
ATOM      5  C   ALA A   1     -10.576  11.053  67.494  1.00  0.00    -0.227 C  
ATOM      6  C   ALA A   1     -11.786  10.793  70.781  1.00  0.00    -0.298 C  
ATOM      7  O   ALA A   1     -11.863  10.759  67.207  1.00  0.00    -0.298 OA 
ATOM      8  C   ALA A   1     -12.154  13.037  69.761  1.00  0.00    -0.258 C  
ATOM      9  OXT ALA A   1      -9.677  10.980  66.668  1.00  0.00    -0.188 OA 
ATOM     10  C   ALA A   1     -10.770   8.578  71.424  1.00  0.00    -0.317 C  
ATOM     11  O   ALA A   1     -13.032  13.306  70.583  1.00  0.00    -0.105 OA 
ATOM     12  C   ALA A   1     -13.187  10.325  71.172  1.00  0.00    -0.429 C  
ATOM     13  C   ALA A   1     -12.129   8.113  71.957  1.00  0.00    -0.388 C  
ATOM     14  C   ALA A   1     -13.072   9.276  72.296  1.00  0.00    -0.517 C  
ENDROOT
BRANCH   8  15
ATOM     15  CA  ALA A   1     -11.599  14.129  68.779  1.00  0.00    -0.327 C  
ATOM     16  CB  ALA A   1     -11.761  15.518  69.406  1.00  0.00    -0.382 C  
BRANCH  15  17
ATOM     17  N   ALA A   1     -12.280  14.025  67.473  1.00  0.00    -0.535 NA 
ATOM     18  H   ALA A   1     -13.267  14.264  67.573  1.00  0.00     0.000 HD 
BRANCH  17  19
HETATM   19  C   UNK A   0     -11.673  14.817  66.376  1.00  0.00    -0.263 C  
BRANCH  19  20
HETATM   20  C   UNK A   0     -10.133  14.720  66.363  1.00  0.00    -0.291 C  
BRANCH  20  21
HETATM   21  C   UNK A   0      -9.448  15.945  65.734  1.00  0.00    -0.316 C  
BRANCH  21  22
HETATM   22  C   UNK A   0      -9.729  17.194  66.533  1.00  0.00    -0.299 A  
HETATM   23  C   UNK A   0      -9.165  17.373  67.803  1.00  0.00    -0.248 A  
HETATM   24  C   UNK A   0     -10.527  18.213  65.994  1.00  0.00    -0.346 A  
HETATM   25  C   UNK A   0      -9.408  18.541  68.525  1.00  0.00    -0.364 A  
HETATM   26  C   UNK A   0     -10.770  19.381  66.719  1.00  0.00    -0.550 A  
HETATM   27  C   UNK A   0     -10.211  19.545  67.985  1.00  0.00    -0.552 A  
ENDBRANCH  21  22
ENDBRANCH  20  21
ENDBRANCH  19  20
BRANCH  19  28
HETATM   28  C   UNK A   0     -12.217  14.306  65.025  1.00  0.00    -0.433 C  
HETATM   29  O   UNK A   0     -12.532  15.009  64.078  1.00  0.00    -0.796 OA 
BRANCH  28  30
HETATM   30  O   UNK A   0     -12.378  12.947  65.071  1.00  0.00    -0.435 OA 
BRANCH  30  31
HETATM   31  C   UNK A   0     -12.217  12.271  63.813  1.00  0.00    -0.546 C  
HETATM   32  C   UNK A   0     -10.728  12.144  63.532  1.00  0.00    -0.509 C  
ENDBRANCH  30  31
ENDBRANCH  28  30
ENDBRANCH  19  28
ENDBRANCH  17  19
ENDBRANCH  15  17
ENDBRANCH   8  15
TORSDOF 9
ENDMDL
MODEL        2
REMARK 921   NORMALIZED FREE ENERGY PREDICTED BY IDOCK:   -6.90 KCAL/MOL
REMARK 922        TOTAL FREE ENERGY PREDICTED BY IDOCK:  -12.47 KCAL/MOL
REMARK 923 INTER-LIGAND FREE ENERGY PREDICTED BY IDOCK:  -11.40 KCAL/MOL
REMARK 924 INTRA-LIGAND FREE ENERGY PREDICTED BY IDOCK:   -1.07 KCAL/MOL
REMARK 927      BINDING AFFINITY PREDICTED BY RF-SCORE:    0.00 PKD
ROOT
ATOM      1  C   ALA A   1     -12.668  13.078  70.587  1.00  0.00    -0.175 C  
ATOM      2  C   ALA A   1     -11.771  11.929  70.159  1.00  0.00    -0.337 C  
ATOM      3  CA  ALA A   1     -10.957  12.567  69.023  1.00  0.00    -0.188 C  
ATOM      4  N   ALA A   1     -10.916  14.020  69.349  1.00  0.00    -0.201 N  
ATOM      5  C   ALA A   1     -11.616  12.270  67.675  1.00  0.00    -0.354 C  
ATOM      6  C   ALA A   1     -11.699  14.265  70.565  1.00  0.00    -0.243 C  
ATOM      7  O   ALA A   1     -12.336  13.302  67.182  1.00  0.00    -0.280 OA 
ATOM      8  C   ALA A   1      -9.876  14.882  68.983  1.00  0.00    -0.220 C  
ATOM      9  OXT ALA A   1     -11.542  11.184  67.117  1.00  0.00    -0.495 OA 
ATOM     10  C   ALA A   1     -13.358  12.948  71.931  1.00  0.00    -0.530 C  
ATOM     11  O   ALA A   1      -9.761  15.998  69.495  1.00  0.00    -0.253 OA 
ATOM     12  C   ALA A   1     -12.507  15.552  70.726  1.00  0.00    -0.491 C  
ATOM     13  C   ALA A   1     -14.126  14.238  72.236  1.00  0.00    -0.621 C  
ATOM     14  C   ALA A   1     -13.272  15.502  72.064  1.00  0.00    -0.549 C  
ENDROOT
BRANCH   8  15
ATOM     15  CA  ALA A   1      -8.840  14.366  67.922  1.00  0.00    -0.179 C  
ATOM     16  CB  ALA A   1      -7.519  15.126  68.076  1.00  0.00    -0.128 C  
BRANCH  15  17
ATOM     17  N   ALA A   1      -9.403  14.498  66.563  1.00  0.00    -0.294 NA 
ATOM     18  H   ALA A   1     -10.039  13.724  66.372  1.00  0.00     0.000 HD 
BRANCH  17  19
HETATM   19  C   UNK A   0     -10.073  15.790  66.277  1.00  0.00    -0.303 C  
BRANCH  19  20
HETATM   20  C   UNK A   0      -9.074  16.962  66.183  1.00  0.00    -0.265 C  
BRANCH  20  21
HETATM   21  C   UNK A   0      -9.551  18.232  66.908  1.00  0.00    -0.296 C  
BRANCH  21  22
HETATM   22  C   UNK A   0      -8.383  19.083  67.338  1.00  0.00    -0.299 A  
HETATM   23  C   UNK A   0      -7.816  20.017  66.461  1.00  0.00    -0.334 A  
HETATM   24  C   UNK A   0      -7.875  18.979  68.641  1.00  0.00    -0.383 A  
HETATM   25  C   UNK A   0      -6.753  20.819  66.873  1.00  0.00    -0.366 A  
HETATM   26  C   UNK A   0      -6.809  19.783  69.051  1.00  0.00    -0.372 A  
HETATM   27  C   UNK A   0      -6.248  20.702  68.168  1.00  0.00    -0.350 A  
ENDBRANCH  21  22
ENDBRANCH  20  21
ENDBRANCH  19  20
BRANCH  19  28
HETATM   28  C   UNK A   0     -10.838  15.676  64.941  1.00  0.00    -0.418 C  
HETATM   29  O   UNK A   0     -11.323  16.610  64.321  1.00  0.00    -1.116 OA 
BRANCH  28  30
HETATM   30  O   UNK A   0     -10.969  14.359  64.590  1.00  0.00    -0.390 OA 
BRANCH  30  31
HETATM   31  C   UNK A   0     -12.220  14.014  63.973  1.00  0.00    -0.355 C  
HETATM   32  C   UNK A   0     -12.272  12.503  63.819  1.00  0.00    -0.615 C  
ENDBRANCH  30  31
ENDBRANCH  28  30
ENDBRANCH  19  28
ENDBRANCH  17  19
ENDBRANCH  15  17
ENDBRANCH   8  15
TORSDOF 9
ENDMDL
MODEL        3
REMARK 921   NORMALIZED FREE ENERGY PREDICTED BY IDOCK:   -6.77 KCAL/MOL
REMARK 922        TOTAL FREE ENERGY PREDICTED BY IDOCK:  -12.27 KCAL/MOL
REMARK 923 INTER-LIGAND FREE ENERGY PREDICTED BY IDOCK:  -10.23 KCAL/MOL
REMARK 924 INTRA-LIGAND FREE ENERGY PREDICTED BY IDOCK:   -2.05 KCAL/MOL
REMARK 927      BINDING AFFINITY PREDICTED BY RF-SCORE:    0.00 PKD
ROOT
ATOM      1  C   ALA A   1     -10.826   9.786  70.091  1.00  0.00    -0.340 C  
ATOM      2  C   ALA A   1      -9.612  10.421  69.435  1.00  0.00    -0.213 C  
ATOM      3  CA  ALA A   1     -10.242  11.591  68.663  1.00  0.00    -0.208 C  
ATOM      4  N   ALA A   1     -11.471  11.939  69.430  1.00  0.00    -0.290 N  
ATOM      5  C   ALA A   1     -10.531  11.170  67.220  1.00  0.00    -0.226 C  
ATOM      6  C   ALA A   1     -11.616  11.013  70.558  1.00  0.00    -0.245 C  
ATOM      7  O   ALA A   1     -11.827  10.862  66.992  1.00  0.00    -0.223 OA 
ATOM      8  C   ALA A   1     -12.032  13.221  69.480  1.00  0.00    -0.307 C  
ATOM      9  OXT ALA A   1      -9.664  11.073  66.364  1.00  0.00    -0.191 OA 
ATOM     10  C   ALA A   1     -10.566   8.823  71.233  1.00  0.00    -0.332 C  
ATOM     11  O   ALA A   1     -12.880  13.514  70.325  1.00  0.00    -0.120 OA 
ATOM     12  C   ALA A   1     -12.999  10.554  71.016  1.00  0.00    -0.475 C  
ATOM     13  C   ALA A   1     -11.902   8.372  71.832  1.00  0.00    -0.398 C  
ATOM     14  C   ALA A   1     -12.837   9.542  72.168  1.00  0.00    -0.471 C  
ENDROOT
BRANCH   8  15
ATOM     15  CA  ALA A   1     -11.520  14.283  68.443  1.00  0.00    -0.301 C  
ATOM     16  CB  ALA A   1     -11.639  15.688  69.040  1.00  0.00    -0.396 C  
BRANCH  15  17
ATOM     17  N   ALA A   1     -12.267  14.151  67.177  1.00  0.00    -0.570 NA 
ATOM     18  H   ALA A   1     -13.223  14.484  67.298  1.00  0.00     0.000 HD 
BRANCH  17  19
HETATM   19  C   UNK A   0     -11.645  14.807  66.001  1.00  0.00    -0.286 C  
BRANCH  19  20
HETATM   20  C   UNK A   0     -10.133  14.519  65.898  1.00  0.00    -0.346 C  
BRANCH  20  21
HETATM   21  C   UNK A   0      -9.269  15.790  65.855  1.00  0.00    -0.337 C  
BRANCH  21  22
HETATM   22  C   UNK A   0      -8.483  15.956  67.133  1.00  0.00    -0.225 A  
HETATM   23  C   UNK A   0      -8.213  14.855  67.955  1.00  0.00    -0.148 A  
HETATM   24  C   UNK A   0      -7.975  17.213  67.492  1.00  0.00    -0.190 A  
HETATM   25  C   UNK A   0      -7.465  15.010  69.122  1.00  0.00    -0.169 A  
HETATM   26  C   UNK A   0      -7.228  17.367  68.660  1.00  0.00    -0.237 A  
HETATM   27  C   UNK A   0      -6.973  16.266  69.476  1.00  0.00    -0.171 A  
ENDBRANCH  21  22
ENDBRANCH  20  21
ENDBRANCH  19  20
BRANCH  19  28
HETATM   28  C   UNK A   0     -12.339  14.305  64.717  1.00  0.00    -0.426 C  
HETATM   29  O   UNK A   0     -12.587  14.986  63.735  1.00  0.00    -0.776 OA 
BRANCH  28  30
HETATM   30  O   UNK A   0     -12.715  12.998  64.871  1.00  0.00    -0.644 OA 
BRANCH  30  31
HETATM   31  C   UNK A   0     -12.626  12.194  63.683  1.00  0.00    -0.504 C  
HETATM   32  C   UNK A   0     -11.155  11.948  63.388  1.00  0.00    -0.463 C  
ENDBRANCH  30  31
ENDBRANCH  28  30
ENDBRANCH  19  28
ENDBRANCH  17  19
ENDBRANCH  15  17
ENDBRANCH   8  15
TORSDOF 9
ENDMDL
MODEL        4
REMARK 921   NORMALIZED FREE ENERGY PREDICTED BY IDOCK:   -6.75 KCAL/MOL
REMARK 922        TOTAL FREE ENERGY PREDICTED BY IDOCK:  -12.25 KCAL/MOL
REMARK 923 INTER-LIGAND FREE ENERGY PREDICTED BY IDOCK:  -10.96 KCAL/MOL
REMARK 924 INTRA-LIGAND FREE ENERGY PREDICTED BY IDOCK:   -1.29 KCAL/MOL
REMARK 927      BINDING AFFINITY PREDICTED BY RF-SCORE:    0.00 PKD
ROOT
ATOM      1  C   ALA A   1     -10.328  11.280  65.094  1.00  0.00    -0.353 C  
ATOM      2  C   ALA A   1     -10.327  12.234  63.911  1.00  0.00    -0.455 C  
ATOM      3  CA  ALA A   1     -10.494  13.597  64.601  1.00  0.00    -0.423 C  
ATOM      4  N   ALA A   1      -9.902  13.417  65.955  1.00  0.00    -0.284 N  
ATOM      5  C   ALA A   1     -11.973  13.987  64.636  1.00  0.00    -0.430 C  
ATOM      6  C   ALA A   1      -9.456  12.029  66.108  1.00  0.00    -0.232 C  
ATOM      7  O   ALA A   1     -12.564  13.773  65.833  1.00  0.00    -0.472 OA 
ATOM      8  C   ALA A   1      -9.309  14.444  66.700  1.00  0.00    -0.278 C  
ATOM      9  OXT ALA A   1     -12.580  14.406  63.661  1.00  0.00    -0.817 OA 
ATOM     10  C   ALA A   1      -9.813   9.876  64.846  1.00  0.00    -0.282 C  
ATOM     11  O   ALA A   1      -8.609  14.198  67.684  1.00  0.00    -0.166 OA 
ATOM     12  C   ALA A   1      -9.565  11.319  67.457  1.00  0.00    -0.181 C  
ATOM     13  C   ALA A   1      -9.791   9.101  66.168  1.00  0.00    -0.363 C  
ATOM     14  C   ALA A   1      -9.085   9.862  67.300  1.00  0.00    -0.149 C  
ENDROOT
BRANCH   8  15
ATOM     15  CA  ALA A   1      -9.541  15.921  66.219  1.00  0.00    -0.316 C  
ATOM     16  CB  ALA A   1      -8.225  16.701  66.292  1.00  0.00    -0.365 C  
BRANCH  15  17
ATOM     17  N   ALA A   1     -10.608  16.551  67.022  1.00  0.00    -0.292 NA 
ATOM     18  H   ALA A   1     -11.484  16.044  66.899  1.00  0.00     0.000 HD 
BRANCH  17  19
HETATM   19  C   UNK A   0     -10.307  16.705  68.466  1.00  0.00    -0.303 C  
BRANCH  19  20
HETATM   20  C   UNK A   0     -10.393  18.174  68.931  1.00  0.00    -0.217 C  
BRANCH  20  21
HETATM   21  C   UNK A   0     -10.047  19.187  67.827  1.00  0.00    -0.469 C  
BRANCH  21  22
HETATM   22  C   UNK A   0      -8.641  19.709  67.990  1.00  0.00    -0.355 A  
HETATM   23  C   UNK A   0      -7.834  19.273  69.049  1.00  0.00    -0.314 A  
HETATM   24  C   UNK A   0      -8.108  20.608  67.055  1.00  0.00    -0.278 A  
HETATM   25  C   UNK A   0      -6.527  19.740  69.180  1.00  0.00    -0.362 A  
HETATM   26  C   UNK A   0      -6.799  21.075  67.189  1.00  0.00    -0.417 A  
HETATM   27  C   UNK A   0      -6.009  20.642  68.251  1.00  0.00    -0.356 A  
ENDBRANCH  21  22
ENDBRANCH  20  21
ENDBRANCH  19  20
BRANCH  19  28
HETATM   28  C   UNK A   0     -11.310  15.863  69.283  1.00  0.00    -0.355 C  
HETATM   29  O   UNK A   0     -11.894  14.870  68.878  1.00  0.00    -0.311 OA 
BRANCH  28  30
HETATM   30  O   UNK A   0     -11.517  16.441  70.507  1.00  0.00    -0.328 OA 
BRANCH  30  31
HETATM   31  C   UNK A   0     -12.513  15.801  71.322  1.00  0.00    -0.448 C  
HETATM   32  C   UNK A   0     -11.939  15.622  72.717  1.00  0.00    -0.590 C  
ENDBRANCH  30  31
ENDBRANCH  28  30
ENDBRANCH  19  28
ENDBRANCH  17  19
ENDBRANCH  15  17
ENDBRANCH   8  15
TORSDOF 9
ENDMDL
MODEL        5
REMARK 921   NORMALIZED FREE ENERGY PREDICTED BY IDOCK:   -6.68 KCAL/MOL
REMARK 922        TOTAL FREE ENERGY PREDICTED BY IDOCK:  -12.14 KCAL/MOL
REMARK 923 INTER-LIGAND FREE ENERGY PREDICTED BY IDOCK:  -10.85 KCAL/MOL
REMARK 924 INTRA-LIGAND FREE ENERGY PREDICTED BY IDOCK:   -1.29 KCAL/MOL
REMARK 927      BINDING AFFINITY PREDICTED BY RF-SCORE:    0.00 PKD
ROOT
ATOM      1  C   ALA A   1      -8.079  18.113  66.978  1.00  0.00    -0.239 C  
ATOM      2  C   ALA A   1      -7.737  16.807  66.281  1.00  0.00    -0.310 C  
ATOM      3  CA  ALA A   1      -8.422  15.773  67.188  1.00  0.00    -0.208 C  
ATOM      4  N   ALA A   1      -9.565  16.501  67.806  1.00  0.00    -0.230 N  
ATOM      5  C   ALA A   1      -7.424  15.235  68.215  1.00  0.00    -0.112 C  
ATOM      6  C   ALA A   1      -9.548  17.897  67.357  1.00  0.00    -0.271 C  
ATOM      7  O   ALA A   1      -7.555  15.786  69.442  1.00  0.00    -0.214 OA 
ATOM      8  C   ALA A   1     -10.760  15.895  68.212  1.00  0.00    -0.291 C  
ATOM      9  OXT ALA A   1      -6.555  14.419  67.942  1.00  0.00    -0.136 OA 
ATOM     10  C   ALA A   1      -7.891  19.388  66.181  1.00  0.00    -0.317 C  
ATOM     11  O   ALA A   1     -11.761  16.566  68.469  1.00  0.00    -0.171 OA 
ATOM     12  C   ALA A   1      -9.976  19.024  68.297  1.00  0.00    -0.459 C  
ATOM     13  C   ALA A   1      -8.384  20.582  67.005  1.00  0.00    -0.313 C  
ATOM     14  C   ALA A   1      -9.794  20.376  67.578  1.00  0.00    -0.564 C  
ENDROOT
BRANCH   8  15
ATOM     15  CA  ALA A   1     -10.790  14.328  68.298  1.00  0.00    -0.246 C  
ATOM     16  CB  ALA A   1     -11.918  13.783  67.417  1.00  0.00    -0.423 C  
BRANCH  15  17
ATOM     17  N   ALA A   1     -10.928  13.903  69.705  1.00  0.00    -0.462 NA 
ATOM     18  H   ALA A   1     -10.476  14.579  70.321  1.00  0.00     0.000 HD 
BRANCH  17  19
HETATM   19  C   UNK A   0     -12.318  13.653  70.159  1.00  0.00    -0.304 C  
BRANCH  19  20
HETATM   20  C   UNK A   0     -12.458  12.315  70.915  1.00  0.00    -0.371 C  
BRANCH  20  21
HETATM   21  C   UNK A   0     -11.656  11.166  70.281  1.00  0.00    -0.388 C  
BRANCH  21  22
HETATM   22  C   UNK A   0     -12.156   9.825  70.758  1.00  0.00    -0.364 A  
HETATM   23  C   UNK A   0     -13.413   9.706  71.365  1.00  0.00    -0.403 A  
HETATM   24  C   UNK A   0     -11.384   8.672  70.560  1.00  0.00    -0.241 A  
HETATM   25  C   UNK A   0     -13.881   8.459  71.781  1.00  0.00    -0.458 A  
HETATM   26  C   UNK A   0     -11.854   7.426  70.979  1.00  0.00    -0.336 A  
HETATM   27  C   UNK A   0     -13.102   7.319  71.589  1.00  0.00    -0.417 A  
ENDBRANCH  21  22
ENDBRANCH  20  21
ENDBRANCH  19  20
BRANCH  19  28
HETATM   28  C   UNK A   0     -12.760  14.802  71.090  1.00  0.00    -0.334 C  
HETATM   29  O   UNK A   0     -13.773  15.471  70.956  1.00  0.00    -0.546 OA 
BRANCH  28  30
HETATM   30  O   UNK A   0     -11.803  15.022  72.045  1.00  0.00    -0.371 OA 
BRANCH  30  31
HETATM   31  C   UNK A   0     -12.039  16.158  72.892  1.00  0.00    -0.541 C  
HETATM   32  C   UNK A   0     -12.462  15.648  74.260  1.00  0.00    -0.804 C  
ENDBRANCH  30  31
ENDBRANCH  28  30
ENDBRANCH  19  28
ENDBRANCH  17  19
ENDBRANCH  15  17
ENDBRANCH   8  15
TORSDOF 9
ENDMDL
MODEL        6
REMARK 921   NORMALIZED FREE ENERGY PREDICTED BY IDOCK:   -6.66 KCAL/MOL
REMARK 922        TOTAL FREE ENERGY PREDICTED BY IDOCK:  -12.11 KCAL/MOL
REMARK 923 INTER-LIGAND FREE ENERGY PREDICTED BY IDOCK:  -10.89 KCAL/MOL
REMARK 924 INTRA-LIGAND FREE ENERGY PREDICTED BY IDOCK:   -1.22 KCAL/MOL
REMARK 927      BINDING AFFINITY PREDICTED BY RF-SCORE:    0.00 PKD
ROOT
ATOM      1  C   ALA A   1      -8.799  19.129  66.979  1.00  0.00    -0.318 C  
ATOM      2  C   ALA A   1     -10.237  19.229  66.500  1.00  0.00    -0.522 C  
ATOM      3  CA  ALA A   1     -10.733  17.786  66.679  1.00  0.00    -0.122 C  
ATOM      4  N   ALA A   1      -9.909  17.230  67.788  1.00  0.00    -0.272 N  
ATOM      5  C   ALA A   1     -10.579  17.014  65.367  1.00  0.00    -0.134 C  
ATOM      6  C   ALA A   1      -8.936  18.240  68.219  1.00  0.00    -0.305 C  
ATOM      7  O   ALA A   1      -9.500  16.200  65.338  1.00  0.00    -0.394 OA 
ATOM      8  C   ALA A   1     -10.340  16.231  68.668  1.00  0.00    -0.263 C  
ATOM      9  OXT ALA A   1     -11.332  17.154  64.414  1.00  0.00    -1.115 OA 
ATOM     10  C   ALA A   1      -8.089  20.429  67.301  1.00  0.00    -0.384 C  
ATOM     11  O   ALA A   1      -9.733  15.996  69.715  1.00  0.00    -0.221 OA 
ATOM     12  C   ALA A   1      -7.537  17.829  68.678  1.00  0.00    -0.276 C  
ATOM     13  C   ALA A   1      -6.697  20.123  67.865  1.00  0.00    -0.313 C  
ATOM     14  C   ALA A   1      -6.722  19.096  69.006  1.00  0.00    -0.342 C  
ENDROOT
BRANCH   8  15
ATOM     15  CA  ALA A   1     -11.644  15.441  68.292  1.00  0.00    -0.348 C  
ATOM     16  CB  ALA A   1     -12.261  14.832  69.555  1.00  0.00    -0.280 C  
BRANCH  15  17
ATOM     17  N   ALA A   1     -11.338  14.419  67.272  1.00  0.00    -0.327 NA 
ATOM     18  H   ALA A   1     -10.890  14.854  66.466  1.00  0.00     0.000 HD 
BRANCH  17  19
HETATM   19  C   UNK A   0     -10.528  13.271  67.748  1.00  0.00    -0.239 C  
BRANCH  19  20
HETATM   20  C   UNK A   0     -11.396  12.042  68.093  1.00  0.00    -0.349 C  
BRANCH  20  21
HETATM   21  C   UNK A   0     -10.671  11.009  68.971  1.00  0.00    -0.258 C  
BRANCH  21  22
HETATM   22  C   UNK A   0     -11.565  10.518  70.083  1.00  0.00    -0.408 A  
HETATM   23  C   UNK A   0     -11.566   9.169  70.458  1.00  0.00    -0.238 A  
HETATM   24  C   UNK A   0     -12.378  11.419  70.785  1.00  0.00    -0.483 A  
HETATM   25  C   UNK A   0     -12.375   8.726  71.504  1.00  0.00    -0.380 A  
HETATM   26  C   UNK A   0     -13.189  10.974  71.830  1.00  0.00    -0.503 A  
HETATM   27  C   UNK A   0     -13.188   9.628  72.190  1.00  0.00    -0.535 A  
ENDBRANCH  21  22
ENDBRANCH  20  21
ENDBRANCH  19  20
BRANCH  19  28
HETATM   28  C   UNK A   0      -9.518  12.878  66.649  1.00  0.00    -0.255 C  
HETATM   29  O   UNK A   0      -8.385  12.467  66.845  1.00  0.00    -0.177 OA 
BRANCH  28  30
HETATM   30  O   UNK A   0     -10.047  13.138  65.414  1.00  0.00    -0.289 OA 
BRANCH  30  31
HETATM   31  C   UNK A   0     -10.299  11.978  64.602  1.00  0.00    -0.287 C  
HETATM   32  C   UNK A   0     -11.584  12.213  63.826  1.00  0.00    -0.557 C  
ENDBRANCH  30  31
ENDBRANCH  28  30
ENDBRANCH  19  28
ENDBRANCH  17  19
ENDBRANCH  15  17
ENDBRANCH   8  15
TORSDOF 9
ENDMDL
MODEL        7
REMARK 921   NORMALIZED FREE ENERGY PREDICTED BY IDOCK:   -6.57 KCAL/MOL
REMARK 922        TOTAL FREE ENERGY PREDICTED BY IDOCK:  -11.98 KCAL/MOL
REMARK 923 INTER-LIGAND FREE ENERGY PREDICTED BY IDOCK:  -10.46 KCAL/MOL
REMARK 924 INTRA-LIGAND FREE ENERGY PREDICTED BY IDOCK:   -1.52 KCAL/MOL
REMARK 927      BINDING AFFINITY PREDICTED BY RF-SCORE:    0.00 PKD
ROOT
ATOM      1  C   ALA A   1      -8.251  17.859  67.012  1.00  0.00    -0.241 C  
ATOM      2  C   ALA A   1      -7.266  16.815  66.513  1.00  0.00    -0.278 C  
ATOM      3  CA  ALA A   1      -8.070  15.516  66.676  1.00  0.00    -0.154 C  
ATOM      4  N   ALA A   1      -9.496  15.929  66.552  1.00  0.00    -0.252 N  
ATOM      5  C   ALA A   1      -7.746  14.866  68.022  1.00  0.00    -0.122 C  
ATOM      6  C   ALA A   1      -9.566  17.384  66.385  1.00  0.00    -0.276 C  
ATOM      7  O   ALA A   1      -8.685  15.078  68.970  1.00  0.00    -0.193 OA 
ATOM      8  C   ALA A   1     -10.517  15.103  66.066  1.00  0.00    -0.319 C  
ATOM      9  OXT ALA A   1      -6.710  14.251  68.238  1.00  0.00    -0.086 OA 
ATOM     10  C   ALA A   1      -7.957  19.305  66.661  1.00  0.00    -0.288 C  
ATOM     11  O   ALA A   1     -11.611  15.567  65.738  1.00  0.00    -0.039 OA 
ATOM     12  C   ALA A   1     -10.713  18.186  66.999  1.00  0.00    -0.274 C  
ATOM     13  C   ALA A   1      -9.106  20.192  67.153  1.00  0.00    -0.489 C  
ATOM     14  C   ALA A   1     -10.488  19.684  66.716  1.00  0.00    -0.605 C  
ENDROOT
BRANCH   8  15
ATOM     15  CA  ALA A   1     -10.208  13.571  65.920  1.00  0.00    -0.301 C  
ATOM     16  CB  ALA A   1     -10.289  13.165  64.445  1.00  0.00    -0.390 C  
BRANCH  15  17
ATOM     17  N   ALA A   1     -11.133  12.789  66.764  1.00  0.00    -0.267 NA 
ATOM     18  H   ALA A   1     -11.099  11.804  66.501  1.00  0.00     0.000 HD 
BRANCH  17  19
HETATM   19  C   UNK A   0     -10.931  12.932  68.227  1.00  0.00    -0.256 C  
BRANCH  19  20
HETATM   20  C   UNK A   0     -12.122  13.626  68.920  1.00  0.00    -0.335 C  
BRANCH  20  21
HETATM   21  C   UNK A   0     -11.825  15.074  69.342  1.00  0.00    -0.358 C  
BRANCH  21  22
HETATM   22  C   UNK A   0     -12.381  15.365  70.715  1.00  0.00    -0.447 A  
HETATM   23  C   UNK A   0     -13.717  15.079  71.021  1.00  0.00    -0.417 A  
HETATM   24  C   UNK A   0     -11.550  15.888  71.717  1.00  0.00    -0.541 A  
HETATM   25  C   UNK A   0     -14.218  15.326  72.299  1.00  0.00    -0.642 A  
HETATM   26  C   UNK A   0     -12.054  16.136  72.994  1.00  0.00    -0.636 A  
HETATM   27  C   UNK A   0     -13.387  15.855  73.286  1.00  0.00    -0.660 A  
ENDBRANCH  21  22
ENDBRANCH  20  21
ENDBRANCH  19  20
BRANCH  19  28
HETATM   28  C   UNK A   0     -10.737  11.532  68.848  1.00  0.00    -0.207 C  
HETATM   29  O   UNK A   0      -9.669  10.952  68.965  1.00  0.00    -0.202 OA 
BRANCH  28  30
HETATM   30  O   UNK A   0     -11.954  10.995  69.175  1.00  0.00    -0.329 OA 
BRANCH  30  31
HETATM   31  C   UNK A   0     -11.986  10.271  70.416  1.00  0.00    -0.303 C  
HETATM   32  C   UNK A   0     -12.865  11.039  71.390  1.00  0.00    -0.548 C  
ENDBRANCH  30  31
ENDBRANCH  28  30
ENDBRANCH  19  28
ENDBRANCH  17  19
ENDBRANCH  15  17
ENDBRANCH   8  15
TORSDOF 9
ENDMDL
MODEL        8
REMARK 921   NORMALIZED FREE ENERGY PREDICTED BY IDOCK:   -6.56 KCAL/MOL
REMARK 922        TOTAL FREE ENERGY PREDICTED BY IDOCK:  -11.95 KCAL/MOL
REMARK 923 INTER-LIGAND FREE ENERGY PREDICTED BY IDOCK:  -10.92 KCAL/MOL
REMARK 924 INTRA-LIGAND FREE ENERGY PREDICTED BY IDOCK:   -1.04 KCAL/MOL
REMARK 927      BINDING AFFINITY PREDICTED BY RF-SCORE:    0.00 PKD
ROOT
ATOM      1  C   ALA A   1      -7.864  17.928  66.467  1.00  0.00    -0.298 C  
ATOM      2  C   ALA A   1      -9.205  18.596  66.216  1.00  0.00    -0.242 C  
ATOM      3  CA  ALA A   1     -10.191  17.468  66.555  1.00  0.00    -0.342 C  
ATOM      4  N   ALA A   1      -9.478  16.621  67.551  1.00  0.00    -0.227 N  
ATOM      5  C   ALA A   1     -10.575  16.709  65.284  1.00  0.00    -0.205 C  
ATOM      6  C   ALA A   1      -8.129  17.156  67.764  1.00  0.00    -0.193 C  
ATOM      7  O   ALA A   1      -9.925  15.534  65.133  1.00  0.00    -0.316 OA 
ATOM      8  C   ALA A   1     -10.114  15.868  68.546  1.00  0.00    -0.217 C  
ATOM      9  OXT ALA A   1     -11.361  17.146  64.454  1.00  0.00    -1.115 OA 
ATOM     10  C   ALA A   1      -6.656  18.836  66.597  1.00  0.00    -0.211 C  
ATOM     11  O   ALA A   1      -9.482  15.402  69.496  1.00  0.00    -0.256 OA 
ATOM     12  C   ALA A   1      -6.950  16.219  68.021  1.00  0.00    -0.140 C  
ATOM     13  C   ALA A   1      -5.424  17.996  66.951  1.00  0.00    -0.163 C  
ATOM     14  C   ALA A   1      -5.660  17.054  68.141  1.00  0.00    -0.120 C  
ENDROOT
BRANCH   8  15
ATOM     15  CA  ALA A   1     -11.666  15.666  68.428  1.00  0.00    -0.290 C  
ATOM     16  CB  ALA A   1     -12.275  15.508  69.824  1.00  0.00    -0.328 C  
BRANCH  15  17
ATOM     17  N   ALA A   1     -11.958  14.510  67.558  1.00  0.00    -0.534 NA 
ATOM     18  H   ALA A   1     -11.911  14.788  66.578  1.00  0.00     0.000 HD 
BRANCH  17  19
HETATM   19  C   UNK A   0     -11.113  13.313  67.789  1.00  0.00    -0.265 C  
BRANCH  19  20
HETATM   20  C   UNK A   0     -11.716  12.362  68.844  1.00  0.00    -0.372 C  
BRANCH  20  21
HETATM   21  C   UNK A   0     -10.818  11.155  69.164  1.00  0.00    -0.284 C  
BRANCH  21  22
HETATM   22  C   UNK A   0     -11.392  10.335  70.294  1.00  0.00    -0.398 A  
HETATM   23  C   UNK A   0     -12.726  10.496  70.688  1.00  0.00    -0.441 A  
HETATM   24  C   UNK A   0     -10.604   9.369  70.936  1.00  0.00    -0.390 A  
HETATM   25  C   UNK A   0     -13.257   9.718  71.716  1.00  0.00    -0.532 A  
HETATM   26  C   UNK A   0     -11.138   8.592  71.965  1.00  0.00    -0.412 A  
HETATM   27  C   UNK A   0     -12.464   8.766  72.356  1.00  0.00    -0.421 A  
ENDBRANCH  21  22
ENDBRANCH  20  21
ENDBRANCH  19  20
BRANCH  19  28
HETATM   28  C   UNK A   0     -10.951  12.546  66.459  1.00  0.00    -0.266 C  
HETATM   29  O   UNK A   0      -9.887  12.273  65.925  1.00  0.00    -0.247 OA 
BRANCH  28  30
HETATM   30  O   UNK A   0     -12.182  12.288  65.917  1.00  0.00    -0.634 OA 
BRANCH  30  31
HETATM   31  C   UNK A   0     -12.465  12.983  64.691  1.00  0.00    -0.400 C  
HETATM   32  C   UNK A   0     -12.448  11.970  63.558  1.00  0.00    -0.654 C  
ENDBRANCH  30  31
ENDBRANCH  28  30
ENDBRANCH  19  28
ENDBRANCH  17  19
ENDBRANCH  15  17
ENDBRANCH   8  15
TORSDOF 9
ENDMDL
MODEL        9
REMARK 921   NORMALIZED FREE ENERGY PREDICTED BY IDOCK:   -6.53 KCAL/MOL
REMARK 922        TOTAL FREE ENERGY PREDICTED BY IDOCK:  -11.91 KCAL/MOL
REMARK 923 INTER-LIGAND FREE ENERGY PREDICTED BY IDOCK:  -10.39 KCAL/MOL
REMARK 924 INTRA-LIGAND FREE ENERGY PREDICTED BY IDOCK:   -1.52 KCAL/MOL
REMARK 927      BINDING AFFINITY PREDICTED BY RF-SCORE:    0.00 PKD
ROOT
ATOM      1  C   ALA A   1      -9.328   8.419  66.629  1.00  0.00    -0.245 C  
ATOM      2  C   ALA A   1     -10.573   8.598  67.481  1.00  0.00    -0.292 C  
ATOM      3  CA  ALA A   1     -10.785  10.119  67.419  1.00  0.00    -0.277 C  
ATOM      4  N   ALA A   1     -10.190  10.538  66.120  1.00  0.00    -0.242 N  
ATOM      5  C   ALA A   1     -10.125  10.788  68.627  1.00  0.00    -0.183 C  
ATOM      6  C   ALA A   1      -9.604   9.368  65.457  1.00  0.00    -0.258 C  
ATOM      7  O   ALA A   1      -8.932  11.359  68.349  1.00  0.00    -0.162 OA 
ATOM      8  C   ALA A   1     -10.622  11.640  65.373  1.00  0.00    -0.280 C  
ATOM      9  OXT ALA A   1     -10.607  10.767  69.751  1.00  0.00    -0.226 OA 
ATOM     10  C   ALA A   1      -9.020   7.015  66.147  1.00  0.00    -0.162 C  
ATOM     11  O   ALA A   1     -10.283  11.788  64.197  1.00  0.00    -0.276 OA 
ATOM     12  C   ALA A   1      -8.325   9.500  64.630  1.00  0.00    -0.161 C  
ATOM     13  C   ALA A   1      -7.799   7.050  65.222  1.00  0.00    -0.121 C  
ATOM     14  C   ALA A   1      -7.914   8.107  64.114  1.00  0.00    -0.142 C  
ENDROOT
BRANCH   8  15
ATOM     15  CA  ALA A   1     -11.582  12.666  66.075  1.00  0.00    -0.393 C  
ATOM     16  CB  ALA A   1     -12.543  13.264  65.044  1.00  0.00    -0.483 C  
BRANCH  15  17
ATOM     17  N   ALA A   1     -10.791  13.703  66.767  1.00  0.00    -0.289 NA 
ATOM     18  H   ALA A   1      -9.876  13.797  66.327  1.00  0.00     0.000 HD 
BRANCH  17  19
HETATM   19  C   UNK A   0     -11.443  15.030  66.878  1.00  0.00    -0.263 C  
BRANCH  19  20
HETATM   20  C   UNK A   0     -11.651  15.464  68.344  1.00  0.00    -0.368 C  
BRANCH  20  21
HETATM   21  C   UNK A   0     -11.304  14.365  69.362  1.00  0.00    -0.319 C  
BRANCH  21  22
HETATM   22  C   UNK A   0     -11.962  14.630  70.694  1.00  0.00    -0.380 A  
HETATM   23  C   UNK A   0     -12.874  13.716  71.236  1.00  0.00    -0.424 A  
HETATM   24  C   UNK A   0     -11.634  15.780  71.427  1.00  0.00    -0.511 A  
HETATM   25  C   UNK A   0     -13.459  13.954  72.479  1.00  0.00    -0.676 A  
HETATM   26  C   UNK A   0     -12.222  16.017  72.670  1.00  0.00    -0.619 A  
HETATM   27  C   UNK A   0     -13.135  15.106  73.196  1.00  0.00    -0.625 A  
ENDBRANCH  21  22
ENDBRANCH  20  21
ENDBRANCH  19  20
BRANCH  19  28
HETATM   28  C   UNK A   0     -10.569  16.083  66.164  1.00  0.00    -0.297 C  
HETATM   29  O   UNK A   0     -10.503  16.246  64.955  1.00  0.00    -0.621 OA 
BRANCH  28  30
HETATM   30  O   UNK A   0      -9.807  16.756  67.081  1.00  0.00    -0.247 OA 
BRANCH  30  31
HETATM   31  C   UNK A   0      -9.501  18.117  66.738  1.00  0.00    -0.294 C  
HETATM   32  C   UNK A   0     -10.589  19.007  67.317  1.00  0.00    -0.554 C  
ENDBRANCH  30  31
ENDBRANCH  28  30
ENDBRANCH  19  28
ENDBRANCH  17  19
ENDBRANCH  15  17
ENDBRANCH   8  15
TORSDOF 9
ENDMDL
MODEL       10
REMARK 921   NORMALIZED FREE ENERGY PREDICTED BY IDOCK:   -6.50 KCAL/MOL
REMARK 922        TOTAL FREE ENERGY PREDICTED BY IDOCK:  -11.87 KCAL/MOL
REMARK 923 INTER-LIGAND FREE ENERGY PREDICTED BY IDOCK:  -10.06 KCAL/MOL
REMARK 924 INTRA-LIGAND FREE ENERGY PREDICTED BY IDOCK:   -1.81 KCAL/MOL
REMARK 927      BINDING AFFINITY PREDICTED BY RF-SCORE:    0.00 PKD
ROOT
ATOM      1  C   ALA A   1     -10.024  17.788  66.850  1.00  0.00    -0.332 C  
ATOM      2  C   ALA A   1     -10.928  16.941  67.729  1.00  0.00    -0.212 C  
ATOM      3  CA  ALA A   1     -10.391  15.525  67.468  1.00  0.00    -0.271 C  
ATOM      4  N   ALA A   1      -8.958  15.718  67.113  1.00  0.00    -0.205 N  
ATOM      5  C   ALA A   1     -11.202  14.854  66.358  1.00  0.00    -0.331 C  
ATOM      6  C   ALA A   1      -8.651  17.152  67.098  1.00  0.00    -0.204 C  
ATOM      7  O   ALA A   1     -10.589  14.861  65.155  1.00  0.00    -0.369 OA 
ATOM      8  C   ALA A   1      -7.951  14.774  67.353  1.00  0.00    -0.197 C  
ATOM      9  OXT ALA A   1     -12.323  14.396  66.531  1.00  0.00    -0.411 OA 
ATOM     10  C   ALA A   1     -10.003  19.280  67.119  1.00  0.00    -0.452 C  
ATOM     11  O   ALA A   1      -6.759  15.081  67.285  1.00  0.00    -0.278 OA 
ATOM     12  C   ALA A   1      -7.661  17.728  66.087  1.00  0.00    -0.302 C  
ATOM     13  C   ALA A   1      -8.962  19.946  66.214  1.00  0.00    -0.419 C  
ATOM     14  C   ALA A   1      -7.590  19.258  66.266  1.00  0.00    -0.289 C  
ENDROOT
BRANCH   8  15
ATOM     15  CA  ALA A   1      -8.394  13.320  67.745  1.00  0.00    -0.171 C  
ATOM     16  CB  ALA A   1      -7.301  12.657  68.588  1.00  0.00    -0.101 C  
BRANCH  15  17
ATOM     17  N   ALA A   1      -8.707  12.544  66.528  1.00  0.00    -0.407 NA 
ATOM     18  H   ALA A   1      -7.847  12.301  66.037  1.00  0.00     0.000 HD 
BRANCH  17  19
HETATM   19  C   UNK A   0      -9.530  11.329  66.745  1.00  0.00    -0.179 C  
BRANCH  19  20
HETATM   20  C   UNK A   0     -10.809  11.622  67.556  1.00  0.00    -0.287 C  
BRANCH  20  21
HETATM   21  C   UNK A   0     -10.919  10.793  68.847  1.00  0.00    -0.289 C  
BRANCH  21  22
HETATM   22  C   UNK A   0     -11.742  11.513  69.887  1.00  0.00    -0.420 A  
HETATM   23  C   UNK A   0     -12.424  10.798  70.879  1.00  0.00    -0.500 A  
HETATM   24  C   UNK A   0     -11.798  12.914  69.897  1.00  0.00    -0.373 A  
HETATM   25  C   UNK A   0     -13.162  11.471  71.853  1.00  0.00    -0.479 A  
HETATM   26  C   UNK A   0     -12.539  13.585  70.872  1.00  0.00    -0.414 A  
HETATM   27  C   UNK A   0     -13.221  12.864  71.850  1.00  0.00    -0.521 A  
ENDBRANCH  21  22
ENDBRANCH  20  21
ENDBRANCH  19  20
BRANCH  19  28
HETATM   28  C   UNK A   0      -9.930  10.741  65.375  1.00  0.00    -0.271 C  
HETATM   29  O   UNK A   0      -9.944   9.553  65.092  1.00  0.00    -0.196 OA 
BRANCH  28  30
HETATM   30  O   UNK A   0     -10.187  11.753  64.490  1.00  0.00    -0.259 OA 
BRANCH  30  31
HETATM   31  C   UNK A   0     -10.958  11.374  63.338  1.00  0.00    -0.258 C  
HETATM   32  C   UNK A   0     -12.342  11.988  63.471  1.00  0.00    -0.661 C  
ENDBRANCH  30  31
ENDBRANCH  28  30
ENDBRANCH  19  28
ENDBRANCH  17  19
ENDBRANCH  15  17
ENDBRANCH   8  15
TORSDOF 9
ENDMDL
MODEL       11
REMARK 921   NORMALIZED FREE ENERGY PREDICTED BY IDOCK:   -6.42 KCAL/MOL
REMARK 922        TOTAL FREE ENERGY PREDICTED BY IDOCK:  -11.75 KCAL/MOL
REMARK 923 INTER-LIGAND FREE ENERGY PREDICTED BY IDOCK:  -10.19 KCAL/MOL
REMARK 924 INTRA-LIGAND FREE ENERGY PREDICTED BY IDOCK:   -1.56 KCAL/MOL
REMARK 927      BINDING AFFINITY PREDICTED BY RF-SCORE:    0.00 PKD
ROOT
ATOM      1  C   ALA A   1      -9.224   6.889  72.301  1.00  0.00    -0.144 C  
ATOM      2  C   ALA A   1      -8.607   8.277  72.338  1.00  0.00    -0.270 C  
ATOM      3  CA  ALA A   1      -9.599   9.088  71.488  1.00  0.00    -0.270 C  
ATOM      4  N   ALA A   1     -10.903   8.386  71.645  1.00  0.00    -0.249 N  
ATOM      5  C   ALA A   1      -9.117   9.149  70.038  1.00  0.00    -0.192 C  
ATOM      6  C   ALA A   1     -10.714   7.196  72.482  1.00  0.00    -0.250 C  
ATOM      7  O   ALA A   1      -9.756   8.287  69.215  1.00  0.00    -0.172 OA 
ATOM      8  C   ALA A   1     -12.152   9.014  71.566  1.00  0.00    -0.340 C  
ATOM      9  OXT ALA A   1      -8.205   9.873  69.664  1.00  0.00    -0.139 OA 
ATOM     10  C   ALA A   1      -8.732   5.890  73.330  1.00  0.00    -0.120 C  
ATOM     11  O   ALA A   1     -13.175   8.451  71.959  1.00  0.00    -0.335 OA 
ATOM     12  C   ALA A   1     -11.508   5.919  72.211  1.00  0.00    -0.351 C  
ATOM     13  C   ALA A   1      -9.538   4.593  73.207  1.00  0.00    -0.143 C  
ATOM     14  C   ALA A   1     -11.056   4.826  73.200  1.00  0.00    -0.388 C  
ENDROOT
BRANCH   8  15
ATOM     15  CA  ALA A   1     -12.198  10.474  70.991  1.00  0.00    -0.400 C  
ATOM     16  CB  ALA A   1     -13.330  11.258  71.662  1.00  0.00    -0.300 C  
BRANCH  15  17
ATOM     17  N   ALA A   1     -12.345  10.432  69.522  1.00  0.00    -0.589 NA 
ATOM     18  H   ALA A   1     -13.260  10.057  69.273  1.00  0.00     0.000 HD 
BRANCH  17  19
HETATM   19  C   UNK A   0     -12.114  11.720  68.824  1.00  0.00    -0.144 C  
BRANCH  19  20
HETATM   20  C   UNK A   0     -11.267  12.700  69.663  1.00  0.00    -0.077 C  
BRANCH  20  21
HETATM   21  C   UNK A   0     -11.657  14.174  69.460  1.00  0.00    -0.349 C  
BRANCH  21  22
HETATM   22  C   UNK A   0     -12.250  14.757  70.720  1.00  0.00    -0.380 A  
HETATM   23  C   UNK A   0     -13.637  14.800  70.904  1.00  0.00    -0.273 A  
HETATM   24  C   UNK A   0     -11.413  15.226  71.743  1.00  0.00    -0.494 A  
HETATM   25  C   UNK A   0     -14.178  15.317  72.081  1.00  0.00    -0.667 A  
HETATM   26  C   UNK A   0     -11.956  15.744  72.919  1.00  0.00    -0.599 A  
HETATM   27  C   UNK A   0     -13.339  15.790  73.089  1.00  0.00    -0.685 A  
ENDBRANCH  21  22
ENDBRANCH  20  21
ENDBRANCH  19  20
BRANCH  19  28
HETATM   28  C   UNK A   0     -11.388  11.447  67.490  1.00  0.00    -0.292 C  
HETATM   29  O   UNK A   0     -10.272  10.965  67.377  1.00  0.00    -0.188 OA 
BRANCH  28  30
HETATM   30  O   UNK A   0     -12.146  11.905  66.445  1.00  0.00    -0.552 OA 
BRANCH  30  31
HETATM   31  C   UNK A   0     -11.492  12.855  65.588  1.00  0.00    -0.332 C  
HETATM   32  C   UNK A   0     -12.374  14.089  65.488  1.00  0.00    -0.503 C  
ENDBRANCH  30  31
ENDBRANCH  28  30
ENDBRANCH  19  28
ENDBRANCH  17  19
ENDBRANCH  15  17
ENDBRANCH   8  15
TORSDOF 9
ENDMDL
MODEL       12
REMARK 921   NORMALIZED FREE ENERGY PREDICTED BY IDOCK:   -6.38 KCAL/MOL
REMARK 922        TOTAL FREE ENERGY PREDICTED BY IDOCK:  -11.69 KCAL/MOL
REMARK 923 INTER-LIGAND FREE ENERGY PREDICTED BY IDOCK:  -10.20 KCAL/MOL
REMARK 924 INTRA-LIGAND FREE ENERGY PREDICTED BY IDOCK:   -1.49 KCAL/MOL
REMARK 927      BINDING AFFINITY PREDICTED BY RF-SCORE:    0.00 PKD
ROOT
ATOM      1  C   ALA A   1      -9.076  19.134  66.834  1.00  0.00    -0.340 C  
ATOM      2  C   ALA A   1     -10.511  18.988  66.356  1.00  0.00    -0.524 C  
ATOM      3  CA  ALA A   1     -10.781  17.497  66.611  1.00  0.00    -0.097 C  
ATOM      4  N   ALA A   1      -9.886  17.133  67.744  1.00  0.00    -0.266 N  
ATOM      5  C   ALA A   1     -10.504  16.690  65.341  1.00  0.00    -0.233 C  
ATOM      6  C   ALA A   1      -9.081  18.300  68.120  1.00  0.00    -0.298 C  
ATOM      7  O   ALA A   1      -9.313  16.052  65.350  1.00  0.00    -0.339 OA 
ATOM      8  C   ALA A   1     -10.163  16.126  68.677  1.00  0.00    -0.244 C  
ATOM      9  OXT ALA A   1     -11.265  16.664  64.384  1.00  0.00    -1.033 OA 
ATOM     10  C   ALA A   1      -8.575  20.543  67.086  1.00  0.00    -0.364 C  
ATOM     11  O   ALA A   1      -9.532  16.041  69.732  1.00  0.00    -0.174 OA 
ATOM     12  C   ALA A   1      -7.638  18.132  68.594  1.00  0.00    -0.306 C  
ATOM     13  C   ALA A   1      -7.155  20.483  67.660  1.00  0.00    -0.363 C  
ATOM     14  C   ALA A   1      -7.029  19.524  68.853  1.00  0.00    -0.386 C  
ENDROOT
BRANCH   8  15
ATOM     15  CA  ALA A   1     -11.330  15.127  68.347  1.00  0.00    -0.315 C  
ATOM     16  CB  ALA A   1     -12.234  14.966  69.573  1.00  0.00    -0.268 C  
BRANCH  15  17
ATOM     17  N   ALA A   1     -10.775  13.838  67.890  1.00  0.00    -0.244 NA 
ATOM     18  H   ALA A   1      -9.931  13.614  68.417  1.00  0.00     0.000 HD 
BRANCH  17  19
HETATM   19  C   UNK A   0     -11.717  12.693  67.926  1.00  0.00    -0.358 C  
BRANCH  19  20
HETATM   20  C   UNK A   0     -12.017  12.134  66.519  1.00  0.00    -0.198 C  
BRANCH  20  21
HETATM   21  C   UNK A   0     -11.180  12.791  65.408  1.00  0.00    -0.327 C  
BRANCH  21  22
HETATM   22  C   UNK A   0     -10.351  11.766  64.675  1.00  0.00    -0.336 A  
HETATM   23  C   UNK A   0      -9.913  12.004  63.366  1.00  0.00    -0.384 A  
HETATM   24  C   UNK A   0      -9.973  10.575  65.312  1.00  0.00    -0.364 A  
HETATM   25  C   UNK A   0      -9.125  11.064  62.702  1.00  0.00    -0.375 A  
HETATM   26  C   UNK A   0      -9.185   9.635  64.646  1.00  0.00    -0.293 A  
HETATM   27  C   UNK A   0      -8.762   9.879  63.341  1.00  0.00    -0.230 A  
ENDBRANCH  21  22
ENDBRANCH  20  21
ENDBRANCH  19  20
BRANCH  19  28
HETATM   28  C   UNK A   0     -11.111  11.569  68.792  1.00  0.00    -0.233 C  
HETATM   29  O   UNK A   0      -9.919  11.340  68.922  1.00  0.00    -0.203 OA 
BRANCH  28  30
HETATM   30  O   UNK A   0     -12.112  10.806  69.332  1.00  0.00    -0.308 OA 
BRANCH  30  31
HETATM   31  C   UNK A   0     -12.006  10.575  70.746  1.00  0.00    -0.370 C  
HETATM   32  C   UNK A   0     -12.738  11.696  71.465  1.00  0.00    -0.423 C  
ENDBRANCH  30  31
ENDBRANCH  28  30
ENDBRANCH  19  28
ENDBRANCH  17  19
ENDBRANCH  15  17
ENDBRANCH   8  15
TORSDOF 9
ENDMDL
MODEL       13
REMARK 921   NORMALIZED FREE ENERGY PREDICTED BY IDOCK:   -6.37 KCAL/MOL
REMARK 922        TOTAL FREE ENERGY PREDICTED BY IDOCK:  -11.67 KCAL/MOL
REMARK 923 INTER-LIGAND FREE ENERGY PREDICTED BY IDOCK:  -10.13 KCAL/MOL
REMARK 924 INTRA-LIGAND FREE ENERGY PREDICTED BY IDOCK:   -1.54 KCAL/MOL
REMARK 927      BINDING AFFINITY PREDICTED BY RF-SCORE:    0.00 PKD
ROOT
ATOM      1  C   ALA A   1      -8.150  17.789  66.989  1.00  0.00    -0.239 C  
ATOM      2  C   ALA A   1      -7.120  16.689  66.796  1.00  0.00    -0.271 C  
ATOM      3  CA  ALA A   1      -7.921  15.433  67.174  1.00  0.00    -0.217 C  
ATOM      4  N   ALA A   1      -9.337  15.773  66.863  1.00  0.00    -0.218 N  
ATOM      5  C   ALA A   1      -7.692  15.091  68.648  1.00  0.00    -0.128 C  
ATOM      6  C   ALA A   1      -9.409  17.157  66.384  1.00  0.00    -0.262 C  
ATOM      7  O   ALA A   1      -8.703  15.475  69.458  1.00  0.00    -0.261 OA 
ATOM      8  C   ALA A   1     -10.309  14.836  66.491  1.00  0.00    -0.286 C  
ATOM      9  OXT ALA A   1      -6.670  14.564  69.063  1.00  0.00    -0.093 OA 
ATOM     10  C   ALA A   1      -7.846  19.135  66.360  1.00  0.00    -0.296 C  
ATOM     11  O   ALA A   1     -11.380  15.191  65.994  1.00  0.00    -0.318 OA 
ATOM     12  C   ALA A   1     -10.608  18.040  66.729  1.00  0.00    -0.281 C  
ATOM     13  C   ALA A   1      -9.038  20.075  66.568  1.00  0.00    -0.452 C  
ATOM     14  C   ALA A   1     -10.377  19.450  66.150  1.00  0.00    -0.595 C  
ENDROOT
BRANCH   8  15
ATOM     15  CA  ALA A   1      -9.975  13.316  66.697  1.00  0.00    -0.272 C  
ATOM     16  CB  ALA A   1     -10.806  12.468  65.730  1.00  0.00    -0.310 C  
BRANCH  15  17
ATOM     17  N   ALA A   1     -10.201  12.938  68.106  1.00  0.00    -0.233 NA 
ATOM     18  H   ALA A   1      -9.772  13.624  68.726  1.00  0.00     0.000 HD 
BRANCH  17  19
HETATM   19  C   UNK A   0     -11.619  12.724  68.486  1.00  0.00    -0.321 C  
BRANCH  19  20
HETATM   20  C   UNK A   0     -11.859  11.332  69.105  1.00  0.00    -0.423 C  
BRANCH  20  21
HETATM   21  C   UNK A   0     -10.561  10.593  69.473  1.00  0.00    -0.265 C  
BRANCH  21  22
HETATM   22  C   UNK A   0     -10.775   9.668  70.645  1.00  0.00    -0.388 A  
HETATM   23  C   UNK A   0     -12.062   9.436  71.148  1.00  0.00    -0.406 A  
HETATM   24  C   UNK A   0      -9.689   8.992  71.220  1.00  0.00    -0.371 A  
HETATM   25  C   UNK A   0     -12.257   8.560  72.215  1.00  0.00    -0.454 A  
HETATM   26  C   UNK A   0      -9.886   8.117  72.289  1.00  0.00    -0.329 A  
HETATM   27  C   UNK A   0     -11.169   7.900  72.787  1.00  0.00    -0.466 A  
ENDBRANCH  21  22
ENDBRANCH  20  21
ENDBRANCH  19  20
BRANCH  19  28
HETATM   28  C   UNK A   0     -12.036  13.804  69.506  1.00  0.00    -0.345 C  
HETATM   29  O   UNK A   0     -12.013  15.009  69.310  1.00  0.00    -0.307 OA 
BRANCH  28  30
HETATM   30  O   UNK A   0     -12.356  13.218  70.701  1.00  0.00    -0.356 OA 
BRANCH  30  31
HETATM   31  C   UNK A   0     -12.676  14.133  71.762  1.00  0.00    -0.337 C  
HETATM   32  C   UNK A   0     -14.136  13.935  72.134  1.00  0.00    -0.630 C  
ENDBRANCH  30  31
ENDBRANCH  28  30
ENDBRANCH  19  28
ENDBRANCH  17  19
ENDBRANCH  15  17
ENDBRANCH   8  15
TORSDOF 9
ENDMDL
MODEL       14
REMARK 921   NORMALIZED FREE ENERGY PREDICTED BY IDOCK:   -6.36 KCAL/MOL
REMARK 922        TOTAL FREE ENERGY PREDICTED BY IDOCK:  -11.65 KCAL/MOL
REMARK 923 INTER-LIGAND FREE ENERGY PREDICTED BY IDOCK:  -10.05 KCAL/MOL
REMARK 924 INTRA-LIGAND FREE ENERGY PREDICTED BY IDOCK:   -1.59 KCAL/MOL
REMARK 927      BINDING AFFINITY PREDICTED BY RF-SCORE:    0.00 PKD
ROOT
ATOM      1  C   ALA A   1      -9.679   8.533  70.608  1.00  0.00    -0.207 C  
ATOM      2  C   ALA A   1      -8.681   9.517  70.024  1.00  0.00    -0.242 C  
ATOM      3  CA  ALA A   1      -9.600  10.505  69.290  1.00  0.00    -0.181 C  
ATOM      4  N   ALA A   1     -10.890  10.455  70.033  1.00  0.00    -0.290 N  
ATOM      5  C   ALA A   1      -9.735  10.102  67.820  1.00  0.00    -0.153 C  
ATOM      6  C   ALA A   1     -10.789   9.463  71.109  1.00  0.00    -0.357 C  
ATOM      7  O   ALA A   1     -10.889   9.459  67.536  1.00  0.00    -0.269 OA 
ATOM      8  C   ALA A   1     -11.789  11.524  70.128  1.00  0.00    -0.356 C  
ATOM      9  OXT ALA A   1      -8.861  10.299  66.988  1.00  0.00    -0.135 OA 
ATOM     10  C   ALA A   1      -9.180   7.618  71.710  1.00  0.00    -0.167 C  
ATOM     11  O   ALA A   1     -12.699  11.521  70.959  1.00  0.00    -0.371 OA 
ATOM     12  C   ALA A   1     -11.996   8.611  71.500  1.00  0.00    -0.362 C  
ATOM     13  C   ALA A   1     -10.346   6.779  72.243  1.00  0.00    -0.219 C  
ATOM     14  C   ALA A   1     -11.577   7.622  72.606  1.00  0.00    -0.371 C  
ENDROOT
BRANCH   8  15
ATOM     15  CA  ALA A   1     -11.577  12.743  69.161  1.00  0.00    -0.319 C  
ATOM     16  CB  ALA A   1     -12.184  14.005  69.780  1.00  0.00    -0.396 C  
BRANCH  15  17
ATOM     17  N   ALA A   1     -12.152  12.440  67.836  1.00  0.00    -0.404 NA 
ATOM     18  H   ALA A   1     -13.163  12.324  67.911  1.00  0.00     0.000 HD 
BRANCH  17  19
HETATM   19  C   UNK A   0     -11.829  13.415  66.766  1.00  0.00    -0.403 C  
BRANCH  19  20
HETATM   20  C   UNK A   0     -10.337  13.808  66.759  1.00  0.00    -0.272 C  
BRANCH  20  21
HETATM   21  C   UNK A   0     -10.010  14.950  65.782  1.00  0.00    -0.376 C  
BRANCH  21  22
HETATM   22  C   UNK A   0      -9.699  16.227  66.523  1.00  0.00    -0.281 A  
HETATM   23  C   UNK A   0     -10.526  16.670  67.563  1.00  0.00    -0.317 A  
HETATM   24  C   UNK A   0      -8.550  16.966  66.206  1.00  0.00    -0.319 A  
HETATM   25  C   UNK A   0     -10.220  17.837  68.261  1.00  0.00    -0.382 A  
HETATM   26  C   UNK A   0      -8.246  18.135  66.906  1.00  0.00    -0.258 A  
HETATM   27  C   UNK A   0      -9.080  18.571  67.932  1.00  0.00    -0.306 A  
ENDBRANCH  21  22
ENDBRANCH  20  21
ENDBRANCH  19  20
BRANCH  19  28
HETATM   28  C   UNK A   0     -12.191  12.800  65.397  1.00  0.00    -0.478 C  
HETATM   29  O   UNK A   0     -13.218  13.019  64.773  1.00  0.00    -0.709 OA 
BRANCH  28  30
HETATM   30  O   UNK A   0     -11.228  11.903  65.020  1.00  0.00    -0.313 OA 
BRANCH  30  31
HETATM   31  C   UNK A   0     -11.148  11.655  63.607  1.00  0.00    -0.425 C  
HETATM   32  C   UNK A   0      -9.692  11.395  63.254  1.00  0.00    -0.413 C  
ENDBRANCH  30  31
ENDBRANCH  28  30
ENDBRANCH  19  28
ENDBRANCH  17  19
ENDBRANCH  15  17
ENDBRANCH   8  15
TORSDOF 9
ENDMDL
MODEL       15
REMARK 921   NORMALIZED FREE ENERGY PREDICTED BY IDOCK:   -6.28 KCAL/MOL
REMARK 922        TOTAL FREE ENERGY PREDICTED BY IDOCK:  -11.53 KCAL/MOL
REMARK 923 INTER-LIGAND FREE ENERGY PREDICTED BY IDOCK:  -10.13 KCAL/MOL
REMARK 924 INTRA-LIGAND FREE ENERGY PREDICTED BY IDOCK:   -1.40 KCAL/MOL
REMARK 927      BINDING AFFINITY PREDICTED BY RF-SCORE:    0.00 PKD
ROOT
ATOM      1  C   ALA A   1      -9.758   6.162  69.574  1.00  0.00    -0.175 C  
ATOM      2  C   ALA A   1     -10.382   6.717  70.843  1.00  0.00    -0.237 C  
ATOM      3  CA  ALA A   1     -10.179   8.229  70.663  1.00  0.00    -0.193 C  
ATOM      4  N   ALA A   1     -10.150   8.440  69.189  1.00  0.00    -0.198 N  
ATOM      5  C   ALA A   1      -8.891   8.671  71.361  1.00  0.00    -0.215 C  
ATOM      6  C   ALA A   1     -10.267   7.144  68.513  1.00  0.00    -0.175 C  
ATOM      7  O   ALA A   1      -7.849   8.850  70.519  1.00  0.00    -0.084 OA 
ATOM      8  C   ALA A   1     -10.558   9.618  68.552  1.00  0.00    -0.220 C  
ATOM      9  OXT ALA A   1      -8.796   8.803  72.573  1.00  0.00    -0.402 OA 
ATOM     10  C   ALA A   1     -10.094   4.728  69.212  1.00  0.00    -0.217 C  
ATOM     11  O   ALA A   1     -10.763   9.650  67.337  1.00  0.00    -0.275 OA 
ATOM     12  C   ALA A   1      -9.520   6.876  67.207  1.00  0.00    -0.161 C  
ATOM     13  C   ALA A   1      -9.465   4.385  67.857  1.00  0.00    -0.209 C  
ATOM     14  C   ALA A   1      -9.780   5.421  66.768  1.00  0.00    -0.170 C  
ENDROOT
BRANCH   8  15
ATOM     15  CA  ALA A   1     -10.779  10.891  69.445  1.00  0.00    -0.225 C  
ATOM     16  CB  ALA A   1     -12.277  11.100  69.687  1.00  0.00    -0.360 C  
BRANCH  15  17
ATOM     17  N   ALA A   1     -10.147  12.066  68.812  1.00  0.00    -0.381 NA 
ATOM     18  H   ALA A   1      -9.535  11.767  68.053  1.00  0.00     0.000 HD 
BRANCH  17  19
HETATM   19  C   UNK A   0     -11.086  13.108  68.329  1.00  0.00    -0.266 C  
BRANCH  19  20
HETATM   20  C   UNK A   0     -10.727  14.513  68.856  1.00  0.00    -0.259 C  
BRANCH  20  21
HETATM   21  C   UNK A   0     -11.954  15.404  69.111  1.00  0.00    -0.324 C  
BRANCH  21  22
HETATM   22  C   UNK A   0     -12.326  15.412  70.573  1.00  0.00    -0.452 A  
HETATM   23  C   UNK A   0     -11.563  16.134  71.500  1.00  0.00    -0.502 A  
HETATM   24  C   UNK A   0     -13.468  14.730  71.016  1.00  0.00    -0.401 A  
HETATM   25  C   UNK A   0     -11.926  16.159  72.847  1.00  0.00    -0.623 A  
HETATM   26  C   UNK A   0     -13.828  14.755  72.364  1.00  0.00    -0.578 A  
HETATM   27  C   UNK A   0     -13.057  15.469  73.280  1.00  0.00    -0.658 A  
ENDBRANCH  21  22
ENDBRANCH  20  21
ENDBRANCH  19  20
BRANCH  19  28
HETATM   28  C   UNK A   0     -11.064  13.131  66.786  1.00  0.00    -0.289 C  
HETATM   29  O   UNK A   0     -10.265  13.748  66.100  1.00  0.00    -0.286 OA 
BRANCH  28  30
HETATM   30  O   UNK A   0     -12.128  12.423  66.294  1.00  0.00    -0.612 OA 
BRANCH  30  31
HETATM   31  C   UNK A   0     -12.750  12.991  65.129  1.00  0.00    -0.397 C  
HETATM   32  C   UNK A   0     -12.375  12.137  63.929  1.00  0.00    -0.587 C  
ENDBRANCH  30  31
ENDBRANCH  28  30
ENDBRANCH  19  28
ENDBRANCH  17  19
ENDBRANCH  15  17
ENDBRANCH   8  15
TORSDOF 9
ENDMDL
MODEL       16
REMARK 921   NORMALIZED FREE ENERGY PREDICTED BY IDOCK:   -6.26 KCAL/MOL
REMARK 922        TOTAL FREE ENERGY PREDICTED BY IDOCK:  -11.49 KCAL/MOL
REMARK 923 INTER-LIGAND FREE ENERGY PREDICTED BY IDOCK:  -10.29 KCAL/MOL
REMARK 924 INTRA-LIGAND FREE ENERGY PREDICTED BY IDOCK:   -1.21 KCAL/MOL
REMARK 927      BINDING AFFINITY PREDICTED BY RF-SCORE:    0.00 PKD
ROOT
ATOM      1  C   ALA A   1      -9.765  10.574  64.397  1.00  0.00    -0.388 C  
ATOM      2  C   ALA A   1     -10.468  11.720  63.689  1.00  0.00    -0.490 C  
ATOM      3  CA  ALA A   1     -10.710  12.706  64.842  1.00  0.00    -0.299 C  
ATOM      4  N   ALA A   1      -9.618  12.432  65.817  1.00  0.00    -0.204 N  
ATOM      5  C   ALA A   1     -12.108  12.496  65.426  1.00  0.00    -0.435 C  
ATOM      6  C   ALA A   1      -8.800  11.318  65.327  1.00  0.00    -0.008 C  
ATOM      7  O   ALA A   1     -12.115  11.790  66.579  1.00  0.00    -0.498 OA 
ATOM      8  C   ALA A   1      -9.077  13.388  66.685  1.00  0.00    -0.169 C  
ATOM      9  OXT ALA A   1     -13.129  12.886  64.879  1.00  0.00    -0.799 OA 
ATOM     10  C   ALA A   1      -9.036   9.570  63.525  1.00  0.00    -0.205 C  
ATOM     11  O   ALA A   1      -8.014  13.186  67.276  1.00  0.00    -0.173 OA 
ATOM     12  C   ALA A   1      -8.192  10.309  66.301  1.00  0.00    -0.131 C  
ATOM     13  C   ALA A   1      -8.305   8.559  64.415  1.00  0.00    -0.125 C  
ATOM     14  C   ALA A   1      -7.445   9.224  65.500  1.00  0.00    -0.090 C  
ENDROOT
BRANCH   8  15
ATOM     15  CA  ALA A   1      -9.855  14.742  66.855  1.00  0.00    -0.243 C  
ATOM     16  CB  ALA A   1      -9.578  15.651  65.654  1.00  0.00    -0.319 C  
BRANCH  15  17
ATOM     17  N   ALA A   1      -9.482  15.379  68.134  1.00  0.00    -0.201 NA 
ATOM     18  H   ALA A   1      -8.525  15.727  68.086  1.00  0.00     0.000 HD 
BRANCH  17  19
HETATM   19  C   UNK A   0     -10.393  16.454  68.596  1.00  0.00    -0.273 C  
BRANCH  19  20
HETATM   20  C   UNK A   0     -10.935  16.197  70.018  1.00  0.00    -0.364 C  
BRANCH  20  21
HETATM   21  C   UNK A   0     -12.421  15.803  70.045  1.00  0.00    -0.178 C  
BRANCH  21  22
HETATM   22  C   UNK A   0     -12.602  14.397  70.559  1.00  0.00    -0.417 A  
HETATM   23  C   UNK A   0     -11.971  13.318  69.928  1.00  0.00    -0.400 A  
HETATM   24  C   UNK A   0     -13.374  14.157  71.705  1.00  0.00    -0.459 A  
HETATM   25  C   UNK A   0     -12.121  12.022  70.423  1.00  0.00    -0.407 A  
HETATM   26  C   UNK A   0     -13.524  12.860  72.199  1.00  0.00    -0.619 A  
HETATM   27  C   UNK A   0     -12.899  11.793  71.558  1.00  0.00    -0.450 A  
ENDBRANCH  21  22
ENDBRANCH  20  21
ENDBRANCH  19  20
BRANCH  19  28
HETATM   28  C   UNK A   0      -9.634  17.797  68.586  1.00  0.00    -0.322 C  
HETATM   29  O   UNK A   0      -8.429  17.930  68.734  1.00  0.00    -0.283 OA 
BRANCH  28  30
HETATM   30  O   UNK A   0     -10.521  18.834  68.472  1.00  0.00    -0.310 OA 
BRANCH  30  31
HETATM   31  C   UNK A   0     -10.122  19.881  67.571  1.00  0.00    -0.429 C  
HETATM   32  C   UNK A   0     -10.469  19.445  66.157  1.00  0.00    -0.600 C  
ENDBRANCH  30  31
ENDBRANCH  28  30
ENDBRANCH  19  28
ENDBRANCH  17  19
ENDBRANCH  15  17
ENDBRANCH   8  15
TORSDOF 9
ENDMDL
MODEL       17
REMARK 921   NORMALIZED FREE ENERGY PREDICTED BY IDOCK:   -6.23 KCAL/MOL
REMARK 922        TOTAL FREE ENERGY PREDICTED BY IDOCK:  -11.45 KCAL/MOL
REMARK 923 INTER-LIGAND FREE ENERGY PREDICTED BY IDOCK:  -10.28 KCAL/MOL
REMARK 924 INTRA-LIGAND FREE ENERGY PREDICTED BY IDOCK:   -1.17 KCAL/MOL
REMARK 927      BINDING AFFINITY PREDICTED BY RF-SCORE:    0.00 PKD
ROOT
ATOM      1  C   ALA A   1     -11.556  10.351  69.834  1.00  0.00    -0.358 C  
ATOM      2  C   ALA A   1     -10.318   9.747  69.194  1.00  0.00    -0.225 C  
ATOM      3  CA  ALA A   1      -9.963  10.798  68.131  1.00  0.00    -0.160 C  
ATOM      4  N   ALA A   1     -10.488  12.083  68.672  1.00  0.00    -0.227 N  
ATOM      5  C   ALA A   1     -10.583  10.412  66.786  1.00  0.00    -0.205 C  
ATOM      6  C   ALA A   1     -11.168  11.829  69.946  1.00  0.00    -0.014 C  
ATOM      7  O   ALA A   1     -11.710  11.095  66.490  1.00  0.00    -0.234 OA 
ATOM      8  C   ALA A   1      -9.939  13.340  68.392  1.00  0.00    -0.226 C  
ATOM      9  OXT ALA A   1     -10.129   9.534  66.067  1.00  0.00    -0.295 OA 
ATOM     10  C   ALA A   1     -11.984   9.784  71.174  1.00  0.00    -0.463 C  
ATOM     11  O   ALA A   1     -10.238  14.331  69.062  1.00  0.00    -0.220 OA 
ATOM     12  C   ALA A   1     -12.410  12.627  70.340  1.00  0.00    -0.315 C  
ATOM     13  C   ALA A   1     -13.177  10.584  71.707  1.00  0.00    -0.522 C  
ATOM     14  C   ALA A   1     -12.940  12.101  71.689  1.00  0.00    -0.427 C  
ENDROOT
BRANCH   8  15
ATOM     15  CA  ALA A   1      -8.903  13.438  67.217  1.00  0.00    -0.220 C  
ATOM     16  CB  ALA A   1      -7.803  14.441  67.579  1.00  0.00    -0.207 C  
BRANCH  15  17
ATOM     17  N   ALA A   1      -9.595  13.799  65.964  1.00  0.00    -0.468 NA 
ATOM     18  H   ALA A   1      -9.753  12.965  65.399  1.00  0.00     0.000 HD 
BRANCH  17  19
HETATM   19  C   UNK A   0     -10.865  14.547  66.133  1.00  0.00    -0.317 C  
BRANCH  19  20
HETATM   20  C   UNK A   0     -10.664  16.074  66.049  1.00  0.00    -0.271 C  
BRANCH  20  21
HETATM   21  C   UNK A   0     -10.890  16.796  67.388  1.00  0.00    -0.176 C  
BRANCH  21  22
HETATM   22  C   UNK A   0     -10.094  18.076  67.457  1.00  0.00    -0.356 A  
HETATM   23  C   UNK A   0      -8.823  18.096  68.046  1.00  0.00    -0.286 A  
HETATM   24  C   UNK A   0     -10.600  19.255  66.891  1.00  0.00    -0.557 A  
HETATM   25  C   UNK A   0      -8.081  19.277  68.084  1.00  0.00    -0.349 A  
HETATM   26  C   UNK A   0      -9.856  20.435  66.931  1.00  0.00    -0.572 A  
HETATM   27  C   UNK A   0      -8.597  20.447  67.528  1.00  0.00    -0.358 A  
ENDBRANCH  21  22
ENDBRANCH  20  21
ENDBRANCH  19  20
BRANCH  19  28
HETATM   28  C   UNK A   0     -11.857  14.111  65.034  1.00  0.00    -0.389 C  
HETATM   29  O   UNK A   0     -13.069  14.036  65.165  1.00  0.00    -0.776 OA 
BRANCH  28  30
HETATM   30  O   UNK A   0     -11.172  13.737  63.909  1.00  0.00    -0.194 OA 
BRANCH  30  31
HETATM   31  C   UNK A   0     -11.522  12.446  63.384  1.00  0.00    -0.448 C  
HETATM   32  C   UNK A   0     -10.245  11.639  63.219  1.00  0.00    -0.445 C  
ENDBRANCH  30  31
ENDBRANCH  28  30
ENDBRANCH  19  28
ENDBRANCH  17  19
ENDBRANCH  15  17
ENDBRANCH   8  15
TORSDOF 9
ENDMDL
MODEL       18
REMARK 921   NORMALIZED FREE ENERGY PREDICTED BY IDOCK:   -6.22 KCAL/MOL
REMARK 922        TOTAL FREE ENERGY PREDICTED BY IDOCK:  -11.43 KCAL/MOL
REMARK 923 INTER-LIGAND FREE ENERGY PREDICTED BY IDOCK:   -9.86 KCAL/MOL
REMARK 924 INTRA-LIGAND FREE ENERGY PREDICTED BY IDOCK:   -1.57 KCAL/MOL
REMARK 927      BINDING AFFINITY PREDICTED BY RF-SCORE:    0.00 PKD
ROOT
ATOM      1  C   ALA A   1      -7.789  19.112  68.134  1.00  0.00    -0.336 C  
ATOM      2  C   ALA A   1      -9.190  19.683  67.994  1.00  0.00    -0.409 C  
ATOM      3  CA  ALA A   1     -10.013  18.430  67.658  1.00  0.00    -0.338 C  
ATOM      4  N   ALA A   1      -9.271  17.303  68.286  1.00  0.00    -0.257 N  
ATOM      5  C   ALA A   1     -10.154  18.289  66.141  1.00  0.00    -0.346 C  
ATOM      6  C   ALA A   1      -8.049  17.818  68.913  1.00  0.00    -0.158 C  
ATOM      7  O   ALA A   1      -9.315  17.378  65.599  1.00  0.00    -0.496 OA 
ATOM      8  C   ALA A   1      -9.869  16.124  68.748  1.00  0.00    -0.230 C  
ATOM      9  OXT ALA A   1     -10.918  18.970  65.472  1.00  0.00    -0.396 OA 
ATOM     10  C   ALA A   1      -6.757  19.981  68.826  1.00  0.00    -0.344 C  
ATOM     11  O   ALA A   1      -9.262  15.347  69.488  1.00  0.00    -0.261 OA 
ATOM     12  C   ALA A   1      -6.765  16.989  68.916  1.00  0.00    -0.203 C  
ATOM     13  C   ALA A   1      -5.446  19.200  68.967  1.00  0.00    -0.211 C  
ATOM     14  C   ALA A   1      -5.640  17.806  69.582  1.00  0.00    -0.218 C  
ENDROOT
BRANCH   8  15
ATOM     15  CA  ALA A   1     -11.352  15.842  68.318  1.00  0.00    -0.354 C  
ATOM     16  CB  ALA A   1     -12.251  15.797  69.558  1.00  0.00    -0.178 C  
BRANCH  15  17
ATOM     17  N   ALA A   1     -11.420  14.593  67.535  1.00  0.00    -0.347 NA 
ATOM     18  H   ALA A   1     -12.328  14.147  67.665  1.00  0.00     0.000 HD 
BRANCH  17  19
HETATM   19  C   UNK A   0     -11.125  14.734  66.088  1.00  0.00    -0.339 C  
BRANCH  19  20
HETATM   20  C   UNK A   0      -9.792  14.065  65.692  1.00  0.00    -0.255 C  
BRANCH  20  21
HETATM   21  C   UNK A   0      -9.134  13.282  66.841  1.00  0.00    -0.235 C  
BRANCH  21  22
HETATM   22  C   UNK A   0      -9.490  11.817  66.773  1.00  0.00    -0.202 A  
HETATM   23  C   UNK A   0      -8.752  10.939  65.969  1.00  0.00    -0.192 A  
HETATM   24  C   UNK A   0     -10.540  11.309  67.550  1.00  0.00    -0.257 A  
HETATM   25  C   UNK A   0      -9.070   9.581  65.931  1.00  0.00    -0.230 A  
HETATM   26  C   UNK A   0     -10.857   9.950  67.509  1.00  0.00    -0.307 A  
HETATM   27  C   UNK A   0     -10.123   9.086  66.699  1.00  0.00    -0.355 A  
ENDBRANCH  21  22
ENDBRANCH  20  21
ENDBRANCH  19  20
BRANCH  19  28
HETATM   28  C   UNK A   0     -12.268  14.090  65.275  1.00  0.00    -0.440 C  
HETATM   29  O   UNK A   0     -13.391  13.860  65.694  1.00  0.00    -0.620 OA 
BRANCH  28  30
HETATM   30  O   UNK A   0     -11.814  13.735  64.033  1.00  0.00    -0.413 OA 
BRANCH  30  31
HETATM   31  C   UNK A   0     -12.339  12.498  63.523  1.00  0.00    -0.525 C  
HETATM   32  C   UNK A   0     -11.202  11.492  63.457  1.00  0.00    -0.412 C  
ENDBRANCH  30  31
ENDBRANCH  28  30
ENDBRANCH  19  28
ENDBRANCH  17  19
ENDBRANCH  15  17
ENDBRANCH   8  15
TORSDOF 9
ENDMDL
MODEL       19
REMARK 921   NORMALIZED FREE ENERGY PREDICTED BY IDOCK:   -6.20 KCAL/MOL
REMARK 922        TOTAL FREE ENERGY PREDICTED BY IDOCK:  -11.41 KCAL/MOL
REMARK 923 INTER-LIGAND FREE ENERGY PREDICTED BY IDOCK:   -9.87 KCAL/MOL
REMARK 924 INTRA-LIGAND FREE ENERGY PREDICTED BY IDOCK:   -1.54 KCAL/MOL
REMARK 927      BINDING AFFINITY PREDICTED BY RF-SCORE:    0.00 PKD
ROOT
ATOM      1  C   ALA A   1      -8.484   8.786  68.326  1.00  0.00    -0.130 C  
ATOM      2  C   ALA A   1      -7.757   9.955  68.969  1.00  0.00    -0.089 C  
ATOM      3  CA  ALA A   1      -8.373  11.155  68.234  1.00  0.00    -0.143 C  
ATOM      4  N   ALA A   1      -9.735  10.705  67.836  1.00  0.00    -0.159 N  
ATOM      5  C   ALA A   1      -7.495  11.545  67.043  1.00  0.00    -0.151 C  
ATOM      6  C   ALA A   1      -9.922   9.309  68.245  1.00  0.00    -0.173 C  
ATOM      7  O   ALA A   1      -7.963  11.105  65.855  1.00  0.00    -0.107 OA 
ATOM      8  C   ALA A   1     -10.835  11.557  67.683  1.00  0.00    -0.227 C  
ATOM      9  OXT ALA A   1      -6.442  12.157  67.158  1.00  0.00    -0.148 OA 
ATOM     10  C   ALA A   1      -8.415   7.453  69.046  1.00  0.00    -0.129 C  
ATOM     11  O   ALA A   1     -11.983  11.113  67.613  1.00  0.00    -0.613 OA 
ATOM     12  C   ALA A   1     -10.739   8.346  67.385  1.00  0.00    -0.225 C  
ATOM     13  C   ALA A   1      -9.288   6.431  68.310  1.00  0.00    -0.109 C  
ATOM     14  C   ALA A   1     -10.707   6.945  68.027  1.00  0.00    -0.276 C  
ENDROOT
BRANCH   8  15
ATOM     15  CA  ALA A   1     -10.559  13.103  67.636  1.00  0.00    -0.228 C  
ATOM     16  CB  ALA A   1     -11.692  13.852  68.344  1.00  0.00    -0.391 C  
BRANCH  15  17
ATOM     17  N   ALA A   1     -10.390  13.541  66.237  1.00  0.00    -0.287 NA 
ATOM     18  H   ALA A   1     -10.447  12.740  65.609  1.00  0.00     0.000 HD 
BRANCH  17  19
HETATM   19  C   UNK A   0     -11.320  14.606  65.788  1.00  0.00    -0.340 C  
BRANCH  19  20
HETATM   20  C   UNK A   0     -10.578  15.860  65.280  1.00  0.00    -0.441 C  
BRANCH  20  21
HETATM   21  C   UNK A   0      -9.375  16.255  66.153  1.00  0.00    -0.374 C  
BRANCH  21  22
HETATM   22  C   UNK A   0      -9.621  17.567  66.856  1.00  0.00    -0.279 A  
HETATM   23  C   UNK A   0      -8.957  17.874  68.050  1.00  0.00    -0.267 A  
HETATM   24  C   UNK A   0     -10.489  18.516  66.297  1.00  0.00    -0.441 A  
HETATM   25  C   UNK A   0      -9.169  19.099  68.682  1.00  0.00    -0.429 A  
HETATM   26  C   UNK A   0     -10.701  19.741  66.932  1.00  0.00    -0.541 A  
HETATM   27  C   UNK A   0     -10.042  20.032  68.125  1.00  0.00    -0.547 A  
ENDBRANCH  21  22
ENDBRANCH  20  21
ENDBRANCH  19  20
BRANCH  19  28
HETATM   28  C   UNK A   0     -12.207  14.055  64.652  1.00  0.00    -0.435 C  
HETATM   29  O   UNK A   0     -12.709  14.721  63.760  1.00  0.00    -0.767 OA 
BRANCH  28  30
HETATM   30  O   UNK A   0     -12.423  12.715  64.838  1.00  0.00    -0.484 OA 
BRANCH  30  31
HETATM   31  C   UNK A   0     -12.277  11.906  63.659  1.00  0.00    -0.479 C  
HETATM   32  C   UNK A   0     -10.849  11.389  63.614  1.00  0.00    -0.459 C  
ENDBRANCH  30  31
ENDBRANCH  28  30
ENDBRANCH  19  28
ENDBRANCH  17  19
ENDBRANCH  15  17
ENDBRANCH   8  15
TORSDOF 9
ENDMDL
MODEL       20
REMARK 921   NORMALIZED FREE ENERGY PREDICTED BY IDOCK:   -6.20 KCAL/MOL
REMARK 922        TOTAL FREE ENERGY PREDICTED BY IDOCK:  -11.41 KCAL/MOL
REMARK 923 INTER-LIGAND FREE ENERGY PREDICTED BY IDOCK:   -9.90 KCAL/MOL
REMARK 924 INTRA-LIGAND FREE ENERGY PREDICTED BY IDOCK:   -1.51 KCAL/MOL
REMARK 927      BINDING AFFINITY PREDICTED BY RF-SCORE:    0.00 PKD
ROOT
ATOM      1  C   ALA A   1      -9.617  10.222  64.449  1.00  0.00    -0.378 C  
ATOM      2  C   ALA A   1      -9.947  11.265  63.395  1.00  0.00    -0.433 C  
ATOM      3  CA  ALA A   1     -10.444  12.438  64.254  1.00  0.00    -0.363 C  
ATOM      4  N   ALA A   1      -9.749  12.280  65.561  1.00  0.00    -0.206 N  
ATOM      5  C   ALA A   1     -11.969  12.391  64.372  1.00  0.00    -0.407 C  
ATOM      6  C   ALA A   1      -8.929  11.064  65.529  1.00  0.00    -0.194 C  
ATOM      7  O   ALA A   1     -12.408  11.886  65.546  1.00  0.00    -0.352 OA 
ATOM      8  C   ALA A   1      -9.421  13.340  66.415  1.00  0.00    -0.217 C  
ATOM      9  OXT ALA A   1     -12.722  12.732  63.471  1.00  0.00    -0.713 OA 
ATOM     10  C   ALA A   1      -8.750   9.055  64.016  1.00  0.00    -0.115 C  
ATOM     11  O   ALA A   1      -8.624  13.190  67.344  1.00  0.00    -0.183 OA 
ATOM     12  C   ALA A   1      -8.761  10.203  66.780  1.00  0.00    -0.133 C  
ATOM     13  C   ALA A   1      -8.440   8.173  65.229  1.00  0.00    -0.157 C  
ATOM     14  C   ALA A   1      -7.908   8.968  66.431  1.00  0.00    -0.099 C  
ENDROOT
BRANCH   8  15
ATOM     15  CA  ALA A   1     -10.078  14.737  66.128  1.00  0.00    -0.296 C  
ATOM     16  CB  ALA A   1      -9.026  15.842  66.267  1.00  0.00    -0.381 C  
BRANCH  15  17
ATOM     17  N   ALA A   1     -11.229  14.947  67.028  1.00  0.00    -0.339 NA 
ATOM     18  H   ALA A   1     -11.928  14.220  66.878  1.00  0.00     0.000 HD 
BRANCH  17  19
HETATM   19  C   UNK A   0     -10.896  15.043  68.471  1.00  0.00    -0.250 C  
BRANCH  19  20
HETATM   20  C   UNK A   0     -11.367  16.373  69.096  1.00  0.00    -0.241 C  
BRANCH  20  21
HETATM   21  C   UNK A   0     -10.210  17.288  69.532  1.00  0.00    -0.046 C  
BRANCH  21  22
HETATM   22  C   UNK A   0      -9.951  18.363  68.506  1.00  0.00    -0.415 A  
HETATM   23  C   UNK A   0      -8.763  19.104  68.531  1.00  0.00    -0.401 A  
HETATM   24  C   UNK A   0     -10.882  18.605  67.486  1.00  0.00    -0.373 A  
HETATM   25  C   UNK A   0      -8.517  20.079  67.565  1.00  0.00    -0.393 A  
HETATM   26  C   UNK A   0     -10.635  19.583  66.520  1.00  0.00    -0.579 A  
HETATM   27  C   UNK A   0      -9.453  20.320  66.560  1.00  0.00    -0.460 A  
ENDBRANCH  21  22
ENDBRANCH  20  21
ENDBRANCH  19  20
BRANCH  19  28
HETATM   28  C   UNK A   0     -11.566  13.873  69.222  1.00  0.00    -0.309 C  
HETATM   29  O   UNK A   0     -11.996  12.854  68.704  1.00  0.00    -0.313 OA 
BRANCH  28  30
HETATM   30  O   UNK A   0     -11.687  14.180  70.551  1.00  0.00    -0.279 OA 
BRANCH  30  31
HETATM   31  C   UNK A   0     -12.985  13.937  71.116  1.00  0.00    -0.318 C  
HETATM   32  C   UNK A   0     -13.466  15.224  71.766  1.00  0.00    -0.558 C  
ENDBRANCH  30  31
ENDBRANCH  28  30
ENDBRANCH  19  28
ENDBRANCH  17  19
ENDBRANCH  15  17
ENDBRANCH   8  15
TORSDOF 9
ENDMDL
MODEL       21
REMARK 921   NORMALIZED FREE ENERGY PREDICTED BY IDOCK:   -6.17 KCAL/MOL
REMARK 922        TOTAL FREE ENERGY PREDICTED BY IDOCK:  -11.36 KCAL/MOL
REMARK 923 INTER-LIGAND FREE ENERGY PREDICTED BY IDOCK:   -9.81 KCAL/MOL
REMARK 924 INTRA-LIGAND FREE ENERGY PREDICTED BY IDOCK:   -1.54 KCAL/MOL
REMARK 927      BINDING AFFINITY PREDICTED BY RF-SCORE:    0.00 PKD
ROOT
ATOM      1  C   ALA A   1     -10.019   9.460  66.548  1.00  0.00    -0.339 C  
ATOM      2  C   ALA A   1      -9.979  10.327  65.301  1.00  0.00    -0.387 C  
ATOM      3  CA  ALA A   1      -9.952  11.742  65.898  1.00  0.00    -0.236 C  
ATOM      4  N   ALA A   1      -9.306  11.585  67.230  1.00  0.00    -0.165 N  
ATOM      5  C   ALA A   1     -11.373  12.303  65.978  1.00  0.00    -0.350 C  
ATOM      6  C   ALA A   1      -9.012  10.167  67.461  1.00  0.00    -0.131 C  
ATOM      7  O   ALA A   1     -11.914  12.239  67.215  1.00  0.00    -0.546 OA 
ATOM      8  C   ALA A   1      -8.560  12.583  67.869  1.00  0.00    -0.179 C  
ATOM      9  OXT ALA A   1     -11.983  12.725  65.006  1.00  0.00    -0.362 OA 
ATOM     10  C   ALA A   1      -9.681   7.992  66.377  1.00  0.00    -0.255 C  
ATOM     11  O   ALA A   1      -7.836  12.322  68.831  1.00  0.00    -0.043 OA 
ATOM     12  C   ALA A   1      -9.122   9.565  68.861  1.00  0.00    -0.141 C  
ATOM     13  C   ALA A   1      -9.670   7.309  67.749  1.00  0.00    -0.167 C  
ATOM     14  C   ALA A   1      -8.819   8.055  68.786  1.00  0.00    -0.138 C  
ENDROOT
BRANCH   8  15
ATOM     15  CA  ALA A   1      -8.651  14.041  67.294  1.00  0.00    -0.216 C  
ATOM     16  CB  ALA A   1      -7.250  14.655  67.216  1.00  0.00    -0.082 C  
BRANCH  15  17
ATOM     17  N   ALA A   1      -9.568  14.851  68.120  1.00  0.00    -0.206 NA 
ATOM     18  H   ALA A   1      -9.063  15.626  68.547  1.00  0.00     0.000 HD 
BRANCH  17  19
HETATM   19  C   UNK A   0     -10.775  15.355  67.419  1.00  0.00    -0.296 C  
BRANCH  19  20
HETATM   20  C   UNK A   0     -11.815  15.950  68.392  1.00  0.00    -0.129 C  
BRANCH  20  21
HETATM   21  C   UNK A   0     -11.324  16.014  69.848  1.00  0.00    -0.340 C  
BRANCH  21  22
HETATM   22  C   UNK A   0     -12.141  15.110  70.738  1.00  0.00    -0.387 A  
HETATM   23  C   UNK A   0     -13.119  15.639  71.589  1.00  0.00    -0.554 A  
HETATM   24  C   UNK A   0     -11.959  13.721  70.691  1.00  0.00    -0.340 A  
HETATM   25  C   UNK A   0     -13.889  14.796  72.391  1.00  0.00    -0.578 A  
HETATM   26  C   UNK A   0     -12.729  12.879  71.495  1.00  0.00    -0.339 A  
HETATM   27  C   UNK A   0     -13.694  13.416  72.345  1.00  0.00    -0.698 A  
ENDBRANCH  21  22
ENDBRANCH  20  21
ENDBRANCH  19  20
BRANCH  19  28
HETATM   28  C   UNK A   0     -10.354  16.444  66.410  1.00  0.00    -0.313 C  
HETATM   29  O   UNK A   0     -10.425  16.347  65.195  1.00  0.00    -0.622 OA 
BRANCH  28  30
HETATM   30  O   UNK A   0      -9.808  17.509  67.074  1.00  0.00    -0.274 OA 
BRANCH  30  31
HETATM   31  C   UNK A   0     -10.299  18.797  66.668  1.00  0.00    -0.420 C  
HETATM   32  C   UNK A   0     -10.236  19.727  67.869  1.00  0.00    -0.576 C  
ENDBRANCH  30  31
ENDBRANCH  28  30
ENDBRANCH  19  28
ENDBRANCH  17  19
ENDBRANCH  15  17
ENDBRANCH   8  15
TORSDOF 9
ENDMDL
MODEL       22
REMARK 921   NORMALIZED FREE ENERGY PREDICTED BY IDOCK:   -6.15 KCAL/MOL
REMARK 922        TOTAL FREE ENERGY PREDICTED BY IDOCK:  -11.33 KCAL/MOL
REMARK 923 INTER-LIGAND FREE ENERGY PREDICTED BY IDOCK:   -9.89 KCAL/MOL
REMARK 924 INTRA-LIGAND FREE ENERGY PREDICTED BY IDOCK:   -1.44 KCAL/MOL
REMARK 927      BINDING AFFINITY PREDICTED BY RF-SCORE:    0.00 PKD
ROOT
ATOM      1  C   ALA A   1     -11.861  13.237  65.949  1.00  0.00    -0.436 C  
ATOM      2  C   ALA A   1     -11.579  14.026  67.217  1.00  0.00    -0.396 C  
ATOM      3  CA  ALA A   1     -10.832  12.993  68.075  1.00  0.00    -0.242 C  
ATOM      4  N   ALA A   1     -10.174  12.084  67.096  1.00  0.00    -0.201 N  
ATOM      5  C   ALA A   1     -11.815  12.273  69.000  1.00  0.00    -0.305 C  
ATOM      6  C   ALA A   1     -10.539  12.493  65.736  1.00  0.00    -0.270 C  
ATOM      7  O   ALA A   1     -12.170  11.043  68.567  1.00  0.00    -0.582 OA 
ATOM      8  C   ALA A   1      -8.981  11.393  67.339  1.00  0.00    -0.154 C  
ATOM      9  OXT ALA A   1     -12.277  12.780  70.013  1.00  0.00    -0.284 OA 
ATOM     10  C   ALA A   1     -12.259  14.030  64.719  1.00  0.00    -0.454 C  
ATOM     11  O   ALA A   1      -8.347  10.870  66.421  1.00  0.00    -0.151 OA 
ATOM     12  C   ALA A   1     -10.741  11.451  64.636  1.00  0.00    -0.378 C  
ATOM     13  C   ALA A   1     -12.396  13.080  63.524  1.00  0.00    -0.500 C  
ATOM     14  C   ALA A   1     -11.178  12.164  63.341  1.00  0.00    -0.494 C  
ENDROOT
BRANCH   8  15
ATOM     15  CA  ALA A   1      -8.461  11.334  68.820  1.00  0.00    -0.112 C  
ATOM     16  CB  ALA A   1      -6.971  10.980  68.831  1.00  0.00    -0.088 C  
BRANCH  15  17
ATOM     17  N   ALA A   1      -9.268  10.374  69.599  1.00  0.00    -0.401 NA 
ATOM     18  H   ALA A   1     -10.073  10.069  69.053  1.00  0.00     0.000 HD 
BRANCH  17  19
HETATM   19  C   UNK A   0      -8.528   9.198  70.119  1.00  0.00    -0.176 C  
BRANCH  19  20
HETATM   20  C   UNK A   0      -9.083   8.705  71.472  1.00  0.00    -0.308 C  
BRANCH  20  21
HETATM   21  C   UNK A   0     -10.032   7.502  71.342  1.00  0.00    -0.200 C  
BRANCH  21  22
HETATM   22  C   UNK A   0     -11.472   7.927  71.496  1.00  0.00    -0.301 A  
HETATM   23  C   UNK A   0     -11.800   9.268  71.732  1.00  0.00    -0.454 A  
HETATM   24  C   UNK A   0     -12.504   6.988  71.361  1.00  0.00    -0.426 A  
HETATM   25  C   UNK A   0     -13.134   9.659  71.848  1.00  0.00    -0.530 A  
HETATM   26  C   UNK A   0     -13.838   7.381  71.478  1.00  0.00    -0.483 A  
HETATM   27  C   UNK A   0     -14.154   8.716  71.722  1.00  0.00    -0.499 A  
ENDBRANCH  21  22
ENDBRANCH  20  21
ENDBRANCH  19  20
BRANCH  19  28
HETATM   28  C   UNK A   0      -8.622   8.050  69.091  1.00  0.00    -0.137 C  
HETATM   29  O   UNK A   0      -7.790   7.170  68.937  1.00  0.00    -0.110 OA 
BRANCH  28  30
HETATM   30  O   UNK A   0      -9.738   8.209  68.315  1.00  0.00    -0.154 OA 
BRANCH  30  31
HETATM   31  C   UNK A   0      -9.790   7.375  67.145  1.00  0.00    -0.193 C  
HETATM   32  C   UNK A   0     -10.988   6.449  67.278  1.00  0.00    -0.474 C  
ENDBRANCH  30  31
ENDBRANCH  28  30
ENDBRANCH  19  28
ENDBRANCH  17  19
ENDBRANCH  15  17
ENDBRANCH   8  15
TORSDOF 9
ENDMDL
MODEL       23
REMARK 921   NORMALIZED FREE ENERGY PREDICTED BY IDOCK:   -6.11 KCAL/MOL
REMARK 922        TOTAL FREE ENERGY PREDICTED BY IDOCK:  -11.28 KCAL/MOL
REMARK 923 INTER-LIGAND FREE ENERGY PREDICTED BY IDOCK:   -9.80 KCAL/MOL
REMARK 924 INTRA-LIGAND FREE ENERGY PREDICTED BY IDOCK:   -1.48 KCAL/MOL
REMARK 927      BINDING AFFINITY PREDICTED BY RF-SCORE:    0.00 PKD
ROOT
ATOM      1  C   ALA A   1      -8.491  17.888  66.989  1.00  0.00    -0.248 C  
ATOM      2  C   ALA A   1      -8.206  16.681  66.111  1.00  0.00    -0.295 C  
ATOM      3  CA  ALA A   1      -8.672  15.521  67.004  1.00  0.00    -0.231 C  
ATOM      4  N   ALA A   1      -9.729  16.107  67.874  1.00  0.00    -0.224 N  
ATOM      5  C   ALA A   1      -7.487  14.957  67.791  1.00  0.00    -0.163 C  
ATOM      6  C   ALA A   1      -9.861  17.537  67.579  1.00  0.00    -0.293 C  
ATOM      7  O   ALA A   1      -7.435  15.378  69.074  1.00  0.00    -0.136 OA 
ATOM      8  C   ALA A   1     -10.804  15.384  68.405  1.00  0.00    -0.268 C  
ATOM      9  OXT ALA A   1      -6.636  14.233  67.294  1.00  0.00    -0.278 OA 
ATOM     10  C   ALA A   1      -8.508  19.244  66.311  1.00  0.00    -0.328 C  
ATOM     11  O   ALA A   1     -11.781  15.957  68.892  1.00  0.00    -0.390 OA 
ATOM     12  C   ALA A   1     -10.181  18.536  68.690  1.00  0.00    -0.363 C  
ATOM     13  C   ALA A   1      -8.915  20.317  67.327  1.00  0.00    -0.472 C  
ATOM     14  C   ALA A   1     -10.193  19.960  68.098  1.00  0.00    -0.564 C  
ENDROOT
BRANCH   8  15
ATOM     15  CA  ALA A   1     -10.738  13.817  68.329  1.00  0.00    -0.253 C  
ATOM     16  CB  ALA A   1     -11.764  13.305  67.312  1.00  0.00    -0.424 C  
BRANCH  15  17
ATOM     17  N   ALA A   1     -10.947  13.238  69.671  1.00  0.00    -0.454 NA 
ATOM     18  H   ALA A   1     -10.786  13.947  70.386  1.00  0.00     0.000 HD 
BRANCH  17  19
HETATM   19  C   UNK A   0     -12.263  12.588  69.884  1.00  0.00    -0.163 C  
BRANCH  19  20
HETATM   20  C   UNK A   0     -12.193  11.054  69.733  1.00  0.00    -0.388 C  
BRANCH  20  21
HETATM   21  C   UNK A   0     -10.840  10.459  70.157  1.00  0.00    -0.333 C  
BRANCH  21  22
HETATM   22  C   UNK A   0     -10.160   9.775  68.997  1.00  0.00    -0.195 A  
HETATM   23  C   UNK A   0      -8.931   9.126  69.170  1.00  0.00    -0.144 A  
HETATM   24  C   UNK A   0     -10.773   9.745  67.736  1.00  0.00    -0.329 A  
HETATM   25  C   UNK A   0      -8.319   8.473  68.100  1.00  0.00    -0.127 A  
HETATM   26  C   UNK A   0     -10.159   9.093  66.666  1.00  0.00    -0.343 A  
HETATM   27  C   UNK A   0      -8.932   8.458  66.847  1.00  0.00    -0.168 A  
ENDBRANCH  21  22
ENDBRANCH  20  21
ENDBRANCH  19  20
BRANCH  19  28
HETATM   28  C   UNK A   0     -12.771  12.930  71.301  1.00  0.00    -0.278 C  
HETATM   29  O   UNK A   0     -13.356  12.160  72.047  1.00  0.00    -0.503 OA 
BRANCH  28  30
HETATM   30  O   UNK A   0     -12.543  14.253  71.571  1.00  0.00    -0.322 OA 
BRANCH  30  31
HETATM   31  C   UNK A   0     -13.572  14.903  72.335  1.00  0.00    -0.450 C  
HETATM   32  C   UNK A   0     -12.926  15.539  73.554  1.00  0.00    -0.669 C  
ENDBRANCH  30  31
ENDBRANCH  28  30
ENDBRANCH  19  28
ENDBRANCH  17  19
ENDBRANCH  15  17
ENDBRANCH   8  15
TORSDOF 9
ENDMDL
MODEL       24
REMARK 921   NORMALIZED FREE ENERGY PREDICTED BY IDOCK:   -6.11 KCAL/MOL
REMARK 922        TOTAL FREE ENERGY PREDICTED BY IDOCK:  -11.26 KCAL/MOL
REMARK 923 INTER-LIGAND FREE ENERGY PREDICTED BY IDOCK:  -10.25 KCAL/MOL
REMARK 924 INTRA-LIGAND FREE ENERGY PREDICTED BY IDOCK:   -1.01 KCAL/MOL
REMARK 927      BINDING AFFINITY PREDICTED BY RF-SCORE:    0.00 PKD
ROOT
ATOM      1  C   ALA A   1      -7.333  17.979  67.304  1.00  0.00    -0.212 C  
ATOM      2  C   ALA A   1      -6.932  16.616  66.765  1.00  0.00    -0.264 C  
ATOM      3  CA  ALA A   1      -8.292  15.914  66.630  1.00  0.00    -0.293 C  
ATOM      4  N   ALA A   1      -9.272  17.014  66.410  1.00  0.00    -0.267 N  
ATOM      5  C   ALA A   1      -8.583  15.091  67.887  1.00  0.00    -0.155 C  
ATOM      6  C   ALA A   1      -8.573  18.302  66.464  1.00  0.00    -0.266 C  
ATOM      7  O   ALA A   1      -9.441  15.689  68.743  1.00  0.00    -0.193 OA 
ATOM      8  C   ALA A   1     -10.463  16.877  65.687  1.00  0.00    -0.238 C  
ATOM      9  OXT ALA A   1      -8.051  14.015  68.121  1.00  0.00    -0.130 OA 
ATOM     10  C   ALA A   1      -6.298  19.084  67.219  1.00  0.00    -0.189 C  
ATOM     11  O   ALA A   1     -11.100  17.863  65.312  1.00  0.00    -0.435 OA 
ATOM     12  C   ALA A   1      -9.253  19.534  67.059  1.00  0.00    -0.404 C  
ATOM     13  C   ALA A   1      -6.916  20.398  67.708  1.00  0.00    -0.347 C  
ATOM     14  C   ALA A   1      -8.262  20.715  67.041  1.00  0.00    -0.269 C  
ENDROOT
BRANCH   8  15
ATOM     15  CA  ALA A   1     -10.942  15.422  65.340  1.00  0.00    -0.368 C  
ATOM     16  CB  ALA A   1     -11.851  15.457  64.108  1.00  0.00    -0.116 C  
BRANCH  15  17
ATOM     17  N   ALA A   1     -11.612  14.821  66.510  1.00  0.00    -0.337 NA 
ATOM     18  H   ALA A   1     -12.612  15.017  66.480  1.00  0.00     0.000 HD 
BRANCH  17  19
HETATM   19  C   UNK A   0     -11.383  13.367  66.695  1.00  0.00    -0.323 C  
BRANCH  19  20
HETATM   20  C   UNK A   0     -12.169  12.795  67.893  1.00  0.00     0.016 C  
BRANCH  20  21
HETATM   21  C   UNK A   0     -11.416  12.907  69.229  1.00  0.00    -0.341 C  
BRANCH  21  22
HETATM   22  C   UNK A   0     -12.300  13.488  70.305  1.00  0.00    -0.370 A  
HETATM   23  C   UNK A   0     -12.821  12.675  71.319  1.00  0.00    -0.344 A  
HETATM   24  C   UNK A   0     -12.576  14.863  70.326  1.00  0.00    -0.361 A  
HETATM   25  C   UNK A   0     -13.617  13.222  72.325  1.00  0.00    -0.703 A  
HETATM   26  C   UNK A   0     -13.374  15.408  71.334  1.00  0.00    -0.601 A  
HETATM   27  C   UNK A   0     -13.895  14.589  72.332  1.00  0.00    -0.587 A  
ENDBRANCH  21  22
ENDBRANCH  20  21
ENDBRANCH  19  20
BRANCH  19  28
HETATM   28  C   UNK A   0     -11.812  12.622  65.414  1.00  0.00    -0.427 C  
HETATM   29  O   UNK A   0     -12.965  12.419  65.066  1.00  0.00    -0.705 OA 
BRANCH  28  30
HETATM   30  O   UNK A   0     -10.708  12.144  64.760  1.00  0.00    -0.277 OA 
BRANCH  30  31
HETATM   31  C   UNK A   0     -10.973  11.521  63.492  1.00  0.00    -0.373 C  
HETATM   32  C   UNK A   0      -9.642  11.136  62.867  1.00  0.00    -0.373 C  
ENDBRANCH  30  31
ENDBRANCH  28  30
ENDBRANCH  19  28
ENDBRANCH  17  19
ENDBRANCH  15  17
ENDBRANCH   8  15
TORSDOF 9
ENDMDL
MODEL       25
REMARK 921   NORMALIZED FREE ENERGY PREDICTED BY IDOCK:   -6.09 KCAL/MOL
REMARK 922        TOTAL FREE ENERGY PREDICTED BY IDOCK:  -11.24 KCAL/MOL
REMARK 923 INTER-LIGAND FREE ENERGY PREDICTED BY IDOCK:   -9.93 KCAL/MOL
REMARK 924 INTRA-LIGAND FREE ENERGY PREDICTED BY IDOCK:   -1.31 KCAL/MOL
REMARK 927      BINDING AFFINITY PREDICTED BY RF-SCORE:    0.00 PKD
ROOT
ATOM      1  C   ALA A   1      -9.370   7.672  69.191  1.00  0.00    -0.147 C  
ATOM      2  C   ALA A   1      -9.205   8.611  70.374  1.00  0.00    -0.189 C  
ATOM      3  CA  ALA A   1      -9.160   9.984  69.686  1.00  0.00    -0.210 C  
ATOM      4  N   ALA A   1      -9.948   9.813  68.434  1.00  0.00    -0.152 N  
ATOM      5  C   ALA A   1      -7.708  10.396  69.433  1.00  0.00    -0.158 C  
ATOM      6  C   ALA A   1     -10.394   8.420  68.330  1.00  0.00    -0.200 C  
ATOM      7  O   ALA A   1      -7.302  10.205  68.158  1.00  0.00    -0.081 OA 
ATOM      8  C   ALA A   1     -10.659  10.840  67.801  1.00  0.00    -0.228 C  
ATOM      9  OXT ALA A   1      -6.967  10.812  70.312  1.00  0.00    -0.233 OA 
ATOM     10  C   ALA A   1      -9.825   6.257  69.494  1.00  0.00    -0.183 C  
ATOM     11  O   ALA A   1     -11.497  10.595  66.931  1.00  0.00    -0.241 OA 
ATOM     12  C   ALA A   1     -10.482   7.727  66.971  1.00  0.00    -0.419 C  
ATOM     13  C   ALA A   1     -10.036   5.498  68.180  1.00  0.00    -0.221 C  
ATOM     14  C   ALA A   1     -10.915   6.262  67.179  1.00  0.00    -0.453 C  
ENDROOT
BRANCH   8  15
ATOM     15  CA  ALA A   1     -10.375  12.314  68.262  1.00  0.00    -0.221 C  
ATOM     16  CB  ALA A   1     -11.535  12.817  69.127  1.00  0.00    -0.361 C  
BRANCH  15  17
ATOM     17  N   ALA A   1     -10.144  13.174  67.085  1.00  0.00    -0.239 NA 
ATOM     18  H   ALA A   1      -9.963  12.600  66.262  1.00  0.00     0.000 HD 
BRANCH  17  19
HETATM   19  C   UNK A   0     -11.218  14.155  66.795  1.00  0.00    -0.323 C  
BRANCH  19  20
HETATM   20  C   UNK A   0     -10.685  15.599  66.695  1.00  0.00    -0.296 C  
BRANCH  20  21
HETATM   21  C   UNK A   0     -11.085  16.483  67.888  1.00  0.00    -0.229 C  
BRANCH  21  22
HETATM   22  C   UNK A   0     -10.596  17.899  67.704  1.00  0.00    -0.398 A  
HETATM   23  C   UNK A   0     -10.636  18.511  66.445  1.00  0.00    -0.365 A  
HETATM   24  C   UNK A   0     -10.133  18.636  68.803  1.00  0.00    -0.398 A  
HETATM   25  C   UNK A   0     -10.207  19.829  66.285  1.00  0.00    -0.615 A  
HETATM   26  C   UNK A   0      -9.703  19.954  68.641  1.00  0.00    -0.388 A  
HETATM   27  C   UNK A   0      -9.739  20.550  67.383  1.00  0.00    -0.587 A  
ENDBRANCH  21  22
ENDBRANCH  20  21
ENDBRANCH  19  20
BRANCH  19  28
HETATM   28  C   UNK A   0     -11.897  13.779  65.461  1.00  0.00    -0.363 C  
HETATM   29  O   UNK A   0     -13.102  13.736  65.268  1.00  0.00    -0.756 OA 
BRANCH  28  30
HETATM   30  O   UNK A   0     -10.950  13.417  64.541  1.00  0.00    -0.353 OA 
BRANCH  30  31
HETATM   31  C   UNK A   0     -11.341  12.362  63.647  1.00  0.00    -0.482 C  
HETATM   32  C   UNK A   0     -10.106  11.544  63.311  1.00  0.00    -0.439 C  
ENDBRANCH  30  31
ENDBRANCH  28  30
ENDBRANCH  19  28
ENDBRANCH  17  19
ENDBRANCH  15  17
ENDBRANCH   8  15
TORSDOF 9
ENDMDL
MODEL       26
REMARK 921   NORMALIZED FREE ENERGY PREDICTED BY IDOCK:   -6.09 KCAL/MOL
REMARK 922        TOTAL FREE ENERGY PREDICTED BY IDOCK:  -11.24 KCAL/MOL
REMARK 923 INTER-LIGAND FREE ENERGY PREDICTED BY IDOCK:  -10.23 KCAL/MOL
REMARK 924 INTRA-LIGAND FREE ENERGY PREDICTED BY IDOCK:   -1.01 KCAL/MOL
REMARK 927      BINDING AFFINITY PREDICTED BY RF-SCORE:    0.00 PKD
ROOT
ATOM      1  C   ALA A   1     -11.040   6.788  72.846  1.00  0.00    -0.277 C  
ATOM      2  C   ALA A   1     -12.048   6.567  71.732  1.00  0.00    -0.393 C  
ATOM      3  CA  ALA A   1     -12.056   7.936  71.034  1.00  0.00    -0.230 C  
ATOM      4  N   ALA A   1     -10.703   8.505  71.287  1.00  0.00    -0.227 N  
ATOM      5  C   ALA A   1     -13.188   8.801  71.592  1.00  0.00    -0.357 C  
ATOM      6  C   ALA A   1      -9.940   7.578  72.129  1.00  0.00    -0.177 C  
ATOM      7  O   ALA A   1     -12.776   9.724  72.489  1.00  0.00    -0.226 OA 
ATOM      8  C   ALA A   1     -10.048   9.396  70.428  1.00  0.00    -0.255 C  
ATOM      9  OXT ALA A   1     -14.363   8.643  71.293  1.00  0.00    -0.340 OA 
ATOM     10  C   ALA A   1     -10.484   5.552  73.527  1.00  0.00    -0.283 C  
ATOM     11  O   ALA A   1      -8.843   9.627  70.546  1.00  0.00    -0.225 OA 
ATOM     12  C   ALA A   1      -8.960   8.105  73.177  1.00  0.00    -0.330 C  
ATOM     13  C   ALA A   1      -9.413   5.968  74.540  1.00  0.00    -0.198 C  
ATOM     14  C   ALA A   1      -8.357   6.912  73.947  1.00  0.00    -0.152 C  
ENDROOT
BRANCH   8  15
ATOM     15  CA  ALA A   1     -10.895  10.065  69.288  1.00  0.00    -0.230 C  
ATOM     16  CB  ALA A   1     -10.734   9.270  67.989  1.00  0.00    -0.231 C  
BRANCH  15  17
ATOM     17  N   ALA A   1     -10.498  11.478  69.130  1.00  0.00    -0.394 NA 
ATOM     18  H   ALA A   1      -9.486  11.548  69.026  1.00  0.00     0.000 HD 
BRANCH  17  19
HETATM   19  C   UNK A   0     -11.174  12.208  68.029  1.00  0.00    -0.264 C  
BRANCH  19  20
HETATM   20  C   UNK A   0     -11.900  13.476  68.523  1.00  0.00    -0.398 C  
BRANCH  20  21
HETATM   21  C   UNK A   0     -11.058  14.328  69.487  1.00  0.00    -0.244 C  
BRANCH  21  22
HETATM   22  C   UNK A   0     -11.803  14.590  70.773  1.00  0.00    -0.367 A  
HETATM   23  C   UNK A   0     -12.664  13.625  71.310  1.00  0.00    -0.443 A  
HETATM   24  C   UNK A   0     -11.608  15.791  71.470  1.00  0.00    -0.531 A  
HETATM   25  C   UNK A   0     -13.330  13.863  72.512  1.00  0.00    -0.656 A  
HETATM   26  C   UNK A   0     -12.277  16.028  72.672  1.00  0.00    -0.619 A  
HETATM   27  C   UNK A   0     -13.138  15.064  73.193  1.00  0.00    -0.619 A  
ENDBRANCH  21  22
ENDBRANCH  20  21
ENDBRANCH  19  20
BRANCH  19  28
HETATM   28  C   UNK A   0     -10.124  12.612  66.973  1.00  0.00    -0.224 C  
HETATM   29  O   UNK A   0      -9.144  13.311  67.181  1.00  0.00    -0.213 OA 
BRANCH  28  30
HETATM   30  O   UNK A   0     -10.495  12.142  65.742  1.00  0.00    -0.239 OA 
BRANCH  30  31
HETATM   31  C   UNK A   0     -11.041  13.130  64.852  1.00  0.00    -0.314 C  
HETATM   32  C   UNK A   0     -11.960  12.425  63.868  1.00  0.00    -0.572 C  
ENDBRANCH  30  31
ENDBRANCH  28  30
ENDBRANCH  19  28
ENDBRANCH  17  19
ENDBRANCH  15  17
ENDBRANCH   8  15
TORSDOF 9
ENDMDL
MODEL       27
REMARK 921   NORMALIZED FREE ENERGY PREDICTED BY IDOCK:   -6.02 KCAL/MOL
REMARK 922        TOTAL FREE ENERGY PREDICTED BY IDOCK:  -11.13 KCAL/MOL
REMARK 923 INTER-LIGAND FREE ENERGY PREDICTED BY IDOCK:   -9.62 KCAL/MOL
REMARK 924 INTRA-LIGAND FREE ENERGY PREDICTED BY IDOCK:   -1.51 KCAL/MOL
REMARK 927      BINDING AFFINITY PREDICTED BY RF-SCORE:    0.00 PKD
ROOT
ATOM      1  C   ALA A   1     -10.980  13.703  66.314  1.00  0.00    -0.300 C  
ATOM      2  C   ALA A   1     -11.717  12.407  66.020  1.00  0.00    -0.469 C  
ATOM      3  CA  ALA A   1     -11.525  11.627  67.330  1.00  0.00    -0.277 C  
ATOM      4  N   ALA A   1     -11.376  12.672  68.381  1.00  0.00    -0.267 N  
ATOM      5  C   ALA A   1     -10.308  10.707  67.217  1.00  0.00    -0.220 C  
ATOM      6  C   ALA A   1     -11.414  13.997  67.754  1.00  0.00    -0.322 C  
ATOM      7  O   ALA A   1      -9.202  11.190  67.826  1.00  0.00    -0.148 OA 
ATOM      8  C   ALA A   1     -11.749  12.504  69.720  1.00  0.00    -0.285 C  
ATOM      9  OXT ALA A   1     -10.318   9.656  66.593  1.00  0.00    -0.239 OA 
ATOM     10  C   ALA A   1     -11.260  14.878  65.397  1.00  0.00    -0.359 C  
ATOM     11  O   ALA A   1     -11.851  13.468  70.480  1.00  0.00    -0.281 OA 
ATOM     12  C   ALA A   1     -10.556  15.141  68.294  1.00  0.00    -0.243 C  
ATOM     13  C   ALA A   1     -10.514  16.114  65.911  1.00  0.00    -0.366 C  
ATOM     14  C   ALA A   1     -10.754  16.383  67.403  1.00  0.00    -0.278 C  
ENDROOT
BRANCH   8  15
ATOM     15  CA  ALA A   1     -12.065  11.046  70.211  1.00  0.00    -0.362 C  
ATOM     16  CB  ALA A   1     -12.982  11.100  71.436  1.00  0.00    -0.506 C  
BRANCH  15  17
ATOM     17  N   ALA A   1     -10.807  10.324  70.487  1.00  0.00    -0.408 NA 
ATOM     18  H   ALA A   1     -10.269  10.819  71.198  1.00  0.00     0.000 HD 
BRANCH  17  19
HETATM   19  C   UNK A   0     -10.964   8.899  70.867  1.00  0.00    -0.266 C  
BRANCH  19  20
HETATM   20  C   UNK A   0     -10.441   7.939  69.778  1.00  0.00    -0.233 C  
BRANCH  20  21
HETATM   21  C   UNK A   0     -11.276   6.655  69.642  1.00  0.00    -0.397 C  
BRANCH  21  22
HETATM   22  C   UNK A   0     -10.645   5.698  68.660  1.00  0.00    -0.268 A  
HETATM   23  C   UNK A   0     -10.796   5.886  67.281  1.00  0.00    -0.351 A  
HETATM   24  C   UNK A   0      -9.863   4.629  69.120  1.00  0.00    -0.242 A  
HETATM   25  C   UNK A   0     -10.189   5.012  66.378  1.00  0.00    -0.307 A  
HETATM   26  C   UNK A   0      -9.257   3.755  68.215  1.00  0.00    -0.215 A  
HETATM   27  C   UNK A   0      -9.421   3.946  66.844  1.00  0.00    -0.225 A  
ENDBRANCH  21  22
ENDBRANCH  20  21
ENDBRANCH  19  20
BRANCH  19  28
HETATM   28  C   UNK A   0     -10.190   8.638  72.177  1.00  0.00    -0.323 C  
HETATM   29  O   UNK A   0      -9.010   8.889  72.363  1.00  0.00    -0.383 OA 
BRANCH  28  30
HETATM   30  O   UNK A   0     -11.001   8.003  73.079  1.00  0.00    -0.374 OA 
BRANCH  30  31
HETATM   31  C   UNK A   0     -10.399   6.893  73.763  1.00  0.00    -0.376 C  
HETATM   32  C   UNK A   0     -10.953   5.610  73.164  1.00  0.00    -0.326 C  
ENDBRANCH  30  31
ENDBRANCH  28  30
ENDBRANCH  19  28
ENDBRANCH  17  19
ENDBRANCH  15  17
ENDBRANCH   8  15
TORSDOF 9
ENDMDL
MODEL       28
REMARK 921   NORMALIZED FREE ENERGY PREDICTED BY IDOCK:   -6.01 KCAL/MOL
REMARK 922        TOTAL FREE ENERGY PREDICTED BY IDOCK:  -11.12 KCAL/MOL
REMARK 923 INTER-LIGAND FREE ENERGY PREDICTED BY IDOCK:   -9.58 KCAL/MOL
REMARK 924 INTRA-LIGAND FREE ENERGY PREDICTED BY IDOCK:   -1.54 KCAL/MOL
REMARK 927      BINDING AFFINITY PREDICTED BY RF-SCORE:    0.00 PKD
ROOT
ATOM      1  C   ALA A   1     -10.269   8.799  67.038  1.00  0.00    -0.351 C  
ATOM      2  C   ALA A   1     -10.170   9.654  65.786  1.00  0.00    -0.172 C  
ATOM      3  CA  ALA A   1      -9.986  11.061  66.376  1.00  0.00    -0.222 C  
ATOM      4  N   ALA A   1      -9.329  10.843  67.694  1.00  0.00    -0.155 N  
ATOM      5  C   ALA A   1     -11.341  11.763  66.487  1.00  0.00    -0.305 C  
ATOM      6  C   ALA A   1      -9.174   9.403  67.924  1.00  0.00    -0.129 C  
ATOM      7  O   ALA A   1     -11.857  11.757  67.736  1.00  0.00    -0.541 OA 
ATOM      8  C   ALA A   1      -8.470  11.762  68.310  1.00  0.00    -0.161 C  
ATOM      9  OXT ALA A   1     -11.929  12.242  65.527  1.00  0.00    -0.449 OA 
ATOM     10  C   ALA A   1     -10.085   7.304  66.867  1.00  0.00    -0.317 C  
ATOM     11  O   ALA A   1      -7.754  11.431  69.257  1.00  0.00    -0.066 OA 
ATOM     12  C   ALA A   1      -9.311   8.818  69.330  1.00  0.00    -0.149 C  
ATOM     13  C   ALA A   1     -10.111   6.626  68.241  1.00  0.00    -0.170 C  
ATOM     14  C   ALA A   1      -9.164   7.285  69.254  1.00  0.00    -0.144 C  
ENDROOT
BRANCH   8  15
ATOM     15  CA  ALA A   1      -8.427  13.220  67.730  1.00  0.00    -0.181 C  
ATOM     16  CB  ALA A   1      -6.985  13.735  67.733  1.00  0.00    -0.178 C  
BRANCH  15  17
ATOM     17  N   ALA A   1      -9.333  14.095  68.501  1.00  0.00    -0.222 NA 
ATOM     18  H   ALA A   1      -8.803  14.622  69.195  1.00  0.00     0.000 HD 
BRANCH  17  19
HETATM   19  C   UNK A   0     -10.168  15.015  67.691  1.00  0.00    -0.236 C  
BRANCH  19  20
HETATM   20  C   UNK A   0     -11.599  15.157  68.251  1.00  0.00    -0.357 C  
BRANCH  20  21
HETATM   21  C   UNK A   0     -11.647  15.781  69.656  1.00  0.00    -0.363 C  
BRANCH  21  22
HETATM   22  C   UNK A   0     -12.468  14.935  70.598  1.00  0.00    -0.411 A  
HETATM   23  C   UNK A   0     -12.313  13.543  70.628  1.00  0.00    -0.432 A  
HETATM   24  C   UNK A   0     -13.367  15.538  71.489  1.00  0.00    -0.593 A  
HETATM   25  C   UNK A   0     -13.055  12.768  71.519  1.00  0.00    -0.380 A  
HETATM   26  C   UNK A   0     -14.110  14.761  72.379  1.00  0.00    -0.548 A  
HETATM   27  C   UNK A   0     -13.955  13.377  72.394  1.00  0.00    -0.605 A  
ENDBRANCH  21  22
ENDBRANCH  20  21
ENDBRANCH  19  20
BRANCH  19  28
HETATM   28  C   UNK A   0      -9.502  16.407  67.662  1.00  0.00    -0.225 C  
HETATM   29  O   UNK A   0      -8.502  16.726  68.286  1.00  0.00    -0.206 OA 
BRANCH  28  30
HETATM   30  O   UNK A   0     -10.247  17.264  66.897  1.00  0.00    -0.305 OA 
BRANCH  30  31
HETATM   31  C   UNK A   0     -10.462  18.563  67.472  1.00  0.00    -0.418 C  
HETATM   32  C   UNK A   0     -10.169  19.607  66.406  1.00  0.00    -0.592 C  
ENDBRANCH  30  31
ENDBRANCH  28  30
ENDBRANCH  19  28
ENDBRANCH  17  19
ENDBRANCH  15  17
ENDBRANCH   8  15
TORSDOF 9
ENDMDL
MODEL       29
REMARK 921   NORMALIZED FREE ENERGY PREDICTED BY IDOCK:   -5.99 KCAL/MOL
REMARK 922        TOTAL FREE ENERGY PREDICTED BY IDOCK:  -11.09 KCAL/MOL
REMARK 923 INTER-LIGAND FREE ENERGY PREDICTED BY IDOCK:   -9.54 KCAL/MOL
REMARK 924 INTRA-LIGAND FREE ENERGY PREDICTED BY IDOCK:   -1.55 KCAL/MOL
REMARK 927      BINDING AFFINITY PREDICTED BY RF-SCORE:    0.00 PKD
ROOT
ATOM      1  C   ALA A   1     -12.131  15.007  70.349  1.00  0.00    -0.384 C  
ATOM      2  C   ALA A   1     -12.015  15.808  69.063  1.00  0.00    -0.294 C  
ATOM      3  CA  ALA A   1     -11.301  14.815  68.133  1.00  0.00    -0.307 C  
ATOM      4  N   ALA A   1     -11.688  13.469  68.638  1.00  0.00    -0.332 N  
ATOM      5  C   ALA A   1      -9.791  15.061  68.168  1.00  0.00    -0.216 C  
ATOM      6  C   ALA A   1     -12.532  13.623  69.828  1.00  0.00    -0.137 C  
ATOM      7  O   ALA A   1      -9.114  14.184  68.942  1.00  0.00    -0.120 OA 
ATOM      8  C   ALA A   1     -11.782  12.323  67.838  1.00  0.00    -0.347 C  
ATOM      9  OXT ALA A   1      -9.250  15.992  67.589  1.00  0.00    -0.203 OA 
ATOM     10  C   ALA A   1     -13.110  15.515  71.390  1.00  0.00    -0.580 C  
ATOM     11  O   ALA A   1     -12.353  11.308  68.242  1.00  0.00    -0.542 OA 
ATOM     12  C   ALA A   1     -12.441  12.626  70.982  1.00  0.00    -0.354 C  
ATOM     13  C   ALA A   1     -13.167  14.527  72.560  1.00  0.00    -0.538 C  
ATOM     14  C   ALA A   1     -13.390  13.075  72.111  1.00  0.00    -0.622 C  
ENDROOT
BRANCH   8  15
ATOM     15  CA  ALA A   1     -11.163  12.388  66.397  1.00  0.00    -0.319 C  
ATOM     16  CB  ALA A   1     -12.197  12.945  65.414  1.00  0.00    -0.528 C  
BRANCH  15  17
ATOM     17  N   ALA A   1     -10.678  11.052  65.998  1.00  0.00    -0.218 NA 
ATOM     18  H   ALA A   1     -10.606  10.995  64.982  1.00  0.00     0.000 HD 
BRANCH  17  19
HETATM   19  C   UNK A   0      -9.401  10.627  66.623  1.00  0.00    -0.165 C  
BRANCH  19  20
HETATM   20  C   UNK A   0      -9.564   9.360  67.489  1.00  0.00    -0.174 C  
BRANCH  20  21
HETATM   21  C   UNK A   0      -9.406   9.624  68.995  1.00  0.00    -0.159 C  
BRANCH  21  22
HETATM   22  C   UNK A   0     -10.346   8.760  69.800  1.00  0.00    -0.214 A  
HETATM   23  C   UNK A   0     -10.940   9.247  70.971  1.00  0.00    -0.390 A  
HETATM   24  C   UNK A   0     -10.671   7.469  69.359  1.00  0.00    -0.200 A  
HETATM   25  C   UNK A   0     -11.828   8.453  71.696  1.00  0.00    -0.357 A  
HETATM   26  C   UNK A   0     -11.559   6.676  70.087  1.00  0.00    -0.446 A  
HETATM   27  C   UNK A   0     -12.137   7.167  71.256  1.00  0.00    -0.386 A  
ENDBRANCH  21  22
ENDBRANCH  20  21
ENDBRANCH  19  20
BRANCH  19  28
HETATM   28  C   UNK A   0      -8.366  10.346  65.514  1.00  0.00    -0.168 C  
HETATM   29  O   UNK A   0      -7.184  10.653  65.555  1.00  0.00    -0.132 OA 
BRANCH  28  30
HETATM   30  O   UNK A   0      -8.983   9.774  64.433  1.00  0.00    -0.214 OA 
BRANCH  30  31
HETATM   31  C   UNK A   0      -8.320   9.979  63.175  1.00  0.00    -0.169 C  
HETATM   32  C   UNK A   0      -9.132  10.980  62.370  1.00  0.00    -0.328 C  
ENDBRANCH  30  31
ENDBRANCH  28  30
ENDBRANCH  19  28
ENDBRANCH  17  19
ENDBRANCH  15  17
ENDBRANCH   8  15
TORSDOF 9
ENDMDL
MODEL       30
REMARK 921   NORMALIZED FREE ENERGY PREDICTED BY IDOCK:   -5.99 KCAL/MOL
REMARK 922        TOTAL FREE ENERGY PREDICTED BY IDOCK:  -11.08 KCAL/MOL
REMARK 923 INTER-LIGAND FREE ENERGY PREDICTED BY IDOCK:   -9.13 KCAL/MOL
REMARK 924 INTRA-LIGAND FREE ENERGY PREDICTED BY IDOCK:   -1.95 KCAL/MOL
REMARK 927      BINDING AFFINITY PREDICTED BY RF-SCORE:    0.00 PKD
ROOT
ATOM      1  C   ALA A   1     -12.093  14.948  70.382  1.00  0.00    -0.386 C  
ATOM      2  C   ALA A   1     -11.940  15.727  69.087  1.00  0.00    -0.312 C  
ATOM      3  CA  ALA A   1     -11.224  14.708  68.186  1.00  0.00    -0.289 C  
ATOM      4  N   ALA A   1     -11.644  13.376  68.703  1.00  0.00    -0.303 N  
ATOM      5  C   ALA A   1      -9.712  14.929  68.245  1.00  0.00    -0.215 C  
ATOM      6  C   ALA A   1     -12.507  13.562  69.874  1.00  0.00    -0.134 C  
ATOM      7  O   ALA A   1      -9.064  14.054  69.045  1.00  0.00    -0.016 OA 
ATOM      8  C   ALA A   1     -11.741  12.220  67.920  1.00  0.00    -0.347 C  
ATOM      9  OXT ALA A   1      -9.144  15.843  67.662  1.00  0.00    -0.196 OA 
ATOM     10  C   ALA A   1     -13.082  15.487  71.397  1.00  0.00    -0.580 C  
ATOM     11  O   ALA A   1     -12.337  11.221  68.327  1.00  0.00    -0.542 OA 
ATOM     12  C   ALA A   1     -12.454  12.582  71.046  1.00  0.00    -0.353 C  
ATOM     13  C   ALA A   1     -13.177  14.519  72.580  1.00  0.00    -0.571 C  
ATOM     14  C   ALA A   1     -13.416  13.064  72.150  1.00  0.00    -0.638 C  
ENDROOT
BRANCH   8  15
ATOM     15  CA  ALA A   1     -11.095  12.252  66.489  1.00  0.00    -0.299 C  
ATOM     16  CB  ALA A   1     -12.162  12.597  65.447  1.00  0.00    -0.517 C  
BRANCH  15  17
ATOM     17  N   ALA A   1     -10.436  10.961  66.206  1.00  0.00    -0.256 NA 
ATOM     18  H   ALA A   1     -10.248  10.876  65.207  1.00  0.00     0.000 HD 
BRANCH  17  19
HETATM   19  C   UNK A   0      -9.199  10.697  66.981  1.00  0.00    -0.151 C  
BRANCH  19  20
HETATM   20  C   UNK A   0      -9.309   9.426  67.849  1.00  0.00    -0.142 C  
BRANCH  20  21
HETATM   21  C   UNK A   0      -9.320   9.715  69.359  1.00  0.00    -0.201 C  
BRANCH  21  22
HETATM   22  C   UNK A   0     -10.319   8.838  70.073  1.00  0.00    -0.213 A  
HETATM   23  C   UNK A   0     -10.656   7.577  69.564  1.00  0.00    -0.239 A  
HETATM   24  C   UNK A   0     -10.893   9.258  71.281  1.00  0.00    -0.417 A  
HETATM   25  C   UNK A   0     -11.560   6.760  70.241  1.00  0.00    -0.417 A  
HETATM   26  C   UNK A   0     -11.799   8.439  71.957  1.00  0.00    -0.417 A  
HETATM   27  C   UNK A   0     -12.133   7.191  71.437  1.00  0.00    -0.381 A  
ENDBRANCH  21  22
ENDBRANCH  20  21
ENDBRANCH  19  20
BRANCH  19  28
HETATM   28  C   UNK A   0      -8.016  10.534  66.002  1.00  0.00    -0.149 C  
HETATM   29  O   UNK A   0      -8.105  10.169  64.840  1.00  0.00    -0.145 OA 
BRANCH  28  30
HETATM   30  O   UNK A   0      -6.836  10.777  66.653  1.00  0.00    -0.107 OA 
BRANCH  30  31
HETATM   31  C   UNK A   0      -6.729  12.078  67.254  1.00  0.00    -0.144 C  
HETATM   32  C   UNK A   0      -6.076  11.917  68.617  1.00  0.00    -0.052 C  
ENDBRANCH  30  31
ENDBRANCH  28  30
ENDBRANCH  19  28
ENDBRANCH  17  19
ENDBRANCH  15  17
ENDBRANCH   8  15
TORSDOF 9
ENDMDL
MODEL       31
REMARK 921   NORMALIZED FREE ENERGY PREDICTED BY IDOCK:   -5.93 KCAL/MOL
REMARK 922        TOTAL FREE ENERGY PREDICTED BY IDOCK:  -11.00 KCAL/MOL
REMARK 923 INTER-LIGAND FREE ENERGY PREDICTED BY IDOCK:   -8.99 KCAL/MOL
REMARK 924 INTRA-LIGAND FREE ENERGY PREDICTED BY IDOCK:   -2.01 KCAL/MOL
REMARK 927      BINDING AFFINITY PREDICTED BY RF-SCORE:    0.00 PKD
ROOT
ATOM      1  C   ALA A   1      -6.869  20.274  66.823  1.00  0.00    -0.277 C  
ATOM      2  C   ALA A   1      -7.215  20.274  68.303  1.00  0.00    -0.236 C  
ATOM      3  CA  ALA A   1      -7.932  18.924  68.462  1.00  0.00    -0.346 C  
ATOM      4  N   ALA A   1      -7.357  18.056  67.398  1.00  0.00    -0.203 N  
ATOM      5  C   ALA A   1      -9.445  19.117  68.330  1.00  0.00    -0.352 C  
ATOM      6  C   ALA A   1      -6.398  18.832  66.605  1.00  0.00    -0.186 C  
ATOM      7  O   ALA A   1      -9.935  18.766  67.121  1.00  0.00    -0.310 OA 
ATOM      8  C   ALA A   1      -7.245  16.663  67.491  1.00  0.00    -0.145 C  
ATOM      9  OXT ALA A   1     -10.140  19.591  69.217  1.00  0.00    -0.406 OA 
ATOM     10  C   ALA A   1      -5.830  21.276  66.360  1.00  0.00    -0.339 C  
ATOM     11  O   ALA A   1      -6.533  16.026  66.713  1.00  0.00    -0.278 OA 
ATOM     12  C   ALA A   1      -6.253  18.592  65.103  1.00  0.00    -0.285 C  
ATOM     13  C   ALA A   1      -5.538  21.055  64.872  1.00  0.00    -0.256 C  
ATOM     14  C   ALA A   1      -5.227  19.591  64.530  1.00  0.00    -0.214 C  
ENDROOT
BRANCH   8  15
ATOM     15  CA  ALA A   1      -8.033  15.944  68.643  1.00  0.00    -0.156 C  
ATOM     16  CB  ALA A   1      -7.051  15.207  69.559  1.00  0.00    -0.195 C  
BRANCH  15  17
ATOM     17  N   ALA A   1      -9.047  15.037  68.069  1.00  0.00    -0.176 NA 
ATOM     18  H   ALA A   1      -8.881  14.082  68.384  1.00  0.00     0.000 HD 
BRANCH  17  19
HETATM   19  C   UNK A   0     -10.457  15.419  68.325  1.00  0.00    -0.241 C  
BRANCH  19  20
HETATM   20  C   UNK A   0     -11.266  15.589  67.022  1.00  0.00    -0.177 C  
BRANCH  20  21
HETATM   21  C   UNK A   0     -10.440  15.332  65.750  1.00  0.00    -0.365 C  
BRANCH  21  22
HETATM   22  C   UNK A   0     -10.940  14.112  65.016  1.00  0.00    -0.391 A  
HETATM   23  C   UNK A   0     -10.041  13.212  64.429  1.00  0.00    -0.224 A  
HETATM   24  C   UNK A   0     -12.314  13.842  64.948  1.00  0.00    -0.435 A  
HETATM   25  C   UNK A   0     -10.507  12.073  63.773  1.00  0.00    -0.469 A  
HETATM   26  C   UNK A   0     -12.779  12.702  64.290  1.00  0.00    -0.394 A  
HETATM   27  C   UNK A   0     -11.876  11.818  63.702  1.00  0.00    -0.498 A  
ENDBRANCH  21  22
ENDBRANCH  20  21
ENDBRANCH  19  20
BRANCH  19  28
HETATM   28  C   UNK A   0     -11.126  14.330  69.190  1.00  0.00    -0.262 C  
HETATM   29  O   UNK A   0     -11.956  14.531  70.063  1.00  0.00    -0.291 OA 
BRANCH  28  30
HETATM   30  O   UNK A   0     -10.588  13.106  68.896  1.00  0.00    -0.216 OA 
BRANCH  30  31
HETATM   31  C   UNK A   0     -11.537  12.030  68.805  1.00  0.00    -0.311 C  
HETATM   32  C   UNK A   0     -11.351  11.348  67.459  1.00  0.00    -0.362 C  
ENDBRANCH  30  31
ENDBRANCH  28  30
ENDBRANCH  19  28
ENDBRANCH  17  19
ENDBRANCH  15  17
ENDBRANCH   8  15
TORSDOF 9
ENDMDL
MODEL       32
REMARK 921   NORMALIZED FREE ENERGY PREDICTED BY IDOCK:   -5.89 KCAL/MOL
REMARK 922        TOTAL FREE ENERGY PREDICTED BY IDOCK:  -10.93 KCAL/MOL
REMARK 923 INTER-LIGAND FREE ENERGY PREDICTED BY IDOCK:   -9.41 KCAL/MOL
REMARK 924 INTRA-LIGAND FREE ENERGY PREDICTED BY IDOCK:   -1.52 KCAL/MOL
REMARK 927      BINDING AFFINITY PREDICTED BY RF-SCORE:    0.00 PKD
ROOT
ATOM      1  C   ALA A   1     -10.482   5.471  73.023  1.00  0.00    -0.244 C  
ATOM      2  C   ALA A   1     -11.871   5.661  72.438  1.00  0.00    -0.181 C  
ATOM      3  CA  ALA A   1     -11.635   6.782  71.414  1.00  0.00    -0.305 C  
ATOM      4  N   ALA A   1     -10.208   6.640  71.011  1.00  0.00    -0.191 N  
ATOM      5  C   ALA A   1     -11.951   8.140  72.044  1.00  0.00    -0.340 C  
ATOM      6  C   ALA A   1      -9.596   5.548  71.775  1.00  0.00    -0.151 C  
ATOM      7  O   ALA A   1     -10.855   8.829  72.433  1.00  0.00    -0.320 OA 
ATOM      8  C   ALA A   1      -9.702   7.008  69.759  1.00  0.00    -0.168 C  
ATOM      9  OXT ALA A   1     -13.090   8.546  72.225  1.00  0.00    -0.350 OA 
ATOM     10  C   ALA A   1     -10.233   4.196  73.805  1.00  0.00    -0.214 C  
ATOM     11  O   ALA A   1      -8.589   6.633  69.385  1.00  0.00    -0.133 OA 
ATOM     12  C   ALA A   1      -8.137   5.631  72.221  1.00  0.00    -0.108 C  
ATOM     13  C   ALA A   1      -8.759   4.134  74.222  1.00  0.00    -0.095 C  
ATOM     14  C   ALA A   1      -7.793   4.380  73.054  1.00  0.00    -0.091 C  
ENDROOT
BRANCH   8  15
ATOM     15  CA  ALA A   1     -10.614   7.888  68.833  1.00  0.00    -0.145 C  
ATOM     16  CB  ALA A   1     -10.601   7.326  67.408  1.00  0.00    -0.370 C  
BRANCH  15  17
ATOM     17  N   ALA A   1     -10.171   9.296  68.880  1.00  0.00    -0.196 NA 
ATOM     18  H   ALA A   1      -9.454   9.461  68.175  1.00  0.00     0.000 HD 
BRANCH  17  19
HETATM   19  C   UNK A   0     -11.250  10.306  68.755  1.00  0.00    -0.206 C  
BRANCH  19  20
HETATM   20  C   UNK A   0     -11.187  11.375  69.865  1.00  0.00    -0.221 C  
BRANCH  20  21
HETATM   21  C   UNK A   0     -12.465  11.449  70.718  1.00  0.00    -0.460 C  
BRANCH  21  22
HETATM   22  C   UNK A   0     -12.769  12.871  71.120  1.00  0.00    -0.366 A  
HETATM   23  C   UNK A   0     -13.487  13.145  72.291  1.00  0.00    -0.665 A  
HETATM   24  C   UNK A   0     -12.297  13.940  70.346  1.00  0.00    -0.433 A  
HETATM   25  C   UNK A   0     -13.742  14.462  72.672  1.00  0.00    -0.546 A  
HETATM   26  C   UNK A   0     -12.555  15.258  70.728  1.00  0.00    -0.474 A  
HETATM   27  C   UNK A   0     -13.277  15.519  71.890  1.00  0.00    -0.553 A  
ENDBRANCH  21  22
ENDBRANCH  20  21
ENDBRANCH  19  20
BRANCH  19  28
HETATM   28  C   UNK A   0     -11.133  11.001  67.382  1.00  0.00    -0.305 C  
HETATM   29  O   UNK A   0     -10.199  10.878  66.604  1.00  0.00    -0.218 OA 
BRANCH  28  30
HETATM   30  O   UNK A   0     -12.192  11.850  67.197  1.00  0.00    -0.501 OA 
BRANCH  30  31
HETATM   31  C   UNK A   0     -12.029  12.804  66.135  1.00  0.00    -0.414 C  
HETATM   32  C   UNK A   0     -11.804  14.171  66.758  1.00  0.00    -0.449 C  
ENDBRANCH  30  31
ENDBRANCH  28  30
ENDBRANCH  19  28
ENDBRANCH  17  19
ENDBRANCH  15  17
ENDBRANCH   8  15
TORSDOF 9
ENDMDL
MODEL       33
REMARK 921   NORMALIZED FREE ENERGY PREDICTED BY IDOCK:   -5.89 KCAL/MOL
REMARK 922        TOTAL FREE ENERGY PREDICTED BY IDOCK:  -10.93 KCAL/MOL
REMARK 923 INTER-LIGAND FREE ENERGY PREDICTED BY IDOCK:   -9.38 KCAL/MOL
REMARK 924 INTRA-LIGAND FREE ENERGY PREDICTED BY IDOCK:   -1.55 KCAL/MOL
REMARK 927      BINDING AFFINITY PREDICTED BY RF-SCORE:    0.00 PKD
ROOT
ATOM      1  C   ALA A   1     -10.402  17.681  67.305  1.00  0.00    -0.354 C  
ATOM      2  C   ALA A   1     -11.040  16.677  68.249  1.00  0.00    -0.295 C  
ATOM      3  CA  ALA A   1     -10.360  15.365  67.826  1.00  0.00    -0.253 C  
ATOM      4  N   ALA A   1      -9.037  15.777  67.281  1.00  0.00    -0.202 N  
ATOM      5  C   ALA A   1     -11.231  14.631  66.805  1.00  0.00    -0.344 C  
ATOM      6  C   ALA A   1      -8.935  17.239  67.312  1.00  0.00    -0.227 C  
ATOM      7  O   ALA A   1     -10.813  14.777  65.528  1.00  0.00    -0.314 OA 
ATOM      8  C   ALA A   1      -7.887  14.979  67.314  1.00  0.00    -0.211 C  
ATOM      9  OXT ALA A   1     -12.240  14.010  67.107  1.00  0.00    -0.419 OA 
ATOM     10  C   ALA A   1     -10.544  19.148  67.661  1.00  0.00    -0.546 C  
ATOM     11  O   ALA A   1      -6.772  15.456  67.095  1.00  0.00    -0.271 OA 
ATOM     12  C   ALA A   1      -8.196  17.993  66.207  1.00  0.00    -0.242 C  
ATOM     13  C   ALA A   1      -9.752  19.994  66.659  1.00  0.00    -0.566 C  
ATOM     14  C   ALA A   1      -8.308  19.508  66.470  1.00  0.00    -0.352 C  
ENDROOT
BRANCH   8  15
ATOM     15  CA  ALA A   1      -8.063  13.460  67.674  1.00  0.00    -0.175 C  
ATOM     16  CB  ALA A   1      -6.762  12.916  68.270  1.00  0.00    -0.093 C  
BRANCH  15  17
ATOM     17  N   ALA A   1      -8.487  12.706  66.478  1.00  0.00    -0.414 NA 
ATOM     18  H   ALA A   1      -7.757  12.738  65.767  1.00  0.00     0.000 HD 
BRANCH  17  19
HETATM   19  C   UNK A   0      -8.895  11.301  66.725  1.00  0.00    -0.170 C  
BRANCH  19  20
HETATM   20  C   UNK A   0     -10.015  11.191  67.782  1.00  0.00    -0.193 C  
BRANCH  20  21
HETATM   21  C   UNK A   0      -9.600  10.401  69.034  1.00  0.00    -0.212 C  
BRANCH  21  22
HETATM   22  C   UNK A   0     -10.749  10.275  70.003  1.00  0.00    -0.345 A  
HETATM   23  C   UNK A   0     -11.706  11.292  70.114  1.00  0.00    -0.429 A  
HETATM   24  C   UNK A   0     -10.897   9.114  70.775  1.00  0.00    -0.331 A  
HETATM   25  C   UNK A   0     -12.781  11.158  70.993  1.00  0.00    -0.476 A  
HETATM   26  C   UNK A   0     -11.973   8.983  71.655  1.00  0.00    -0.426 A  
HETATM   27  C   UNK A   0     -12.914  10.004  71.765  1.00  0.00    -0.560 A  
ENDBRANCH  21  22
ENDBRANCH  20  21
ENDBRANCH  19  20
BRANCH  19  28
HETATM   28  C   UNK A   0      -9.393  10.681  65.403  1.00  0.00    -0.210 C  
HETATM   29  O   UNK A   0      -9.639  11.299  64.379  1.00  0.00    -0.234 OA 
BRANCH  28  30
HETATM   30  O   UNK A   0      -9.600   9.337  65.568  1.00  0.00    -0.269 OA 
BRANCH  30  31
HETATM   31  C   UNK A   0      -8.593   8.490  64.991  1.00  0.00    -0.135 C  
HETATM   32  C   UNK A   0      -7.977   7.661  66.105  1.00  0.00    -0.110 C  
ENDBRANCH  30  31
ENDBRANCH  28  30
ENDBRANCH  19  28
ENDBRANCH  17  19
ENDBRANCH  15  17
ENDBRANCH   8  15
TORSDOF 9
ENDMDL
MODEL       34
REMARK 921   NORMALIZED FREE ENERGY PREDICTED BY IDOCK:   -5.87 KCAL/MOL
REMARK 922        TOTAL FREE ENERGY PREDICTED BY IDOCK:  -10.91 KCAL/MOL
REMARK 923 INTER-LIGAND FREE ENERGY PREDICTED BY IDOCK:   -9.48 KCAL/MOL
REMARK 924 INTRA-LIGAND FREE ENERGY PREDICTED BY IDOCK:   -1.43 KCAL/MOL
REMARK 927      BINDING AFFINITY PREDICTED BY RF-SCORE:    0.00 PKD
ROOT
ATOM      1  C   ALA A   1     -10.128   4.521  71.369  1.00  0.00    -0.230 C  
ATOM      2  C   ALA A   1      -9.223   4.627  70.153  1.00  0.00    -0.188 C  
ATOM      3  CA  ALA A   1      -9.453   6.080  69.711  1.00  0.00    -0.149 C  
ATOM      4  N   ALA A   1      -9.823   6.807  70.957  1.00  0.00    -0.182 N  
ATOM      5  C   ALA A   1     -10.541   6.134  68.636  1.00  0.00    -0.270 C  
ATOM      6  C   ALA A   1      -9.874   5.858  72.074  1.00  0.00    -0.157 C  
ATOM      7  O   ALA A   1     -11.749   6.520  69.103  1.00  0.00    -0.193 OA 
ATOM      8  C   ALA A   1      -9.567   8.165  71.184  1.00  0.00    -0.160 C  
ATOM      9  OXT ALA A   1     -10.350   5.810  67.472  1.00  0.00    -0.176 OA 
ATOM     10  C   ALA A   1      -9.895   3.347  72.300  1.00  0.00    -0.231 C  
ATOM     11  O   ALA A   1      -9.651   8.650  72.314  1.00  0.00    -0.293 OA 
ATOM     12  C   ALA A   1     -10.906   6.021  73.189  1.00  0.00    -0.287 C  
ATOM     13  C   ALA A   1     -10.823   3.468  73.514  1.00  0.00    -0.321 C  
ATOM     14  C   ALA A   1     -10.764   4.849  74.181  1.00  0.00    -0.318 C  
ENDROOT
BRANCH   8  15
ATOM     15  CA  ALA A   1      -9.137   9.042  69.954  1.00  0.00    -0.168 C  
ATOM     16  CB  ALA A   1      -7.644   9.370  70.050  1.00  0.00    -0.113 C  
BRANCH  15  17
ATOM     17  N   ALA A   1      -9.972  10.257  69.887  1.00  0.00    -0.399 NA 
ATOM     18  H   ALA A   1      -9.400  11.061  69.629  1.00  0.00     0.000 HD 
BRANCH  17  19
HETATM   19  C   UNK A   0     -11.154  10.167  68.994  1.00  0.00    -0.205 C  
BRANCH  19  20
HETATM   20  C   UNK A   0     -12.393  10.869  69.586  1.00  0.00    -0.290 C  
BRANCH  20  21
HETATM   21  C   UNK A   0     -12.197  11.337  71.038  1.00  0.00    -0.417 C  
BRANCH  21  22
HETATM   22  C   UNK A   0     -12.530  12.801  71.188  1.00  0.00    -0.335 A  
HETATM   23  C   UNK A   0     -12.110  13.731  70.229  1.00  0.00    -0.425 A  
HETATM   24  C   UNK A   0     -13.304  13.242  72.271  1.00  0.00    -0.630 A  
HETATM   25  C   UNK A   0     -12.443  15.079  70.360  1.00  0.00    -0.407 A  
HETATM   26  C   UNK A   0     -13.635  14.592  72.400  1.00  0.00    -0.566 A  
HETATM   27  C   UNK A   0     -13.204  15.511  71.445  1.00  0.00    -0.587 A  
ENDBRANCH  21  22
ENDBRANCH  20  21
ENDBRANCH  19  20
BRANCH  19  28
HETATM   28  C   UNK A   0     -10.811  10.817  67.637  1.00  0.00    -0.279 C  
HETATM   29  O   UNK A   0      -9.801  10.602  66.985  1.00  0.00    -0.176 OA 
BRANCH  28  30
HETATM   30  O   UNK A   0     -11.768  11.739  67.307  1.00  0.00    -0.546 OA 
BRANCH  30  31
HETATM   31  C   UNK A   0     -11.265  12.973  66.768  1.00  0.00    -0.298 C  
HETATM   32  C   UNK A   0     -12.041  13.287  65.500  1.00  0.00    -0.480 C  
ENDBRANCH  30  31
ENDBRANCH  28  30
ENDBRANCH  19  28
ENDBRANCH  17  19
ENDBRANCH  15  17
ENDBRANCH   8  15
TORSDOF 9
ENDMDL
MODEL       35
REMARK 921   NORMALIZED FREE ENERGY PREDICTED BY IDOCK:   -5.86 KCAL/MOL
REMARK 922        TOTAL FREE ENERGY PREDICTED BY IDOCK:  -10.89 KCAL/MOL
REMARK 923 INTER-LIGAND FREE ENERGY PREDICTED BY IDOCK:   -9.38 KCAL/MOL
REMARK 924 INTRA-LIGAND FREE ENERGY PREDICTED BY IDOCK:   -1.51 KCAL/MOL
REMARK 927      BINDING AFFINITY PREDICTED BY RF-SCORE:    0.00 PKD
ROOT
ATOM      1  C   ALA A   1     -11.289  13.162  67.730  1.00  0.00    -0.326 C  
ATOM      2  C   ALA A   1     -11.644  11.796  67.167  1.00  0.00    -0.342 C  
ATOM      3  CA  ALA A   1     -11.510  10.897  68.406  1.00  0.00    -0.304 C  
ATOM      4  N   ALA A   1     -11.793  11.791  69.562  1.00  0.00    -0.324 N  
ATOM      5  C   ALA A   1     -10.113  10.275  68.452  1.00  0.00    -0.159 C  
ATOM      6  C   ALA A   1     -12.025  13.154  69.074  1.00  0.00    -0.285 C  
ATOM      7  O   ALA A   1      -9.273  10.886  69.316  1.00  0.00    -0.117 OA 
ATOM      8  C   ALA A   1     -12.346  11.362  70.775  1.00  0.00    -0.386 C  
ATOM      9  OXT ALA A   1      -9.770   9.342  67.739  1.00  0.00    -0.144 OA 
ATOM     10  C   ALA A   1     -11.666  14.370  66.894  1.00  0.00    -0.422 C  
ATOM     11  O   ALA A   1     -12.800  12.168  71.590  1.00  0.00    -0.359 OA 
ATOM     12  C   ALA A   1     -11.563  14.363  69.886  1.00  0.00    -0.341 C  
ATOM     13  C   ALA A   1     -11.329  15.649  67.667  1.00  0.00    -0.228 C  
ATOM     14  C   ALA A   1     -11.882  15.650  69.100  1.00  0.00    -0.378 C  
ENDROOT
BRANCH   8  15
ATOM     15  CA  ALA A   1     -12.398   9.817  71.046  1.00  0.00    -0.332 C  
ATOM     16  CB  ALA A   1     -13.454   9.514  72.113  1.00  0.00    -0.535 C  
BRANCH  15  17
ATOM     17  N   ALA A   1     -11.060   9.328  71.433  1.00  0.00    -0.341 NA 
ATOM     18  H   ALA A   1     -10.684   9.899  72.190  1.00  0.00     0.000 HD 
BRANCH  17  19
HETATM   19  C   UNK A   0     -10.989   7.891  71.795  1.00  0.00    -0.243 C  
BRANCH  19  20
HETATM   20  C   UNK A   0     -10.366   7.032  70.675  1.00  0.00    -0.223 C  
BRANCH  20  21
HETATM   21  C   UNK A   0     -11.381   6.585  69.610  1.00  0.00    -0.443 C  
BRANCH  21  22
HETATM   22  C   UNK A   0     -10.716   5.757  68.539  1.00  0.00    -0.288 A  
HETATM   23  C   UNK A   0      -9.825   4.731  68.878  1.00  0.00    -0.230 A  
HETATM   24  C   UNK A   0     -11.016   5.978  67.187  1.00  0.00    -0.360 A  
HETATM   25  C   UNK A   0      -9.232   3.952  67.884  1.00  0.00    -0.209 A  
HETATM   26  C   UNK A   0     -10.421   5.199  66.194  1.00  0.00    -0.301 A  
HETATM   27  C   UNK A   0      -9.529   4.186  66.541  1.00  0.00    -0.201 A  
ENDBRANCH  21  22
ENDBRANCH  20  21
ENDBRANCH  19  20
BRANCH  19  28
HETATM   28  C   UNK A   0     -10.141   7.736  73.075  1.00  0.00    -0.320 C  
HETATM   29  O   UNK A   0      -9.046   8.241  73.265  1.00  0.00    -0.255 OA 
BRANCH  28  30
HETATM   30  O   UNK A   0     -10.759   6.874  73.942  1.00  0.00    -0.323 OA 
BRANCH  30  31
HETATM   31  C   UNK A   0     -10.175   5.563  74.017  1.00  0.00    -0.255 C  
HETATM   32  C   UNK A   0     -11.174   4.566  73.454  1.00  0.00    -0.404 C  
ENDBRANCH  30  31
ENDBRANCH  28  30
ENDBRANCH  19  28
ENDBRANCH  17  19
ENDBRANCH  15  17
ENDBRANCH   8  15
TORSDOF 9
ENDMDL
MODEL       36
REMARK 921   NORMALIZED FREE ENERGY PREDICTED BY IDOCK:   -5.79 KCAL/MOL
REMARK 922        TOTAL FREE ENERGY PREDICTED BY IDOCK:  -10.77 KCAL/MOL
REMARK 923 INTER-LIGAND FREE ENERGY PREDICTED BY IDOCK:   -8.69 KCAL/MOL
REMARK 924 INTRA-LIGAND FREE ENERGY PREDICTED BY IDOCK:   -2.08 KCAL/MOL
REMARK 927      BINDING AFFINITY PREDICTED BY RF-SCORE:    0.00 PKD
ROOT
ATOM      1  C   ALA A   1     -11.654  13.267  65.851  1.00  0.00    -0.380 C  
ATOM      2  C   ALA A   1     -11.242  13.998  67.118  1.00  0.00    -0.327 C  
ATOM      3  CA  ALA A   1     -10.615  12.866  67.948  1.00  0.00    -0.222 C  
ATOM      4  N   ALA A   1     -10.105  11.892  66.945  1.00  0.00    -0.206 N  
ATOM      5  C   ALA A   1     -11.661  12.269  68.892  1.00  0.00    -0.328 C  
ATOM      6  C   ALA A   1     -10.445  12.361  65.598  1.00  0.00    -0.261 C  
ATOM      7  O   ALA A   1     -12.183  11.101  68.456  1.00  0.00    -0.600 OA 
ATOM      8  C   ALA A   1      -9.006  11.048  67.152  1.00  0.00    -0.143 C  
ATOM      9  OXT ALA A   1     -12.028  12.819  69.920  1.00  0.00    -0.321 OA 
ATOM     10  C   ALA A   1     -11.975  14.120  64.639  1.00  0.00    -0.459 C  
ATOM     11  O   ALA A   1      -8.467  10.459  66.213  1.00  0.00    -0.135 OA 
ATOM     12  C   ALA A   1     -10.808  11.367  64.494  1.00  0.00    -0.375 C  
ATOM     13  C   ALA A   1     -12.263  13.211  63.439  1.00  0.00    -0.521 C  
ATOM     14  C   ALA A   1     -11.179  12.146  63.217  1.00  0.00    -0.409 C  
ENDROOT
BRANCH   8  15
ATOM     15  CA  ALA A   1      -8.463  10.905  68.618  1.00  0.00    -0.152 C  
ATOM     16  CB  ALA A   1      -7.132  11.652  68.752  1.00  0.00    -0.106 C  
BRANCH  15  17
ATOM     17  N   ALA A   1      -8.339   9.477  68.972  1.00  0.00    -0.121 NA 
ATOM     18  H   ALA A   1      -7.640   9.358  69.704  1.00  0.00     0.000 HD 
BRANCH  17  19
HETATM   19  C   UNK A   0      -9.604   8.808  69.361  1.00  0.00    -0.163 C  
BRANCH  19  20
HETATM   20  C   UNK A   0      -9.518   7.272  69.239  1.00  0.00    -0.153 C  
BRANCH  20  21
HETATM   21  C   UNK A   0     -10.869   6.565  69.441  1.00  0.00    -0.363 C  
BRANCH  21  22
HETATM   22  C   UNK A   0     -10.849   5.697  70.675  1.00  0.00    -0.304 A  
HETATM   23  C   UNK A   0     -10.019   4.571  70.744  1.00  0.00    -0.269 A  
HETATM   24  C   UNK A   0     -11.633   6.032  71.788  1.00  0.00    -0.288 A  
HETATM   25  C   UNK A   0      -9.985   3.787  71.896  1.00  0.00    -0.230 A  
HETATM   26  C   UNK A   0     -11.599   5.245  72.940  1.00  0.00    -0.292 A  
HETATM   27  C   UNK A   0     -10.776   4.123  72.995  1.00  0.00    -0.256 A  
ENDBRANCH  21  22
ENDBRANCH  20  21
ENDBRANCH  19  20
BRANCH  19  28
HETATM   28  C   UNK A   0      -9.941   9.176  70.821  1.00  0.00    -0.269 C  
HETATM   29  O   UNK A   0     -11.024   9.578  71.217  1.00  0.00    -0.337 OA 
BRANCH  28  30
HETATM   30  O   UNK A   0      -8.820   9.067  71.600  1.00  0.00    -0.329 OA 
BRANCH  30  31
HETATM   31  C   UNK A   0      -8.997   8.334  72.823  1.00  0.00    -0.253 C  
HETATM   32  C   UNK A   0      -8.120   7.095  72.763  1.00  0.00    -0.119 C  
ENDBRANCH  30  31
ENDBRANCH  28  30
ENDBRANCH  19  28
ENDBRANCH  17  19
ENDBRANCH  15  17
ENDBRANCH   8  15
TORSDOF 9
ENDMDL
MODEL       37
REMARK 921   NORMALIZED FREE ENERGY PREDICTED BY IDOCK:   -5.78 KCAL/MOL
REMARK 922        TOTAL FREE ENERGY PREDICTED BY IDOCK:  -10.77 KCAL/MOL
REMARK 923 INTER-LIGAND FREE ENERGY PREDICTED BY IDOCK:   -8.87 KCAL/MOL
REMARK 924 INTRA-LIGAND FREE ENERGY PREDICTED BY IDOCK:   -1.91 KCAL/MOL
REMARK 927      BINDING AFFINITY PREDICTED BY RF-SCORE:    0.00 PKD
ROOT
ATOM      1  C   ALA A   1      -8.507  17.629  67.045  1.00  0.00    -0.252 C  
ATOM      2  C   ALA A   1      -8.089  16.510  66.107  1.00  0.00    -0.242 C  
ATOM      3  CA  ALA A   1      -8.562  15.262  66.869  1.00  0.00    -0.257 C  
ATOM      4  N   ALA A   1      -9.714  15.727  67.690  1.00  0.00    -0.222 N  
ATOM      5  C   ALA A   1      -7.414  14.695  67.708  1.00  0.00    -0.166 C  
ATOM      6  C   ALA A   1      -9.899  17.168  67.492  1.00  0.00    -0.266 C  
ATOM      7  O   ALA A   1      -7.487  15.016  69.018  1.00  0.00    -0.132 OA 
ATOM      8  C   ALA A   1     -10.788  14.915  68.074  1.00  0.00    -0.263 C  
ATOM      9  OXT ALA A   1      -6.489  14.053  67.231  1.00  0.00    -0.286 OA 
ATOM     10  C   ALA A   1      -8.543  19.032  66.471  1.00  0.00    -0.316 C  
ATOM     11  O   ALA A   1     -11.829  15.401  68.520  1.00  0.00    -0.345 OA 
ATOM     12  C   ALA A   1     -10.359  18.061  68.644  1.00  0.00    -0.328 C  
ATOM     13  C   ALA A   1      -9.086  20.001  67.526  1.00  0.00    -0.457 C  
ATOM     14  C   ALA A   1     -10.401  19.525  68.160  1.00  0.00    -0.550 C  
ENDROOT
BRANCH   8  15
ATOM     15  CA  ALA A   1     -10.632  13.363  67.887  1.00  0.00    -0.245 C  
ATOM     16  CB  ALA A   1     -11.730  12.843  66.954  1.00  0.00    -0.445 C  
BRANCH  15  17
ATOM     17  N   ALA A   1     -10.655  12.693  69.203  1.00  0.00    -0.439 NA 
ATOM     18  H   ALA A   1     -10.931  13.355  69.928  1.00  0.00     0.000 HD 
BRANCH  17  19
HETATM   19  C   UNK A   0     -11.495  11.473  69.279  1.00  0.00    -0.305 C  
BRANCH  19  20
HETATM   20  C   UNK A   0     -10.656  10.193  69.480  1.00  0.00    -0.269 C  
BRANCH  20  21
HETATM   21  C   UNK A   0     -10.672   9.254  68.262  1.00  0.00    -0.195 C  
BRANCH  21  22
HETATM   22  C   UNK A   0      -9.795   9.784  67.155  1.00  0.00    -0.238 A  
HETATM   23  C   UNK A   0     -10.237   9.778  65.826  1.00  0.00    -0.222 A  
HETATM   24  C   UNK A   0      -8.537  10.330  67.451  1.00  0.00    -0.125 A  
HETATM   25  C   UNK A   0      -9.432  10.293  64.811  1.00  0.00    -0.341 A  
HETATM   26  C   UNK A   0      -7.732  10.844  66.433  1.00  0.00    -0.154 A  
HETATM   27  C   UNK A   0      -8.179  10.825  65.113  1.00  0.00    -0.034 A  
ENDBRANCH  21  22
ENDBRANCH  20  21
ENDBRANCH  19  20
BRANCH  19  28
HETATM   28  C   UNK A   0     -12.482  11.614  70.456  1.00  0.00    -0.257 C  
HETATM   29  O   UNK A   0     -12.683  12.637  71.093  1.00  0.00    -0.358 OA 
BRANCH  28  30
HETATM   30  O   UNK A   0     -13.043  10.398  70.743  1.00  0.00    -0.385 OA 
BRANCH  30  31
HETATM   31  C   UNK A   0     -13.207  10.117  72.143  1.00  0.00    -0.362 C  
HETATM   32  C   UNK A   0     -13.365   8.615  72.309  1.00  0.00    -0.412 C  
ENDBRANCH  30  31
ENDBRANCH  28  30
ENDBRANCH  19  28
ENDBRANCH  17  19
ENDBRANCH  15  17
ENDBRANCH   8  15
TORSDOF 9
ENDMDL
MODEL       38
REMARK 921   NORMALIZED FREE ENERGY PREDICTED BY IDOCK:   -5.78 KCAL/MOL
REMARK 922        TOTAL FREE ENERGY PREDICTED BY IDOCK:  -10.76 KCAL/MOL
REMARK 923 INTER-LIGAND FREE ENERGY PREDICTED BY IDOCK:   -9.48 KCAL/MOL
REMARK 924 INTRA-LIGAND FREE ENERGY PREDICTED BY IDOCK:   -1.28 KCAL/MOL
REMARK 927      BINDING AFFINITY PREDICTED BY RF-SCORE:    0.00 PKD
ROOT
ATOM      1  C   ALA A   1      -9.677   5.003  70.937  1.00  0.00    -0.256 C  
ATOM      2  C   ALA A   1      -8.649   5.682  70.048  1.00  0.00    -0.122 C  
ATOM      3  CA  ALA A   1      -9.457   6.848  69.460  1.00  0.00    -0.146 C  
ATOM      4  N   ALA A   1     -10.496   7.151  70.484  1.00  0.00    -0.210 N  
ATOM      5  C   ALA A   1     -10.045   6.447  68.105  1.00  0.00    -0.149 C  
ATOM      6  C   ALA A   1     -10.372   6.201  71.594  1.00  0.00    -0.216 C  
ATOM      7  O   ALA A   1     -11.353   6.110  68.158  1.00  0.00    -0.234 OA 
ATOM      8  C   ALA A   1     -11.060   8.416  70.685  1.00  0.00    -0.256 C  
ATOM      9  OXT ALA A   1      -9.384   6.388  67.079  1.00  0.00    -0.124 OA 
ATOM     10  C   ALA A   1      -9.154   4.026  71.973  1.00  0.00    -0.162 C  
ATOM     11  O   ALA A   1     -11.709   8.672  71.702  1.00  0.00    -0.274 OA 
ATOM     12  C   ALA A   1     -11.612   5.697  72.332  1.00  0.00    -0.281 C  
ATOM     13  C   ALA A   1     -10.317   3.529  72.837  1.00  0.00    -0.246 C  
ATOM     14  C   ALA A   1     -11.181   4.669  73.397  1.00  0.00    -0.423 C  
ENDROOT
BRANCH   8  15
ATOM     15  CA  ALA A   1     -10.809   9.510  69.587  1.00  0.00    -0.235 C  
ATOM     16  CB  ALA A   1      -9.509  10.261  69.892  1.00  0.00    -0.061 C  
BRANCH  15  17
ATOM     17  N   ALA A   1     -11.971  10.418  69.506  1.00  0.00    -0.497 NA 
ATOM     18  H   ALA A   1     -12.747  10.043  70.051  1.00  0.00     0.000 HD 
BRANCH  17  19
HETATM   19  C   UNK A   0     -11.706  11.824  69.897  1.00  0.00    -0.323 C  
BRANCH  19  20
HETATM   20  C   UNK A   0     -11.972  12.815  68.745  1.00  0.00    -0.278 C  
BRANCH  20  21
HETATM   21  C   UNK A   0     -10.750  13.046  67.841  1.00  0.00    -0.249 C  
BRANCH  21  22
HETATM   22  C   UNK A   0     -11.046  12.654  66.415  1.00  0.00    -0.325 A  
HETATM   23  C   UNK A   0     -10.209  11.764  65.729  1.00  0.00    -0.276 A  
HETATM   24  C   UNK A   0     -12.192  13.143  65.771  1.00  0.00    -0.514 A  
HETATM   25  C   UNK A   0     -10.502  11.385  64.420  1.00  0.00    -0.388 A  
HETATM   26  C   UNK A   0     -12.483  12.763  64.460  1.00  0.00    -0.501 A  
HETATM   27  C   UNK A   0     -11.638  11.885  63.784  1.00  0.00    -0.555 A  
ENDBRANCH  21  22
ENDBRANCH  20  21
ENDBRANCH  19  20
BRANCH  19  28
HETATM   28  C   UNK A   0     -12.609  12.192  71.093  1.00  0.00    -0.260 C  
HETATM   29  O   UNK A   0     -13.150  11.395  71.844  1.00  0.00    -0.492 OA 
BRANCH  28  30
HETATM   30  O   UNK A   0     -12.786  13.549  71.143  1.00  0.00    -0.338 OA 
BRANCH  30  31
HETATM   31  C   UNK A   0     -13.714  14.006  72.141  1.00  0.00    -0.509 C  
HETATM   32  C   UNK A   0     -13.190  15.315  72.710  1.00  0.00    -0.583 C  
ENDBRANCH  30  31
ENDBRANCH  28  30
ENDBRANCH  19  28
ENDBRANCH  17  19
ENDBRANCH  15  17
ENDBRANCH   8  15
TORSDOF 9
ENDMDL
MODEL       39
REMARK 921   NORMALIZED FREE ENERGY PREDICTED BY IDOCK:   -5.75 KCAL/MOL
REMARK 922        TOTAL FREE ENERGY PREDICTED BY IDOCK:  -10.73 KCAL/MOL
REMARK 923 INTER-LIGAND FREE ENERGY PREDICTED BY IDOCK:   -8.84 KCAL/MOL
REMARK 924 INTRA-LIGAND FREE ENERGY PREDICTED BY IDOCK:   -1.89 KCAL/MOL
REMARK 927      BINDING AFFINITY PREDICTED BY RF-SCORE:    0.00 PKD
ROOT
ATOM      1  C   ALA A   1      -9.871  10.881  65.599  1.00  0.00    -0.292 C  
ATOM      2  C   ALA A   1     -10.176  12.277  65.083  1.00  0.00    -0.305 C  
ATOM      3  CA  ALA A   1     -10.133  13.110  66.374  1.00  0.00    -0.281 C  
ATOM      4  N   ALA A   1      -9.199  12.377  67.273  1.00  0.00    -0.181 N  
ATOM      5  C   ALA A   1     -11.542  13.250  66.953  1.00  0.00    -0.364 C  
ATOM      6  C   ALA A   1      -8.747  11.151  66.605  1.00  0.00    -0.166 C  
ATOM      7  O   ALA A   1     -11.790  12.419  67.989  1.00  0.00    -0.348 OA 
ATOM      8  C   ALA A   1      -8.414  12.984  68.260  1.00  0.00    -0.159 C  
ATOM      9  OXT ALA A   1     -12.384  14.009  66.493  1.00  0.00    -0.457 OA 
ATOM     10  C   ALA A   1      -9.461   9.843  64.572  1.00  0.00    -0.328 C  
ATOM     11  O   ALA A   1      -7.477  12.384  68.790  1.00  0.00    -0.110 OA 
ATOM     12  C   ALA A   1      -8.497   9.874  67.406  1.00  0.00    -0.118 C  
ATOM     13  C   ALA A   1      -9.093   8.538  65.287  1.00  0.00    -0.047 C  
ATOM     14  C   ALA A   1      -8.098   8.743  66.438  1.00  0.00    -0.103 C  
ENDROOT
BRANCH   8  15
ATOM     15  CA  ALA A   1      -8.747  14.470  68.645  1.00  0.00    -0.172 C  
ATOM     16  CB  ALA A   1      -7.553  15.095  69.372  1.00  0.00    -0.210 C  
BRANCH  15  17
ATOM     17  N   ALA A   1      -9.979  14.515  69.456  1.00  0.00    -0.419 NA 
ATOM     18  H   ALA A   1      -9.846  13.997  70.324  1.00  0.00     0.000 HD 
BRANCH  17  19
HETATM   19  C   UNK A   0     -10.497  15.874  69.747  1.00  0.00    -0.311 C  
BRANCH  19  20
HETATM   20  C   UNK A   0     -11.154  16.530  68.515  1.00  0.00    -0.335 C  
BRANCH  20  21
HETATM   21  C   UNK A   0     -10.700  17.981  68.279  1.00  0.00    -0.208 C  
BRANCH  21  22
HETATM   22  C   UNK A   0      -9.255  18.034  67.846  1.00  0.00    -0.268 A  
HETATM   23  C   UNK A   0      -8.850  17.456  66.636  1.00  0.00    -0.278 A  
HETATM   24  C   UNK A   0      -8.306  18.702  68.632  1.00  0.00    -0.344 A  
HETATM   25  C   UNK A   0      -7.518  17.530  66.229  1.00  0.00    -0.355 A  
HETATM   26  C   UNK A   0      -6.973  18.775  68.223  1.00  0.00    -0.266 A  
HETATM   27  C   UNK A   0      -6.579  18.189  67.023  1.00  0.00    -0.201 A  
ENDBRANCH  21  22
ENDBRANCH  20  21
ENDBRANCH  19  20
BRANCH  19  28
HETATM   28  C   UNK A   0     -11.540  15.784  70.881  1.00  0.00    -0.405 C  
HETATM   29  O   UNK A   0     -11.630  16.555  71.823  1.00  0.00    -0.415 OA 
BRANCH  28  30
HETATM   30  O   UNK A   0     -12.303  14.657  70.725  1.00  0.00    -0.285 OA 
BRANCH  30  31
HETATM   31  C   UNK A   0     -13.622  14.731  71.289  1.00  0.00    -0.412 C  
HETATM   32  C   UNK A   0     -13.718  13.705  72.405  1.00  0.00    -0.697 C  
ENDBRANCH  30  31
ENDBRANCH  28  30
ENDBRANCH  19  28
ENDBRANCH  17  19
ENDBRANCH  15  17
ENDBRANCH   8  15
TORSDOF 9
ENDMDL
MODEL       40
REMARK 921   NORMALIZED FREE ENERGY PREDICTED BY IDOCK:   -5.74 KCAL/MOL
REMARK 922        TOTAL FREE ENERGY PREDICTED BY IDOCK:  -10.71 KCAL/MOL
REMARK 923 INTER-LIGAND FREE ENERGY PREDICTED BY IDOCK:   -9.10 KCAL/MOL
REMARK 924 INTRA-LIGAND FREE ENERGY PREDICTED BY IDOCK:   -1.61 KCAL/MOL
REMARK 927      BINDING AFFINITY PREDICTED BY RF-SCORE:    0.00 PKD
ROOT
ATOM      1  C   ALA A   1     -11.701  13.061  65.823  1.00  0.00    -0.427 C  
ATOM      2  C   ALA A   1     -11.357  13.884  67.052  1.00  0.00    -0.343 C  
ATOM      3  CA  ALA A   1     -10.691  12.838  67.960  1.00  0.00    -0.230 C  
ATOM      4  N   ALA A   1     -10.107  11.835  67.026  1.00  0.00    -0.207 N  
ATOM      5  C   ALA A   1     -11.726  12.240  68.916  1.00  0.00    -0.328 C  
ATOM      6  C   ALA A   1     -10.440  12.207  65.647  1.00  0.00    -0.255 C  
ATOM      7  O   ALA A   1     -12.176  11.023  68.539  1.00  0.00    -0.582 OA 
ATOM      8  C   ALA A   1      -8.971  11.065  67.305  1.00  0.00    -0.138 C  
ATOM      9  OXT ALA A   1     -12.146  12.828  69.902  1.00  0.00    -0.308 OA 
ATOM     10  C   ALA A   1     -12.038  13.823  64.556  1.00  0.00    -0.463 C  
ATOM     11  O   ALA A   1      -8.380  10.453  66.413  1.00  0.00    -0.132 OA 
ATOM     12  C   ALA A   1     -10.725  11.133  64.597  1.00  0.00    -0.350 C  
ATOM     13  C   ALA A   1     -12.249  12.832  63.406  1.00  0.00    -0.594 C  
ATOM     14  C   ALA A   1     -11.106  11.817  63.269  1.00  0.00    -0.370 C  
ENDROOT
BRANCH   8  15
ATOM     15  CA  ALA A   1      -8.455  11.036  68.787  1.00  0.00    -0.144 C  
ATOM     16  CB  ALA A   1      -7.197  11.900  68.914  1.00  0.00    -0.098 C  
BRANCH  15  17
ATOM     17  N   ALA A   1      -8.219   9.642  69.211  1.00  0.00    -0.113 NA 
ATOM     18  H   ALA A   1      -7.522   9.615  69.954  1.00  0.00     0.000 HD 
BRANCH  17  19
HETATM   19  C   UNK A   0      -9.430   8.890  69.622  1.00  0.00    -0.168 C  
BRANCH  19  20
HETATM   20  C   UNK A   0      -9.279   7.369  69.407  1.00  0.00    -0.145 C  
BRANCH  20  21
HETATM   21  C   UNK A   0     -10.591   6.591  69.602  1.00  0.00    -0.291 C  
BRANCH  21  22
HETATM   22  C   UNK A   0     -10.414   5.466  70.592  1.00  0.00    -0.329 A  
HETATM   23  C   UNK A   0     -10.806   5.621  71.928  1.00  0.00    -0.302 A  
HETATM   24  C   UNK A   0      -9.892   4.233  70.174  1.00  0.00    -0.271 A  
HETATM   25  C   UNK A   0     -10.663   4.569  72.832  1.00  0.00    -0.281 A  
HETATM   26  C   UNK A   0      -9.749   3.182  71.082  1.00  0.00    -0.198 A  
HETATM   27  C   UNK A   0     -10.134   3.349  72.410  1.00  0.00    -0.229 A  
ENDBRANCH  21  22
ENDBRANCH  20  21
ENDBRANCH  19  20
BRANCH  19  28
HETATM   28  C   UNK A   0      -9.708   9.159  71.116  1.00  0.00    -0.290 C  
HETATM   29  O   UNK A   0      -9.040   8.737  72.047  1.00  0.00    -0.287 OA 
BRANCH  28  30
HETATM   30  O   UNK A   0     -10.868   9.874  71.253  1.00  0.00    -0.289 OA 
BRANCH  30  31
HETATM   31  C   UNK A   0     -11.996   9.119  71.724  1.00  0.00    -0.379 C  
HETATM   32  C   UNK A   0     -13.180  10.064  71.846  1.00  0.00    -0.557 C  
ENDBRANCH  30  31
ENDBRANCH  28  30
ENDBRANCH  19  28
ENDBRANCH  17  19
ENDBRANCH  15  17
ENDBRANCH   8  15
TORSDOF 9
ENDMDL
MODEL       41
REMARK 921   NORMALIZED FREE ENERGY PREDICTED BY IDOCK:   -5.73 KCAL/MOL
REMARK 922        TOTAL FREE ENERGY PREDICTED BY IDOCK:  -10.69 KCAL/MOL
REMARK 923 INTER-LIGAND FREE ENERGY PREDICTED BY IDOCK:   -9.44 KCAL/MOL
REMARK 924 INTRA-LIGAND FREE ENERGY PREDICTED BY IDOCK:   -1.25 KCAL/MOL
REMARK 927      BINDING AFFINITY PREDICTED BY RF-SCORE:    0.00 PKD
ROOT
ATOM      1  C   ALA A   1      -9.130   4.970  73.390  1.00  0.00    -0.121 C  
ATOM      2  C   ALA A   1      -9.404   5.986  74.486  1.00  0.00    -0.173 C  
ATOM      3  CA  ALA A   1      -9.768   7.239  73.675  1.00  0.00    -0.289 C  
ATOM      4  N   ALA A   1     -10.331   6.721  72.398  1.00  0.00    -0.192 N  
ATOM      5  C   ALA A   1      -8.526   8.112  73.477  1.00  0.00    -0.246 C  
ATOM      6  C   ALA A   1     -10.264   5.256  72.399  1.00  0.00    -0.195 C  
ATOM      7  O   ALA A   1      -7.964   7.989  72.254  1.00  0.00    -0.105 OA 
ATOM      8  C   ALA A   1     -11.288   7.392  71.627  1.00  0.00    -0.256 C  
ATOM      9  OXT ALA A   1      -8.056   8.818  74.357  1.00  0.00    -0.320 OA 
ATOM     10  C   ALA A   1      -9.100   3.510  73.796  1.00  0.00    -0.092 C  
ATOM     11  O   ALA A   1     -11.908   6.813  70.733  1.00  0.00    -0.361 OA 
ATOM     12  C   ALA A   1      -9.984   4.487  71.108  1.00  0.00    -0.257 C  
ATOM     13  C   ALA A   1      -8.918   2.638  72.549  1.00  0.00    -0.108 C  
ATOM     14  C   ALA A   1      -9.908   2.980  71.426  1.00  0.00    -0.173 C  
ENDROOT
BRANCH   8  15
ATOM     15  CA  ALA A   1     -11.568   8.900  71.963  1.00  0.00    -0.364 C  
ATOM     16  CB  ALA A   1     -13.079   9.148  72.006  1.00  0.00    -0.497 C  
BRANCH  15  17
ATOM     17  N   ALA A   1     -10.888   9.769  70.983  1.00  0.00    -0.334 NA 
ATOM     18  H   ALA A   1     -10.161   9.246  70.497  1.00  0.00     0.000 HD 
BRANCH  17  19
HETATM   19  C   UNK A   0     -11.779  10.436  70.002  1.00  0.00    -0.286 C  
BRANCH  19  20
HETATM   20  C   UNK A   0     -11.815  11.968  70.186  1.00  0.00    -0.383 C  
BRANCH  20  21
HETATM   21  C   UNK A   0     -13.031  12.458  70.990  1.00  0.00    -0.151 C  
BRANCH  21  22
HETATM   22  C   UNK A   0     -12.771  13.815  71.595  1.00  0.00    -0.409 A  
HETATM   23  C   UNK A   0     -13.364  14.183  72.810  1.00  0.00    -0.618 A  
HETATM   24  C   UNK A   0     -11.895  14.713  70.968  1.00  0.00    -0.379 A  
HETATM   25  C   UNK A   0     -13.100  15.429  73.377  1.00  0.00    -0.633 A  
HETATM   26  C   UNK A   0     -11.633  15.960  71.537  1.00  0.00    -0.537 A  
HETATM   27  C   UNK A   0     -12.235  16.319  72.741  1.00  0.00    -0.592 A  
ENDBRANCH  21  22
ENDBRANCH  20  21
ENDBRANCH  19  20
BRANCH  19  28
HETATM   28  C   UNK A   0     -11.285  10.116  68.575  1.00  0.00    -0.168 C  
HETATM   29  O   UNK A   0     -11.631  10.700  67.559  1.00  0.00    -0.482 OA 
BRANCH  28  30
HETATM   30  O   UNK A   0     -10.463   9.021  68.600  1.00  0.00    -0.213 OA 
BRANCH  30  31
HETATM   31  C   UNK A   0     -10.626   8.112  67.500  1.00  0.00    -0.221 C  
HETATM   32  C   UNK A   0      -9.485   8.342  66.522  1.00  0.00    -0.284 C  
ENDBRANCH  30  31
ENDBRANCH  28  30
ENDBRANCH  19  28
ENDBRANCH  17  19
ENDBRANCH  15  17
ENDBRANCH   8  15
TORSDOF 9
ENDMDL
MODEL       42
REMARK 921   NORMALIZED FREE ENERGY PREDICTED BY IDOCK:   -5.73 KCAL/MOL
REMARK 922        TOTAL FREE ENERGY PREDICTED BY IDOCK:  -10.68 KCAL/MOL
REMARK 923 INTER-LIGAND FREE ENERGY PREDICTED BY IDOCK:   -9.09 KCAL/MOL
REMARK 924 INTRA-LIGAND FREE ENERGY PREDICTED BY IDOCK:   -1.59 KCAL/MOL
REMARK 927      BINDING AFFINITY PREDICTED BY RF-SCORE:    0.00 PKD
ROOT
ATOM      1  C   ALA A   1      -6.666   9.348  68.341  1.00  0.00    -0.058 C  
ATOM      2  C   ALA A   1      -6.890  10.338  69.471  1.00  0.00    -0.084 C  
ATOM      3  CA  ALA A   1      -8.180  11.043  69.025  1.00  0.00    -0.098 C  
ATOM      4  N   ALA A   1      -8.900  10.039  68.194  1.00  0.00    -0.121 N  
ATOM      5  C   ALA A   1      -7.839  12.324  68.261  1.00  0.00    -0.153 C  
ATOM      6  C   ALA A   1      -8.084   8.825  68.088  1.00  0.00    -0.107 C  
ATOM      7  O   ALA A   1      -7.934  12.200  66.919  1.00  0.00    -0.157 OA 
ATOM      8  C   ALA A   1     -10.292   9.978  68.059  1.00  0.00    -0.198 C  
ATOM      9  OXT ALA A   1      -7.467  13.352  68.809  1.00  0.00    -0.108 OA 
ATOM     10  C   ALA A   1      -5.692   8.215  68.601  1.00  0.00    -0.036 C  
ATOM     11  O   ALA A   1     -10.845   8.985  67.583  1.00  0.00    -0.219 OA 
ATOM     12  C   ALA A   1      -8.074   8.001  66.801  1.00  0.00    -0.107 C  
ATOM     13  C   ALA A   1      -5.679   7.268  67.396  1.00  0.00    -0.029 C  
ATOM     14  C   ALA A   1      -7.084   6.830  66.960  1.00  0.00    -0.072 C  
ENDROOT
BRANCH   8  15
ATOM     15  CA  ALA A   1     -11.129  11.207  68.566  1.00  0.00    -0.244 C  
ATOM     16  CB  ALA A   1     -11.961  10.798  69.785  1.00  0.00    -0.397 C  
BRANCH  15  17
ATOM     17  N   ALA A   1     -11.966  11.732  67.470  1.00  0.00    -0.607 NA 
ATOM     18  H   ALA A   1     -12.834  11.201  67.407  1.00  0.00     0.000 HD 
BRANCH  17  19
HETATM   19  C   UNK A   0     -12.262  13.184  67.537  1.00  0.00    -0.116 C  
BRANCH  19  20
HETATM   20  C   UNK A   0     -11.306  13.936  68.487  1.00  0.00    -0.311 C  
BRANCH  20  21
HETATM   21  C   UNK A   0     -11.896  15.245  69.039  1.00  0.00    -0.342 C  
BRANCH  21  22
HETATM   22  C   UNK A   0     -12.207  15.124  70.510  1.00  0.00    -0.389 A  
HETATM   23  C   UNK A   0     -11.731  16.075  71.422  1.00  0.00    -0.536 A  
HETATM   24  C   UNK A   0     -13.014  14.077  70.978  1.00  0.00    -0.378 A  
HETATM   25  C   UNK A   0     -12.043  15.971  72.778  1.00  0.00    -0.635 A  
HETATM   26  C   UNK A   0     -13.324  13.975  72.335  1.00  0.00    -0.617 A  
HETATM   27  C   UNK A   0     -12.838  14.921  73.235  1.00  0.00    -0.646 A  
ENDBRANCH  21  22
ENDBRANCH  20  21
ENDBRANCH  19  20
BRANCH  19  28
HETATM   28  C   UNK A   0     -12.140  13.790  66.123  1.00  0.00    -0.441 C  
HETATM   29  O   UNK A   0     -13.047  13.877  65.310  1.00  0.00    -0.777 OA 
BRANCH  28  30
HETATM   30  O   UNK A   0     -10.839  14.141  65.877  1.00  0.00    -0.287 OA 
BRANCH  30  31
HETATM   31  C   UNK A   0     -10.669  15.289  65.029  1.00  0.00    -0.439 C  
HETATM   32  C   UNK A   0     -10.188  16.446  65.890  1.00  0.00    -0.379 C  
ENDBRANCH  30  31
ENDBRANCH  28  30
ENDBRANCH  19  28
ENDBRANCH  17  19
ENDBRANCH  15  17
ENDBRANCH   8  15
TORSDOF 9
ENDMDL
MODEL       43
REMARK 921   NORMALIZED FREE ENERGY PREDICTED BY IDOCK:   -5.72 KCAL/MOL
REMARK 922        TOTAL FREE ENERGY PREDICTED BY IDOCK:  -10.68 KCAL/MOL
REMARK 923 INTER-LIGAND FREE ENERGY PREDICTED BY IDOCK:   -8.65 KCAL/MOL
REMARK 924 INTRA-LIGAND FREE ENERGY PREDICTED BY IDOCK:   -2.03 KCAL/MOL
REMARK 927      BINDING AFFINITY PREDICTED BY RF-SCORE:    0.00 PKD
ROOT
ATOM      1  C   ALA A   1      -9.110  19.096  66.835  1.00  0.00    -0.340 C  
ATOM      2  C   ALA A   1     -10.548  19.010  66.352  1.00  0.00    -0.492 C  
ATOM      3  CA  ALA A   1     -10.856  17.516  66.536  1.00  0.00     0.055 C  
ATOM      4  N   ALA A   1      -9.971  17.075  67.649  1.00  0.00    -0.272 N  
ATOM      5  C   ALA A   1     -10.600  16.764  65.228  1.00  0.00    -0.168 C  
ATOM      6  C   ALA A   1      -9.137  18.202  68.079  1.00  0.00    -0.283 C  
ATOM      7  O   ALA A   1      -9.426  16.095  65.206  1.00  0.00    -0.320 OA 
ATOM      8  C   ALA A   1     -10.274  16.032  68.533  1.00  0.00    -0.236 C  
ATOM      9  OXT ALA A   1     -11.362  16.803  64.272  1.00  0.00    -1.170 OA 
ATOM     10  C   ALA A   1      -8.572  20.477  67.153  1.00  0.00    -0.364 C  
ATOM     11  O   ALA A   1      -9.645  15.881  69.582  1.00  0.00    -0.259 OA 
ATOM     12  C   ALA A   1      -7.698  17.974  68.543  1.00  0.00    -0.308 C  
ATOM     13  C   ALA A   1      -7.155  20.354  67.722  1.00  0.00    -0.344 C  
ATOM     14  C   ALA A   1      -7.053  19.337  68.868  1.00  0.00    -0.385 C  
ENDROOT
BRANCH   8  15
ATOM     15  CA  ALA A   1     -11.466  15.081  68.157  1.00  0.00    -0.339 C  
ATOM     16  CB  ALA A   1     -12.104  14.522  69.433  1.00  0.00    -0.328 C  
BRANCH  15  17
ATOM     17  N   ALA A   1     -10.992  14.011  67.257  1.00  0.00    -0.290 NA 
ATOM     18  H   ALA A   1     -10.237  14.360  66.666  1.00  0.00     0.000 HD 
BRANCH  17  19
HETATM   19  C   UNK A   0     -10.575  12.756  67.928  1.00  0.00    -0.221 C  
BRANCH  19  20
HETATM   20  C   UNK A   0     -11.310  11.519  67.371  1.00  0.00    -0.367 C  
BRANCH  20  21
HETATM   21  C   UNK A   0     -11.438  10.373  68.388  1.00  0.00    -0.227 C  
BRANCH  21  22
HETATM   22  C   UNK A   0     -10.441   9.278  68.102  1.00  0.00    -0.263 A  
HETATM   23  C   UNK A   0      -9.331   9.085  68.934  1.00  0.00    -0.143 A  
HETATM   24  C   UNK A   0     -10.637   8.409  67.018  1.00  0.00    -0.316 A  
HETATM   25  C   UNK A   0      -8.426   8.055  68.678  1.00  0.00    -0.128 A  
HETATM   26  C   UNK A   0      -9.730   7.380  66.764  1.00  0.00    -0.271 A  
HETATM   27  C   UNK A   0      -8.625   7.202  67.593  1.00  0.00    -0.122 A  
ENDBRANCH  21  22
ENDBRANCH  20  21
ENDBRANCH  19  20
BRANCH  19  28
HETATM   28  C   UNK A   0      -9.056  12.562  67.736  1.00  0.00    -0.191 C  
HETATM   29  O   UNK A   0      -8.197  12.853  68.554  1.00  0.00    -0.139 OA 
BRANCH  28  30
HETATM   30  O   UNK A   0      -8.800  12.094  66.475  1.00  0.00    -0.204 OA 
BRANCH  30  31
HETATM   31  C   UNK A   0      -7.590  11.330  66.342  1.00  0.00    -0.072 C  
HETATM   32  C   UNK A   0      -7.803  10.293  65.252  1.00  0.00    -0.145 C  
ENDBRANCH  30  31
ENDBRANCH  28  30
ENDBRANCH  19  28
ENDBRANCH  17  19
ENDBRANCH  15  17
ENDBRANCH   8  15
TORSDOF 9
ENDMDL
MODEL       44
REMARK 921   NORMALIZED FREE ENERGY PREDICTED BY IDOCK:   -5.72 KCAL/MOL
REMARK 922        TOTAL FREE ENERGY PREDICTED BY IDOCK:  -10.68 KCAL/MOL
REMARK 923 INTER-LIGAND FREE ENERGY PREDICTED BY IDOCK:   -8.87 KCAL/MOL
REMARK 924 INTRA-LIGAND FREE ENERGY PREDICTED BY IDOCK:   -1.81 KCAL/MOL
REMARK 927      BINDING AFFINITY PREDICTED BY RF-SCORE:    0.00 PKD
ROOT
ATOM      1  C   ALA A   1     -10.890  13.511  66.173  1.00  0.00    -0.284 C  
ATOM      2  C   ALA A   1     -11.643  12.220  65.900  1.00  0.00    -0.450 C  
ATOM      3  CA  ALA A   1     -11.474  11.466  67.228  1.00  0.00    -0.224 C  
ATOM      4  N   ALA A   1     -11.318  12.531  68.258  1.00  0.00    -0.263 N  
ATOM      5  C   ALA A   1     -10.269  10.526  67.145  1.00  0.00    -0.223 C  
ATOM      6  C   ALA A   1     -11.331  13.843  67.602  1.00  0.00    -0.309 C  
ATOM      7  O   ALA A   1      -9.162  11.006  67.753  1.00  0.00    -0.150 OA 
ATOM      8  C   ALA A   1     -11.704  12.396  69.597  1.00  0.00    -0.307 C  
ATOM      9  OXT ALA A   1     -10.290   9.462  66.544  1.00  0.00    -0.251 OA 
ATOM     10  C   ALA A   1     -11.144  14.670  65.228  1.00  0.00    -0.363 C  
ATOM     11  O   ALA A   1     -11.798  13.378  70.336  1.00  0.00    -0.297 OA 
ATOM     12  C   ALA A   1     -10.461  14.985  68.126  1.00  0.00    -0.245 C  
ATOM     13  C   ALA A   1     -10.385  15.905  65.722  1.00  0.00    -0.396 C  
ATOM     14  C   ALA A   1     -10.632  16.211  67.207  1.00  0.00    -0.305 C  
ENDROOT
BRANCH   8  15
ATOM     15  CA  ALA A   1     -12.046  10.954  70.116  1.00  0.00    -0.349 C  
ATOM     16  CB  ALA A   1     -13.004  11.047  71.307  1.00  0.00    -0.472 C  
BRANCH  15  17
ATOM     17  N   ALA A   1     -10.803  10.234  70.455  1.00  0.00    -0.408 NA 
ATOM     18  H   ALA A   1     -10.293  10.738  71.180  1.00  0.00     0.000 HD 
BRANCH  17  19
HETATM   19  C   UNK A   0     -10.979   8.815  70.850  1.00  0.00    -0.262 C  
BRANCH  19  20
HETATM   20  C   UNK A   0     -10.482   7.836  69.765  1.00  0.00    -0.233 C  
BRANCH  20  21
HETATM   21  C   UNK A   0     -11.306   6.540  69.687  1.00  0.00    -0.443 C  
BRANCH  21  22
HETATM   22  C   UNK A   0     -10.468   5.341  70.058  1.00  0.00    -0.351 A  
HETATM   23  C   UNK A   0      -9.709   4.672  69.090  1.00  0.00    -0.255 A  
HETATM   24  C   UNK A   0     -10.406   4.907  71.390  1.00  0.00    -0.221 A  
HETATM   25  C   UNK A   0      -8.917   3.580  69.444  1.00  0.00    -0.175 A  
HETATM   26  C   UNK A   0      -9.614   3.813  71.742  1.00  0.00    -0.226 A  
HETATM   27  C   UNK A   0      -8.869   3.149  70.769  1.00  0.00    -0.145 A  
ENDBRANCH  21  22
ENDBRANCH  20  21
ENDBRANCH  19  20
BRANCH  19  28
HETATM   28  C   UNK A   0     -10.198   8.554  72.155  1.00  0.00    -0.333 C  
HETATM   29  O   UNK A   0     -10.667   8.079  73.178  1.00  0.00    -0.332 OA 
BRANCH  28  30
HETATM   30  O   UNK A   0      -8.914   9.013  72.029  1.00  0.00    -0.374 OA 
BRANCH  30  31
HETATM   31  C   UNK A   0      -7.914   8.210  72.679  1.00  0.00    -0.146 C  
HETATM   32  C   UNK A   0      -7.346   7.241  71.655  1.00  0.00    -0.080 C  
ENDBRANCH  30  31
ENDBRANCH  28  30
ENDBRANCH  19  28
ENDBRANCH  17  19
ENDBRANCH  15  17
ENDBRANCH   8  15
TORSDOF 9
ENDMDL
MODEL       45
REMARK 921   NORMALIZED FREE ENERGY PREDICTED BY IDOCK:   -5.71 KCAL/MOL
REMARK 922        TOTAL FREE ENERGY PREDICTED BY IDOCK:  -10.66 KCAL/MOL
REMARK 923 INTER-LIGAND FREE ENERGY PREDICTED BY IDOCK:   -9.18 KCAL/MOL
REMARK 924 INTRA-LIGAND FREE ENERGY PREDICTED BY IDOCK:   -1.48 KCAL/MOL
REMARK 927      BINDING AFFINITY PREDICTED BY RF-SCORE:    0.00 PKD
ROOT
ATOM      1  C   ALA A   1      -8.611   7.426  70.014  1.00  0.00    -0.140 C  
ATOM      2  C   ALA A   1      -7.895   8.723  70.349  1.00  0.00    -0.098 C  
ATOM      3  CA  ALA A   1      -8.917   9.777  69.896  1.00  0.00    -0.229 C  
ATOM      4  N   ALA A   1     -10.241   9.109  70.026  1.00  0.00    -0.193 N  
ATOM      5  C   ALA A   1      -8.606  10.227  68.467  1.00  0.00    -0.126 C  
ATOM      6  C   ALA A   1     -10.043   7.725  70.470  1.00  0.00    -0.192 C  
ATOM      7  O   ALA A   1      -9.398   9.658  67.533  1.00  0.00    -0.129 OA 
ATOM      8  C   ALA A   1     -11.441   9.780  70.291  1.00  0.00    -0.255 C  
ATOM      9  OXT ALA A   1      -7.694  10.992  68.189  1.00  0.00    -0.097 OA 
ATOM     10  C   ALA A   1      -8.077   6.159  70.654  1.00  0.00    -0.116 C  
ATOM     11  O   ALA A   1     -12.450   9.168  70.646  1.00  0.00    -0.086 OA 
ATOM     12  C   ALA A   1     -10.955   6.607  69.967  1.00  0.00    -0.363 C  
ATOM     13  C   ALA A   1      -8.985   4.981  70.287  1.00  0.00    -0.151 C  
ATOM     14  C   ALA A   1     -10.471   5.263  70.547  1.00  0.00    -0.312 C  
ENDROOT
BRANCH   8  15
ATOM     15  CA  ALA A   1     -11.449  11.344  70.151  1.00  0.00    -0.214 C  
ATOM     16  CB  ALA A   1     -12.651  11.924  70.901  1.00  0.00    -0.361 C  
BRANCH  15  17
ATOM     17  N   ALA A   1     -11.447  11.721  68.724  1.00  0.00    -0.263 NA 
ATOM     18  H   ALA A   1     -11.942  11.019  68.175  1.00  0.00     0.000 HD 
BRANCH  17  19
HETATM   19  C   UNK A   0     -11.982  13.072  68.424  1.00  0.00    -0.271 C  
BRANCH  19  20
HETATM   20  C   UNK A   0     -11.033  14.197  68.889  1.00  0.00    -0.280 C  
BRANCH  20  21
HETATM   21  C   UNK A   0     -11.761  15.507  69.235  1.00  0.00    -0.380 C  
BRANCH  21  22
HETATM   22  C   UNK A   0     -12.325  15.462  70.634  1.00  0.00    -0.451 A  
HETATM   23  C   UNK A   0     -11.488  15.612  71.747  1.00  0.00    -0.505 A  
HETATM   24  C   UNK A   0     -13.704  15.311  70.836  1.00  0.00    -0.363 A  
HETATM   25  C   UNK A   0     -12.018  15.595  73.037  1.00  0.00    -0.590 A  
HETATM   26  C   UNK A   0     -14.232  15.293  72.127  1.00  0.00    -0.667 A  
HETATM   27  C   UNK A   0     -13.390  15.435  73.228  1.00  0.00    -0.559 A  
ENDBRANCH  21  22
ENDBRANCH  20  21
ENDBRANCH  19  20
BRANCH  19  28
HETATM   28  C   UNK A   0     -12.202  13.201  66.902  1.00  0.00    -0.222 C  
HETATM   29  O   UNK A   0     -12.580  14.208  66.325  1.00  0.00    -0.449 OA 
BRANCH  28  30
HETATM   30  O   UNK A   0     -11.994  11.990  66.297  1.00  0.00    -0.596 OA 
BRANCH  30  31
HETATM   31  C   UNK A   0     -11.372  12.055  65.003  1.00  0.00    -0.310 C  
HETATM   32  C   UNK A   0      -9.872  12.189  65.205  1.00  0.00    -0.216 C  
ENDBRANCH  30  31
ENDBRANCH  28  30
ENDBRANCH  19  28
ENDBRANCH  17  19
ENDBRANCH  15  17
ENDBRANCH   8  15
TORSDOF 9
ENDMDL
MODEL       46
REMARK 921   NORMALIZED FREE ENERGY PREDICTED BY IDOCK:   -5.70 KCAL/MOL
REMARK 922        TOTAL FREE ENERGY PREDICTED BY IDOCK:  -10.65 KCAL/MOL
REMARK 923 INTER-LIGAND FREE ENERGY PREDICTED BY IDOCK:   -9.01 KCAL/MOL
REMARK 924 INTRA-LIGAND FREE ENERGY PREDICTED BY IDOCK:   -1.64 KCAL/MOL
REMARK 927      BINDING AFFINITY PREDICTED BY RF-SCORE:    0.00 PKD
ROOT
ATOM      1  C   ALA A   1     -10.322  17.519  67.350  1.00  0.00    -0.351 C  
ATOM      2  C   ALA A   1     -11.145  16.550  68.182  1.00  0.00    -0.303 C  
ATOM      3  CA  ALA A   1     -10.564  15.193  67.757  1.00  0.00    -0.264 C  
ATOM      4  N   ALA A   1      -9.160  15.485  67.355  1.00  0.00    -0.195 N  
ATOM      5  C   ALA A   1     -11.403  14.596  66.626  1.00  0.00    -0.356 C  
ATOM      6  C   ALA A   1      -8.914  16.926  67.468  1.00  0.00    -0.206 C  
ATOM      7  O   ALA A   1     -10.853  14.748  65.401  1.00  0.00    -0.318 OA 
ATOM      8  C   ALA A   1      -8.104  14.570  67.453  1.00  0.00    -0.200 C  
ATOM      9  OXT ALA A   1     -12.494  14.072  66.805  1.00  0.00    -0.391 OA 
ATOM     10  C   ALA A   1     -10.349  18.978  67.765  1.00  0.00    -0.498 C  
ATOM     11  O   ALA A   1      -6.931  14.936  67.359  1.00  0.00    -0.189 OA 
ATOM     12  C   ALA A   1      -8.002  17.642  66.473  1.00  0.00    -0.302 C  
ATOM     13  C   ALA A   1      -9.384  19.776  66.882  1.00  0.00    -0.469 C  
ATOM     14  C   ALA A   1      -7.985  19.149  66.800  1.00  0.00    -0.281 C  
ENDROOT
BRANCH   8  15
ATOM     15  CA  ALA A   1      -8.466  13.065  67.719  1.00  0.00    -0.188 C  
ATOM     16  CB  ALA A   1      -7.341  12.396  68.513  1.00  0.00    -0.105 C  
BRANCH  15  17
ATOM     17  N   ALA A   1      -8.731  12.378  66.440  1.00  0.00    -0.410 NA 
ATOM     18  H   ALA A   1      -8.117  12.742  65.712  1.00  0.00     0.000 HD 
BRANCH  17  19
HETATM   19  C   UNK A   0      -8.643  10.897  66.485  1.00  0.00    -0.156 C  
BRANCH  19  20
HETATM   20  C   UNK A   0      -9.930  10.248  67.035  1.00  0.00    -0.249 C  
BRANCH  20  21
HETATM   21  C   UNK A   0      -9.665   9.167  68.096  1.00  0.00    -0.174 C  
BRANCH  21  22
HETATM   22  C   UNK A   0     -10.559   9.353  69.297  1.00  0.00    -0.239 A  
HETATM   23  C   UNK A   0     -11.178  10.586  69.544  1.00  0.00    -0.329 A  
HETATM   24  C   UNK A   0     -10.816   8.279  70.160  1.00  0.00    -0.237 A  
HETATM   25  C   UNK A   0     -12.023  10.745  70.642  1.00  0.00    -0.466 A  
HETATM   26  C   UNK A   0     -11.661   8.440  71.259  1.00  0.00    -0.325 A  
HETATM   27  C   UNK A   0     -12.265   9.673  71.501  1.00  0.00    -0.483 A  
ENDBRANCH  21  22
ENDBRANCH  20  21
ENDBRANCH  19  20
BRANCH  19  28
HETATM   28  C   UNK A   0      -8.384  10.364  65.060  1.00  0.00    -0.166 C  
HETATM   29  O   UNK A   0      -7.283  10.166  64.569  1.00  0.00    -0.138 OA 
BRANCH  28  30
HETATM   30  O   UNK A   0      -9.570  10.224  64.391  1.00  0.00    -0.275 OA 
BRANCH  30  31
HETATM   31  C   UNK A   0      -9.669  10.966  63.165  1.00  0.00    -0.363 C  
HETATM   32  C   UNK A   0     -10.934  11.807  63.221  1.00  0.00    -0.387 C  
ENDBRANCH  30  31
ENDBRANCH  28  30
ENDBRANCH  19  28
ENDBRANCH  17  19
ENDBRANCH  15  17
ENDBRANCH   8  15
TORSDOF 9
ENDMDL
MODEL       47
REMARK 921   NORMALIZED FREE ENERGY PREDICTED BY IDOCK:   -5.70 KCAL/MOL
REMARK 922        TOTAL FREE ENERGY PREDICTED BY IDOCK:  -10.64 KCAL/MOL
REMARK 923 INTER-LIGAND FREE ENERGY PREDICTED BY IDOCK:   -9.01 KCAL/MOL
REMARK 924 INTRA-LIGAND FREE ENERGY PREDICTED BY IDOCK:   -1.63 KCAL/MOL
REMARK 927      BINDING AFFINITY PREDICTED BY RF-SCORE:    0.00 PKD
ROOT
ATOM      1  C   ALA A   1      -6.859  17.734  66.965  1.00  0.00    -0.204 C  
ATOM      2  C   ALA A   1      -6.639  16.232  67.012  1.00  0.00    -0.193 C  
ATOM      3  CA  ALA A   1      -8.076  15.704  67.148  1.00  0.00    -0.215 C  
ATOM      4  N   ALA A   1      -8.927  16.739  66.498  1.00  0.00    -0.253 N  
ATOM      5  C   ALA A   1      -8.415  15.483  68.623  1.00  0.00    -0.174 C  
ATOM      6  C   ALA A   1      -8.082  17.849  66.049  1.00  0.00    -0.095 C  
ATOM      7  O   ALA A   1      -9.167  16.468  69.162  1.00  0.00    -0.259 OA 
ATOM      8  C   ALA A   1     -10.152  16.474  65.872  1.00  0.00    -0.337 C  
ATOM      9  OXT ALA A   1      -8.005  14.530  69.270  1.00  0.00    -0.099 OA 
ATOM     10  C   ALA A   1      -5.706  18.583  66.464  1.00  0.00    -0.178 C  
ATOM     11  O   ALA A   1     -10.682  17.303  65.130  1.00  0.00    -0.687 OA 
ATOM     12  C   ALA A   1      -8.592  19.289  66.101  1.00  0.00    -0.267 C  
ATOM     13  C   ALA A   1      -6.148  20.048  66.387  1.00  0.00    -0.180 C  
ATOM     14  C   ALA A   1      -7.472  20.238  65.631  1.00  0.00    -0.180 C  
ENDROOT
BRANCH   8  15
ATOM     15  CA  ALA A   1     -10.809  15.070  66.121  1.00  0.00    -0.329 C  
ATOM     16  CB  ALA A   1     -11.689  14.692  64.926  1.00  0.00    -0.403 C  
BRANCH  15  17
ATOM     17  N   ALA A   1     -11.567  15.086  67.388  1.00  0.00    -0.330 NA 
ATOM     18  H   ALA A   1     -12.440  15.599  67.267  1.00  0.00     0.000 HD 
BRANCH  17  19
HETATM   19  C   UNK A   0     -11.837  13.755  67.984  1.00  0.00    -0.373 C  
BRANCH  19  20
HETATM   20  C   UNK A   0     -10.669  12.769  67.774  1.00  0.00    -0.237 C  
BRANCH  20  21
HETATM   21  C   UNK A   0     -11.081  11.478  67.046  1.00  0.00    -0.365 C  
BRANCH  21  22
HETATM   22  C   UNK A   0     -10.710  10.258  67.852  1.00  0.00    -0.310 A  
HETATM   23  C   UNK A   0     -10.558   9.011  67.232  1.00  0.00    -0.301 A  
HETATM   24  C   UNK A   0     -10.469  10.366  69.229  1.00  0.00    -0.257 A  
HETATM   25  C   UNK A   0     -10.190   7.891  67.978  1.00  0.00    -0.256 A  
HETATM   26  C   UNK A   0     -10.102   9.245  69.973  1.00  0.00    -0.240 A  
HETATM   27  C   UNK A   0      -9.962   8.007  69.349  1.00  0.00    -0.190 A  
ENDBRANCH  21  22
ENDBRANCH  20  21
ENDBRANCH  19  20
BRANCH  19  28
HETATM   28  C   UNK A   0     -12.085  13.921  69.498  1.00  0.00    -0.342 C  
HETATM   29  O   UNK A   0     -12.283  13.010  70.287  1.00  0.00    -0.339 OA 
BRANCH  28  30
HETATM   30  O   UNK A   0     -12.135  15.252  69.819  1.00  0.00    -0.320 OA 
BRANCH  30  31
HETATM   31  C   UNK A   0     -12.816  15.556  71.047  1.00  0.00    -0.482 C  
HETATM   32  C   UNK A   0     -11.800  16.129  72.022  1.00  0.00    -0.615 C  
ENDBRANCH  30  31
ENDBRANCH  28  30
ENDBRANCH  19  28
ENDBRANCH  17  19
ENDBRANCH  15  17
ENDBRANCH   8  15
TORSDOF 9
ENDMDL
MODEL       48
REMARK 921   NORMALIZED FREE ENERGY PREDICTED BY IDOCK:   -5.67 KCAL/MOL
REMARK 922        TOTAL FREE ENERGY PREDICTED BY IDOCK:  -10.60 KCAL/MOL
REMARK 923 INTER-LIGAND FREE ENERGY PREDICTED BY IDOCK:   -8.87 KCAL/MOL
REMARK 924 INTRA-LIGAND FREE ENERGY PREDICTED BY IDOCK:   -1.73 KCAL/MOL
REMARK 927      BINDING AFFINITY PREDICTED BY RF-SCORE:    0.00 PKD
ROOT
ATOM      1  C   ALA A   1      -8.516   6.657  65.722  1.00  0.00    -0.150 C  
ATOM      2  C   ALA A   1      -7.578   7.734  66.239  1.00  0.00    -0.087 C  
ATOM      3  CA  ALA A   1      -8.535   8.638  67.030  1.00  0.00    -0.110 C  
ATOM      4  N   ALA A   1      -9.635   7.738  67.474  1.00  0.00    -0.143 N  
ATOM      5  C   ALA A   1      -9.018   9.789  66.145  1.00  0.00    -0.152 C  
ATOM      6  C   ALA A   1      -9.401   6.390  66.945  1.00  0.00    -0.134 C  
ATOM      7  O   ALA A   1     -10.261   9.608  65.647  1.00  0.00    -0.253 OA 
ATOM      8  C   ALA A   1     -10.388   7.927  68.639  1.00  0.00    -0.201 C  
ATOM      9  OXT ALA A   1      -8.327  10.760  65.872  1.00  0.00    -0.159 OA 
ATOM     10  C   ALA A   1      -7.882   5.381  65.205  1.00  0.00    -0.095 C  
ATOM     11  O   ALA A   1     -11.097   7.027  69.095  1.00  0.00    -0.188 OA 
ATOM     12  C   ALA A   1     -10.571   5.508  66.512  1.00  0.00    -0.343 C  
ATOM     13  C   ALA A   1      -8.981   4.381  64.830  1.00  0.00    -0.149 C  
ATOM     14  C   ALA A   1     -10.021   4.185  65.942  1.00  0.00    -0.198 C  
ENDROOT
BRANCH   8  15
ATOM     15  CA  ALA A   1     -10.274   9.316  69.364  1.00  0.00    -0.210 C  
ATOM     16  CB  ALA A   1      -9.812   9.108  70.809  1.00  0.00    -0.334 C  
BRANCH  15  17
ATOM     17  N   ALA A   1     -11.563  10.031  69.288  1.00  0.00    -0.464 NA 
ATOM     18  H   ALA A   1     -12.330   9.394  69.504  1.00  0.00     0.000 HD 
BRANCH  17  19
HETATM   19  C   UNK A   0     -11.663  11.251  70.125  1.00  0.00    -0.343 C  
BRANCH  19  20
HETATM   20  C   UNK A   0     -11.844  12.530  69.282  1.00  0.00    -0.360 C  
BRANCH  20  21
HETATM   21  C   UNK A   0     -10.590  12.918  68.480  1.00  0.00    -0.270 C  
BRANCH  21  22
HETATM   22  C   UNK A   0     -10.911  13.082  67.015  1.00  0.00    -0.289 A  
HETATM   23  C   UNK A   0     -10.103  13.875  66.190  1.00  0.00    -0.317 A  
HETATM   24  C   UNK A   0     -12.002  12.404  66.451  1.00  0.00    -0.346 A  
HETATM   25  C   UNK A   0     -10.390  14.001  64.831  1.00  0.00    -0.434 A  
HETATM   26  C   UNK A   0     -12.287  12.534  65.091  1.00  0.00    -0.496 A  
HETATM   27  C   UNK A   0     -11.483  13.332  64.281  1.00  0.00    -0.435 A  
ENDBRANCH  21  22
ENDBRANCH  20  21
ENDBRANCH  19  20
BRANCH  19  28
HETATM   28  C   UNK A   0     -12.864  11.108  71.083  1.00  0.00    -0.374 C  
HETATM   29  O   UNK A   0     -13.182  11.914  71.944  1.00  0.00    -0.482 OA 
BRANCH  28  30
HETATM   30  O   UNK A   0     -13.477   9.900  70.885  1.00  0.00    -0.334 OA 
BRANCH  30  31
HETATM   31  C   UNK A   0     -13.619   9.089  72.063  1.00  0.00    -0.445 C  
HETATM   32  C   UNK A   0     -14.233   7.761  71.652  1.00  0.00    -0.572 C  
ENDBRANCH  30  31
ENDBRANCH  28  30
ENDBRANCH  19  28
ENDBRANCH  17  19
ENDBRANCH  15  17
ENDBRANCH   8  15
TORSDOF 9
ENDMDL
MODEL       49
REMARK 921   NORMALIZED FREE ENERGY PREDICTED BY IDOCK:   -5.64 KCAL/MOL
REMARK 922        TOTAL FREE ENERGY PREDICTED BY IDOCK:  -10.55 KCAL/MOL
REMARK 923 INTER-LIGAND FREE ENERGY PREDICTED BY IDOCK:   -8.94 KCAL/MOL
REMARK 924 INTRA-LIGAND FREE ENERGY PREDICTED BY IDOCK:   -1.61 KCAL/MOL
REMARK 927      BINDING AFFINITY PREDICTED BY RF-SCORE:    0.00 PKD
ROOT
ATOM      1  C   ALA A   1      -6.822  17.841  67.494  1.00  0.00    -0.189 C  
ATOM      2  C   ALA A   1      -6.563  16.423  67.015  1.00  0.00    -0.225 C  
ATOM      3  CA  ALA A   1      -7.984  15.839  66.964  1.00  0.00    -0.237 C  
ATOM      4  N   ALA A   1      -8.871  17.010  66.720  1.00  0.00    -0.230 N  
ATOM      5  C   ALA A   1      -8.296  15.109  68.272  1.00  0.00    -0.149 C  
ATOM      6  C   ALA A   1      -8.061  18.232  66.682  1.00  0.00    -0.260 C  
ATOM      7  O   ALA A   1      -9.065  15.822  69.124  1.00  0.00    -0.228 OA 
ATOM      8  C   ALA A   1     -10.097  16.944  66.046  1.00  0.00    -0.319 C  
ATOM      9  OXT ALA A   1      -7.851  14.002  68.544  1.00  0.00    -0.132 OA 
ATOM     10  C   ALA A   1      -5.699  18.844  67.315  1.00  0.00    -0.162 C  
ATOM     11  O   ALA A   1     -10.660  17.963  65.642  1.00  0.00    -0.587 OA 
ATOM     12  C   ALA A   1      -8.608  19.547  67.234  1.00  0.00    -0.341 C  
ATOM     13  C   ALA A   1      -6.180  20.231  67.755  1.00  0.00    -0.269 C  
ATOM     14  C   ALA A   1      -7.519  20.633  67.119  1.00  0.00    -0.381 C  
ENDROOT
BRANCH   8  15
ATOM     15  CA  ALA A   1     -10.715  15.522  65.794  1.00  0.00    -0.353 C  
ATOM     16  CB  ALA A   1     -11.528  15.535  64.496  1.00  0.00    -0.311 C  
BRANCH  15  17
ATOM     17  N   ALA A   1     -11.527  15.112  66.956  1.00  0.00    -0.283 NA 
ATOM     18  H   ALA A   1     -12.455  15.530  66.900  1.00  0.00     0.000 HD 
BRANCH  17  19
HETATM   19  C   UNK A   0     -11.639  13.648  67.168  1.00  0.00    -0.361 C  
BRANCH  19  20
HETATM   20  C   UNK A   0     -10.557  12.858  66.402  1.00  0.00    -0.285 C  
BRANCH  20  21
HETATM   21  C   UNK A   0     -11.134  11.833  65.411  1.00  0.00    -0.336 C  
BRANCH  21  22
HETATM   22  C   UNK A   0     -10.147  10.725  65.139  1.00  0.00    -0.363 A  
HETATM   23  C   UNK A   0      -9.579  10.569  63.869  1.00  0.00    -0.363 A  
HETATM   24  C   UNK A   0      -9.754   9.860  66.171  1.00  0.00    -0.297 A  
HETATM   25  C   UNK A   0      -8.647   9.558  63.631  1.00  0.00    -0.222 A  
HETATM   26  C   UNK A   0      -8.823   8.849  65.930  1.00  0.00    -0.215 A  
HETATM   27  C   UNK A   0      -8.270   8.697  64.661  1.00  0.00    -0.167 A  
ENDBRANCH  21  22
ENDBRANCH  20  21
ENDBRANCH  19  20
BRANCH  19  28
HETATM   28  C   UNK A   0     -11.507  13.345  68.675  1.00  0.00    -0.310 C  
HETATM   29  O   UNK A   0     -10.957  12.365  69.154  1.00  0.00    -0.225 OA 
BRANCH  28  30
HETATM   30  O   UNK A   0     -12.173  14.295  69.402  1.00  0.00    -0.324 OA 
BRANCH  30  31
HETATM   31  C   UNK A   0     -12.400  13.959  70.781  1.00  0.00    -0.378 C  
HETATM   32  C   UNK A   0     -12.416  15.248  71.586  1.00  0.00    -0.433 C  
ENDBRANCH  30  31
ENDBRANCH  28  30
ENDBRANCH  19  28
ENDBRANCH  17  19
ENDBRANCH  15  17
ENDBRANCH   8  15
TORSDOF 9
ENDMDL
MODEL       50
REMARK 921   NORMALIZED FREE ENERGY PREDICTED BY IDOCK:   -5.62 KCAL/MOL
REMARK 922        TOTAL FREE ENERGY PREDICTED BY IDOCK:  -10.52 KCAL/MOL
REMARK 923 INTER-LIGAND FREE ENERGY PREDICTED BY IDOCK:   -9.04 KCAL/MOL
REMARK 924 INTRA-LIGAND FREE ENERGY PREDICTED BY IDOCK:   -1.48 KCAL/MOL
REMARK 927      BINDING AFFINITY PREDICTED BY RF-SCORE:    0.00 PKD
ROOT
ATOM      1  C   ALA A   1     -10.361   8.599  67.192  1.00  0.00    -0.369 C  
ATOM      2  C   ALA A   1     -10.323   9.576  66.028  1.00  0.00    -0.130 C  
ATOM      3  CA  ALA A   1     -10.064  10.911  66.742  1.00  0.00    -0.216 C  
ATOM      4  N   ALA A   1      -9.327  10.547  67.983  1.00  0.00    -0.143 N  
ATOM      5  C   ALA A   1     -11.390  11.624  67.015  1.00  0.00    -0.305 C  
ATOM      6  C   ALA A   1      -9.194   9.089  68.057  1.00  0.00    -0.135 C  
ATOM      7  O   ALA A   1     -11.821  11.501  68.290  1.00  0.00    -0.473 OA 
ATOM      8  C   ALA A   1      -8.406  11.382  68.628  1.00  0.00    -0.136 C  
ATOM      9  OXT ALA A   1     -12.027  12.210  66.151  1.00  0.00    -0.593 OA 
ATOM     10  C   ALA A   1     -10.228   7.126  66.859  1.00  0.00    -0.330 C  
ATOM     11  O   ALA A   1      -7.637  10.943  69.486  1.00  0.00    -0.131 OA 
ATOM     12  C   ALA A   1      -9.253   8.367  69.403  1.00  0.00    -0.154 C  
ATOM     13  C   ALA A   1     -10.180   6.313  68.157  1.00  0.00    -0.200 C  
ATOM     14  C   ALA A   1      -9.152   6.847  69.164  1.00  0.00    -0.136 C  
ENDROOT
BRANCH   8  15
ATOM     15  CA  ALA A   1      -8.363  12.891  68.197  1.00  0.00    -0.168 C  
ATOM     16  CB  ALA A   1      -6.970  13.468  68.469  1.00  0.00    -0.102 C  
BRANCH  15  17
ATOM     17  N   ALA A   1      -9.424  13.644  68.894  1.00  0.00    -0.408 NA 
ATOM     18  H   ALA A   1      -9.323  13.537  69.903  1.00  0.00     0.000 HD 
BRANCH  17  19
HETATM   19  C   UNK A   0      -9.518  15.082  68.541  1.00  0.00    -0.203 C  
BRANCH  19  20
HETATM   20  C   UNK A   0      -9.798  15.302  67.040  1.00  0.00    -0.233 C  
BRANCH  20  21
HETATM   21  C   UNK A   0      -8.793  16.248  66.362  1.00  0.00    -0.346 C  
BRANCH  21  22
HETATM   22  C   UNK A   0      -9.113  17.691  66.668  1.00  0.00    -0.280 A  
HETATM   23  C   UNK A   0      -8.262  18.457  67.474  1.00  0.00    -0.255 A  
HETATM   24  C   UNK A   0     -10.249  18.296  66.110  1.00  0.00    -0.393 A  
HETATM   25  C   UNK A   0      -8.550  19.797  67.732  1.00  0.00    -0.373 A  
HETATM   26  C   UNK A   0     -10.535  19.637  66.371  1.00  0.00    -0.618 A  
HETATM   27  C   UNK A   0      -9.687  20.387  67.182  1.00  0.00    -0.601 A  
ENDBRANCH  21  22
ENDBRANCH  20  21
ENDBRANCH  19  20
BRANCH  19  28
HETATM   28  C   UNK A   0     -10.654  15.729  69.362  1.00  0.00    -0.255 C  
HETATM   29  O   UNK A   0     -11.185  16.800  69.113  1.00  0.00    -0.216 OA 
BRANCH  28  30
HETATM   30  O   UNK A   0     -10.925  14.965  70.466  1.00  0.00    -0.201 OA 
BRANCH  30  31
HETATM   31  C   UNK A   0     -12.209  15.198  71.067  1.00  0.00    -0.334 C  
HETATM   32  C   UNK A   0     -11.986  15.831  72.431  1.00  0.00    -0.600 C  
ENDBRANCH  30  31
ENDBRANCH  28  30
ENDBRANCH  19  28
ENDBRANCH  17  19
ENDBRANCH  15  17
ENDBRANCH   8  15
TORSDOF 9
ENDMDL
MODEL       51
REMARK 921   NORMALIZED FREE ENERGY PREDICTED BY IDOCK:   -5.61 KCAL/MOL
REMARK 922        TOTAL FREE ENERGY PREDICTED BY IDOCK:  -10.50 KCAL/MOL
REMARK 923 INTER-LIGAND FREE ENERGY PREDICTED BY IDOCK:   -9.37 KCAL/MOL
REMARK 924 INTRA-LIGAND FREE ENERGY PREDICTED BY IDOCK:   -1.14 KCAL/MOL
REMARK 927      BINDING AFFINITY PREDICTED BY RF-SCORE:    0.00 PKD
ROOT
ATOM      1  C   ALA A   1     -10.770  12.087  64.563  1.00  0.00    -0.358 C  
ATOM      2  C   ALA A   1     -10.265  10.709  64.169  1.00  0.00    -0.365 C  
ATOM      3  CA  ALA A   1      -9.809  10.138  65.521  1.00  0.00    -0.298 C  
ATOM      4  N   ALA A   1     -10.659  10.823  66.534  1.00  0.00    -0.240 N  
ATOM      5  C   ALA A   1      -8.313  10.392  65.718  1.00  0.00    -0.158 C  
ATOM      6  C   ALA A   1     -11.533  11.788  65.859  1.00  0.00    -0.207 C  
ATOM      7  O   ALA A   1      -8.041  11.434  66.534  1.00  0.00    -0.165 OA 
ATOM      8  C   ALA A   1     -11.027  10.264  67.764  1.00  0.00    -0.300 C  
ATOM      9  OXT ALA A   1      -7.443   9.745  65.152  1.00  0.00    -0.110 OA 
ATOM     10  C   ALA A   1     -11.642  12.814  63.558  1.00  0.00    -0.565 C  
ATOM     11  O   ALA A   1     -11.933  10.753  68.442  1.00  0.00    -0.508 OA 
ATOM     12  C   ALA A   1     -11.891  13.116  66.526  1.00  0.00    -0.456 C  
ATOM     13  C   ALA A   1     -12.138  14.128  64.171  1.00  0.00    -0.437 C  
ATOM     14  C   ALA A   1     -12.763  13.945  65.562  1.00  0.00    -0.536 C  
ENDROOT
BRANCH   8  15
ATOM     15  CA  ALA A   1     -10.267   8.973  68.234  1.00  0.00    -0.204 C  
ATOM     16  CB  ALA A   1     -10.871   7.741  67.552  1.00  0.00    -0.182 C  
BRANCH  15  17
ATOM     17  N   ALA A   1     -10.310   8.872  69.706  1.00  0.00    -0.202 NA 
ATOM     18  H   ALA A   1     -10.780   9.687  70.099  1.00  0.00     0.000 HD 
BRANCH  17  19
HETATM   19  C   UNK A   0     -10.915   7.627  70.240  1.00  0.00    -0.252 C  
BRANCH  19  20
HETATM   20  C   UNK A   0      -9.905   6.779  71.042  1.00  0.00    -0.192 C  
BRANCH  20  21
HETATM   21  C   UNK A   0      -9.745   5.348  70.504  1.00  0.00    -0.246 C  
BRANCH  21  22
HETATM   22  C   UNK A   0     -10.096   4.328  71.559  1.00  0.00    -0.205 A  
HETATM   23  C   UNK A   0      -9.725   2.986  71.409  1.00  0.00    -0.219 A  
HETATM   24  C   UNK A   0     -10.763   4.722  72.728  1.00  0.00    -0.282 A  
HETATM   25  C   UNK A   0     -10.029   2.053  72.400  1.00  0.00    -0.213 A  
HETATM   26  C   UNK A   0     -11.068   3.787  73.718  1.00  0.00    -0.285 A  
HETATM   27  C   UNK A   0     -10.702   2.452  73.554  1.00  0.00    -0.266 A  
ENDBRANCH  21  22
ENDBRANCH  20  21
ENDBRANCH  19  20
BRANCH  19  28
HETATM   28  C   UNK A   0     -12.099   7.996  71.158  1.00  0.00    -0.265 C  
HETATM   29  O   UNK A   0     -13.094   7.311  71.339  1.00  0.00    -0.376 OA 
BRANCH  28  30
HETATM   30  O   UNK A   0     -11.913   9.249  71.679  1.00  0.00    -0.330 OA 
BRANCH  30  31
HETATM   31  C   UNK A   0     -13.120   9.967  71.983  1.00  0.00    -0.441 C  
HETATM   32  C   UNK A   0     -12.927  11.416  71.565  1.00  0.00    -0.505 C  
ENDBRANCH  30  31
ENDBRANCH  28  30
ENDBRANCH  19  28
ENDBRANCH  17  19
ENDBRANCH  15  17
ENDBRANCH   8  15
TORSDOF 9
ENDMDL
MODEL       52
REMARK 921   NORMALIZED FREE ENERGY PREDICTED BY IDOCK:   -5.61 KCAL/MOL
REMARK 922        TOTAL FREE ENERGY PREDICTED BY IDOCK:  -10.50 KCAL/MOL
REMARK 923 INTER-LIGAND FREE ENERGY PREDICTED BY IDOCK:   -8.87 KCAL/MOL
REMARK 924 INTRA-LIGAND FREE ENERGY PREDICTED BY IDOCK:   -1.63 KCAL/MOL
REMARK 927      BINDING AFFINITY PREDICTED BY RF-SCORE:    0.00 PKD
ROOT
ATOM      1  C   ALA A   1     -10.075   4.663  71.658  1.00  0.00    -0.258 C  
ATOM      2  C   ALA A   1      -9.385   4.661  70.304  1.00  0.00    -0.218 C  
ATOM      3  CA  ALA A   1      -9.659   6.088  69.805  1.00  0.00    -0.150 C  
ATOM      4  N   ALA A   1      -9.800   6.907  71.040  1.00  0.00    -0.178 N  
ATOM      5  C   ALA A   1     -10.911   6.103  68.925  1.00  0.00    -0.356 C  
ATOM      6  C   ALA A   1      -9.681   6.036  72.214  1.00  0.00    -0.156 C  
ATOM      7  O   ALA A   1     -12.016   6.556  69.558  1.00  0.00    -0.150 OA 
ATOM      8  C   ALA A   1      -9.484   8.268  71.125  1.00  0.00    -0.164 C  
ATOM      9  OXT ALA A   1     -10.925   5.697  67.772  1.00  0.00    -0.181 OA 
ATOM     10  C   ALA A   1      -9.711   3.548  72.619  1.00  0.00    -0.200 C  
ATOM     11  O   ALA A   1      -9.368   8.830  72.216  1.00  0.00    -0.314 OA 
ATOM     12  C   ALA A   1     -10.507   6.305  73.472  1.00  0.00    -0.288 C  
ATOM     13  C   ALA A   1     -10.419   3.778  73.958  1.00  0.00    -0.262 C  
ATOM     14  C   ALA A   1     -10.223   5.198  74.507  1.00  0.00    -0.303 C  
ENDROOT
BRANCH   8  15
ATOM     15  CA  ALA A   1      -9.251   9.048  69.782  1.00  0.00    -0.167 C  
ATOM     16  CB  ALA A   1      -8.166  10.110  69.982  1.00  0.00    -0.060 C  
BRANCH  15  17
ATOM     17  N   ALA A   1     -10.522   9.632  69.312  1.00  0.00    -0.208 NA 
ATOM     18  H   ALA A   1     -11.310   9.117  69.704  1.00  0.00     0.000 HD 
BRANCH  17  19
HETATM   19  C   UNK A   0     -10.686  11.084  69.566  1.00  0.00    -0.183 C  
BRANCH  19  20
HETATM   20  C   UNK A   0     -10.755  11.906  68.261  1.00  0.00    -0.253 C  
BRANCH  20  21
HETATM   21  C   UNK A   0     -10.549  11.060  66.993  1.00  0.00    -0.303 C  
BRANCH  21  22
HETATM   22  C   UNK A   0     -11.025  11.796  65.765  1.00  0.00    -0.353 A  
HETATM   23  C   UNK A   0     -10.480  11.514  64.506  1.00  0.00    -0.369 A  
HETATM   24  C   UNK A   0     -12.052  12.746  65.865  1.00  0.00    -0.485 A  
HETATM   25  C   UNK A   0     -10.941  12.180  63.371  1.00  0.00    -0.480 A  
HETATM   26  C   UNK A   0     -12.511  13.412  64.728  1.00  0.00    -0.416 A  
HETATM   27  C   UNK A   0     -11.956  13.130  63.481  1.00  0.00    -0.580 A  
ENDBRANCH  21  22
ENDBRANCH  20  21
ENDBRANCH  19  20
BRANCH  19  28
HETATM   28  C   UNK A   0     -11.983  11.313  70.370  1.00  0.00    -0.380 C  
HETATM   29  O   UNK A   0     -12.320  12.368  70.884  1.00  0.00    -0.377 OA 
BRANCH  28  30
HETATM   30  O   UNK A   0     -12.666  10.133  70.498  1.00  0.00    -0.280 OA 
BRANCH  30  31
HETATM   31  C   UNK A   0     -13.408   9.988  71.720  1.00  0.00    -0.393 C  
HETATM   32  C   UNK A   0     -12.980   8.690  72.383  1.00  0.00    -0.403 C  
ENDBRANCH  30  31
ENDBRANCH  28  30
ENDBRANCH  19  28
ENDBRANCH  17  19
ENDBRANCH  15  17
ENDBRANCH   8  15
TORSDOF 9
ENDMDL
MODEL       53
REMARK 921   NORMALIZED FREE ENERGY PREDICTED BY IDOCK:   -5.61 KCAL/MOL
REMARK 922        TOTAL FREE ENERGY PREDICTED BY IDOCK:  -10.50 KCAL/MOL
REMARK 923 INTER-LIGAND FREE ENERGY PREDICTED BY IDOCK:   -8.75 KCAL/MOL
REMARK 924 INTRA-LIGAND FREE ENERGY PREDICTED BY IDOCK:   -1.75 KCAL/MOL
REMARK 927      BINDING AFFINITY PREDICTED BY RF-SCORE:    0.00 PKD
ROOT
ATOM      1  C   ALA A   1     -10.721  12.152  64.519  1.00  0.00    -0.353 C  
ATOM      2  C   ALA A   1     -10.127  10.793  64.193  1.00  0.00    -0.418 C  
ATOM      3  CA  ALA A   1      -9.687  10.297  65.579  1.00  0.00    -0.265 C  
ATOM      4  N   ALA A   1     -10.609  10.967  66.537  1.00  0.00    -0.258 N  
ATOM      5  C   ALA A   1      -8.215  10.642  65.815  1.00  0.00    -0.161 C  
ATOM      6  C   ALA A   1     -11.511  11.857  65.799  1.00  0.00    -0.265 C  
ATOM      7  O   ALA A   1      -8.030  11.725  66.601  1.00  0.00    -0.148 OA 
ATOM      8  C   ALA A   1     -10.987  10.432  67.775  1.00  0.00    -0.309 C  
ATOM      9  OXT ALA A   1      -7.292  10.027  65.302  1.00  0.00    -0.125 OA 
ATOM     10  C   ALA A   1     -11.597  12.793  63.460  1.00  0.00    -0.565 C  
ATOM     11  O   ALA A   1     -11.942  10.891  68.405  1.00  0.00    -0.543 OA 
ATOM     12  C   ALA A   1     -11.966  13.184  66.405  1.00  0.00    -0.462 C  
ATOM     13  C   ALA A   1     -12.187  14.097  64.008  1.00  0.00    -0.369 C  
ATOM     14  C   ALA A   1     -12.849  13.928  65.383  1.00  0.00    -0.466 C  
ENDROOT
BRANCH   8  15
ATOM     15  CA  ALA A   1     -10.173   9.203  68.317  1.00  0.00    -0.206 C  
ATOM     16  CB  ALA A   1     -10.749   7.906  67.739  1.00  0.00    -0.189 C  
BRANCH  15  17
ATOM     17  N   ALA A   1     -10.180   9.207  69.793  1.00  0.00    -0.198 NA 
ATOM     18  H   ALA A   1     -10.785   9.951  70.138  1.00  0.00     0.000 HD 
BRANCH  17  19
HETATM   19  C   UNK A   0     -10.546   7.917  70.429  1.00  0.00    -0.228 C  
BRANCH  19  20
HETATM   20  C   UNK A   0      -9.438   7.387  71.362  1.00  0.00    -0.160 C  
BRANCH  20  21
HETATM   21  C   UNK A   0      -9.183   5.877  71.214  1.00  0.00    -0.155 C  
BRANCH  21  22
HETATM   22  C   UNK A   0      -8.912   5.511  69.775  1.00  0.00    -0.143 A  
HETATM   23  C   UNK A   0      -7.829   6.073  69.087  1.00  0.00    -0.099 A  
HETATM   24  C   UNK A   0      -9.718   4.568  69.122  1.00  0.00    -0.250 A  
HETATM   25  C   UNK A   0      -7.568   5.711  67.765  1.00  0.00    -0.089 A  
HETATM   26  C   UNK A   0      -9.455   4.208  67.800  1.00  0.00    -0.225 A  
HETATM   27  C   UNK A   0      -8.381   4.779  67.121  1.00  0.00    -0.106 A  
ENDBRANCH  21  22
ENDBRANCH  20  21
ENDBRANCH  19  20
BRANCH  19  28
HETATM   28  C   UNK A   0     -11.840   8.108  71.248  1.00  0.00    -0.287 C  
HETATM   29  O   UNK A   0     -12.746   7.295  71.339  1.00  0.00    -0.362 OA 
BRANCH  28  30
HETATM   30  O   UNK A   0     -11.866   9.365  71.792  1.00  0.00    -0.367 OA 
BRANCH  30  31
HETATM   31  C   UNK A   0     -13.172   9.955  71.898  1.00  0.00    -0.458 C  
HETATM   32  C   UNK A   0     -13.032  11.454  71.693  1.00  0.00    -0.523 C  
ENDBRANCH  30  31
ENDBRANCH  28  30
ENDBRANCH  19  28
ENDBRANCH  17  19
ENDBRANCH  15  17
ENDBRANCH   8  15
TORSDOF 9
ENDMDL
MODEL       54
REMARK 921   NORMALIZED FREE ENERGY PREDICTED BY IDOCK:   -5.59 KCAL/MOL
REMARK 922        TOTAL FREE ENERGY PREDICTED BY IDOCK:  -10.48 KCAL/MOL
REMARK 923 INTER-LIGAND FREE ENERGY PREDICTED BY IDOCK:   -8.37 KCAL/MOL
REMARK 924 INTRA-LIGAND FREE ENERGY PREDICTED BY IDOCK:   -2.11 KCAL/MOL
REMARK 927      BINDING AFFINITY PREDICTED BY RF-SCORE:    0.00 PKD
ROOT
ATOM      1  C   ALA A   1     -10.913  15.162  66.202  1.00  0.00    -0.331 C  
ATOM      2  C   ALA A   1     -12.280  14.533  66.413  1.00  0.00    -0.274 C  
ATOM      3  CA  ALA A   1     -11.959  13.034  66.310  1.00  0.00    -0.414 C  
ATOM      4  N   ALA A   1     -10.539  12.914  66.745  1.00  0.00    -0.256 N  
ATOM      5  C   ALA A   1     -12.194  12.545  64.879  1.00  0.00    -0.470 C  
ATOM      6  C   ALA A   1     -10.009  14.249  67.038  1.00  0.00    -0.258 C  
ATOM      7  O   ALA A   1     -11.061  12.415  64.155  1.00  0.00    -0.318 OA 
ATOM      8  C   ALA A   1      -9.995  11.778  67.357  1.00  0.00    -0.184 C  
ATOM      9  OXT ALA A   1     -13.307  12.339  64.416  1.00  0.00    -0.786 OA 
ATOM     10  C   ALA A   1     -10.756  16.617  66.601  1.00  0.00    -0.124 C  
ATOM     11  O   ALA A   1      -8.904  11.822  67.930  1.00  0.00    -0.152 OA 
ATOM     12  C   ALA A   1      -8.553  14.595  66.728  1.00  0.00    -0.195 C  
ATOM     13  C   ALA A   1      -9.295  17.041  66.417  1.00  0.00    -0.295 C  
ATOM     14  C   ALA A   1      -8.301  16.075  67.078  1.00  0.00    -0.251 C  
ENDROOT
BRANCH   8  15
ATOM     15  CA  ALA A   1     -10.837  10.454  67.318  1.00  0.00    -0.264 C  
ATOM     16  CB  ALA A   1     -11.275  10.078  68.737  1.00  0.00    -0.173 C  
BRANCH  15  17
ATOM     17  N   ALA A   1     -10.057   9.380  66.672  1.00  0.00    -0.254 NA 
ATOM     18  H   ALA A   1      -9.261   9.777  66.173  1.00  0.00     0.000 HD 
BRANCH  17  19
HETATM   19  C   UNK A   0      -9.602   8.295  67.576  1.00  0.00    -0.154 C  
BRANCH  19  20
HETATM   20  C   UNK A   0      -9.916   6.892  67.016  1.00  0.00    -0.257 C  
BRANCH  20  21
HETATM   21  C   UNK A   0     -11.160   6.245  67.648  1.00  0.00    -0.368 C  
BRANCH  21  22
HETATM   22  C   UNK A   0     -10.943   5.969  69.116  1.00  0.00    -0.429 A  
HETATM   23  C   UNK A   0     -11.674   6.660  70.089  1.00  0.00    -0.412 A  
HETATM   24  C   UNK A   0     -10.032   4.983  69.521  1.00  0.00    -0.302 A  
HETATM   25  C   UNK A   0     -11.487   6.383  71.443  1.00  0.00    -0.363 A  
HETATM   26  C   UNK A   0      -9.846   4.707  70.877  1.00  0.00    -0.272 A  
HETATM   27  C   UNK A   0     -10.573   5.407  71.838  1.00  0.00    -0.288 A  
ENDBRANCH  21  22
ENDBRANCH  20  21
ENDBRANCH  19  20
BRANCH  19  28
HETATM   28  C   UNK A   0      -8.078   8.420  67.786  1.00  0.00    -0.122 C  
HETATM   29  O   UNK A   0      -7.299   8.955  67.012  1.00  0.00    -0.082 OA 
BRANCH  28  30
HETATM   30  O   UNK A   0      -7.710   7.767  68.932  1.00  0.00    -0.108 OA 
BRANCH  30  31
HETATM   31  C   UNK A   0      -8.326   8.254  70.135  1.00  0.00    -0.124 C  
HETATM   32  C   UNK A   0      -7.664   7.566  71.318  1.00  0.00    -0.085 C  
ENDBRANCH  30  31
ENDBRANCH  28  30
ENDBRANCH  19  28
ENDBRANCH  17  19
ENDBRANCH  15  17
ENDBRANCH   8  15
TORSDOF 9
ENDMDL
MODEL       55
REMARK 921   NORMALIZED FREE ENERGY PREDICTED BY IDOCK:   -5.57 KCAL/MOL
REMARK 922        TOTAL FREE ENERGY PREDICTED BY IDOCK:  -10.45 KCAL/MOL
REMARK 923 INTER-LIGAND FREE ENERGY PREDICTED BY IDOCK:   -8.53 KCAL/MOL
REMARK 924 INTRA-LIGAND FREE ENERGY PREDICTED BY IDOCK:   -1.91 KCAL/MOL
REMARK 927      BINDING AFFINITY PREDICTED BY RF-SCORE:    0.00 PKD
ROOT
ATOM      1  C   ALA A   1     -11.763  13.301  65.769  1.00  0.00    -0.395 C  
ATOM      2  C   ALA A   1     -11.456  14.189  66.963  1.00  0.00    -0.370 C  
ATOM      3  CA  ALA A   1     -10.725  13.218  67.903  1.00  0.00    -0.239 C  
ATOM      4  N   ALA A   1     -10.092  12.215  67.002  1.00  0.00    -0.203 N  
ATOM      5  C   ALA A   1     -11.717  12.600  68.891  1.00  0.00    -0.325 C  
ATOM      6  C   ALA A   1     -10.457  12.514  65.613  1.00  0.00    -0.273 C  
ATOM      7  O   ALA A   1     -12.099  11.346  68.566  1.00  0.00    -0.550 OA 
ATOM      8  C   ALA A   1      -8.912  11.522  67.298  1.00  0.00    -0.162 C  
ATOM      9  OXT ALA A   1     -12.161  13.201  69.859  1.00  0.00    -0.314 OA 
ATOM     10  C   ALA A   1     -12.152  13.994  64.477  1.00  0.00    -0.484 C  
ATOM     11  O   ALA A   1      -8.295  10.910  66.424  1.00  0.00    -0.151 OA 
ATOM     12  C   ALA A   1     -10.688  11.386  64.608  1.00  0.00    -0.378 C  
ATOM     13  C   ALA A   1     -12.317  12.949  63.369  1.00  0.00    -0.498 C  
ATOM     14  C   ALA A   1     -11.119  11.995  63.258  1.00  0.00    -0.400 C  
ENDROOT
BRANCH   8  15
ATOM     15  CA  ALA A   1      -8.384  11.579  68.775  1.00  0.00    -0.069 C  
ATOM     16  CB  ALA A   1      -6.868  11.361  68.791  1.00  0.00    -0.082 C  
BRANCH  15  17
ATOM     17  N   ALA A   1      -9.098  10.589  69.604  1.00  0.00    -0.405 NA 
ATOM     18  H   ALA A   1     -10.035  10.433  69.233  1.00  0.00     0.000 HD 
BRANCH  17  19
HETATM   19  C   UNK A   0      -8.401   9.293  69.787  1.00  0.00    -0.142 C  
BRANCH  19  20
HETATM   20  C   UNK A   0      -8.416   8.819  71.256  1.00  0.00    -0.238 C  
BRANCH  20  21
HETATM   21  C   UNK A   0      -9.818   8.827  71.887  1.00  0.00    -0.395 C  
BRANCH  21  22
HETATM   22  C   UNK A   0     -10.138   7.494  72.517  1.00  0.00    -0.262 A  
HETATM   23  C   UNK A   0      -9.626   7.157  73.776  1.00  0.00    -0.309 A  
HETATM   24  C   UNK A   0     -10.990   6.591  71.865  1.00  0.00    -0.288 A  
HETATM   25  C   UNK A   0      -9.946   5.933  74.365  1.00  0.00    -0.279 A  
HETATM   26  C   UNK A   0     -11.308   5.367  72.456  1.00  0.00    -0.286 A  
HETATM   27  C   UNK A   0     -10.786   5.037  73.705  1.00  0.00    -0.369 A  
ENDBRANCH  21  22
ENDBRANCH  20  21
ENDBRANCH  19  20
BRANCH  19  28
HETATM   28  C   UNK A   0      -9.084   8.224  68.909  1.00  0.00    -0.147 C  
HETATM   29  O   UNK A   0     -10.255   8.236  68.563  1.00  0.00    -0.200 OA 
BRANCH  28  30
HETATM   30  O   UNK A   0      -8.205   7.208  68.643  1.00  0.00    -0.123 OA 
BRANCH  30  31
HETATM   31  C   UNK A   0      -8.691   5.889  68.942  1.00  0.00    -0.116 C  
HETATM   32  C   UNK A   0      -7.913   5.358  70.136  1.00  0.00    -0.085 C  
ENDBRANCH  30  31
ENDBRANCH  28  30
ENDBRANCH  19  28
ENDBRANCH  17  19
ENDBRANCH  15  17
ENDBRANCH   8  15
TORSDOF 9
ENDMDL
MODEL       56
REMARK 921   NORMALIZED FREE ENERGY PREDICTED BY IDOCK:   -5.56 KCAL/MOL
REMARK 922        TOTAL FREE ENERGY PREDICTED BY IDOCK:  -10.43 KCAL/MOL
REMARK 923 INTER-LIGAND FREE ENERGY PREDICTED BY IDOCK:   -8.85 KCAL/MOL
REMARK 924 INTRA-LIGAND FREE ENERGY PREDICTED BY IDOCK:   -1.57 KCAL/MOL
REMARK 927      BINDING AFFINITY PREDICTED BY RF-SCORE:    0.00 PKD
ROOT
ATOM      1  C   ALA A   1      -9.697   7.854  66.361  1.00  0.00    -0.235 C  
ATOM      2  C   ALA A   1      -8.670   8.347  65.356  1.00  0.00    -0.175 C  
ATOM      3  CA  ALA A   1      -8.716   9.867  65.572  1.00  0.00    -0.151 C  
ATOM      4  N   ALA A   1      -9.138  10.041  66.989  1.00  0.00    -0.141 N  
ATOM      5  C   ALA A   1      -9.682  10.508  64.572  1.00  0.00    -0.314 C  
ATOM      6  C   ALA A   1      -9.390   8.725  67.584  1.00  0.00    -0.137 C  
ATOM      7  O   ALA A   1     -10.888  10.813  65.100  1.00  0.00    -0.152 OA 
ATOM      8  C   ALA A   1      -8.779  11.132  67.791  1.00  0.00    -0.132 C  
ATOM      9  OXT ALA A   1      -9.408  10.684  63.394  1.00  0.00    -0.238 OA 
ATOM     10  C   ALA A   1      -9.670   6.378  66.707  1.00  0.00    -0.199 C  
ATOM     11  O   ALA A   1      -8.928  11.101  69.014  1.00  0.00    -0.126 OA 
ATOM     12  C   ALA A   1     -10.507   8.533  68.609  1.00  0.00    -0.200 C  
ATOM     13  C   ALA A   1     -10.698   6.093  67.806  1.00  0.00    -0.382 C  
ATOM     14  C   ALA A   1     -10.576   7.044  69.006  1.00  0.00    -0.234 C  
ENDROOT
BRANCH   8  15
ATOM     15  CA  ALA A   1      -8.148  12.382  67.082  1.00  0.00    -0.167 C  
ATOM     16  CB  ALA A   1      -7.163  13.073  68.030  1.00  0.00    -0.119 C  
BRANCH  15  17
ATOM     17  N   ALA A   1      -9.216  13.294  66.627  1.00  0.00    -0.349 NA 
ATOM     18  H   ALA A   1      -9.737  12.869  65.860  1.00  0.00     0.000 HD 
BRANCH  17  19
HETATM   19  C   UNK A   0     -10.150  13.755  67.683  1.00  0.00    -0.242 C  
BRANCH  19  20
HETATM   20  C   UNK A   0     -10.136  15.289  67.852  1.00  0.00    -0.233 C  
BRANCH  20  21
HETATM   21  C   UNK A   0      -9.348  16.019  66.751  1.00  0.00    -0.260 C  
BRANCH  21  22
HETATM   22  C   UNK A   0      -9.519  17.514  66.861  1.00  0.00    -0.278 A  
HETATM   23  C   UNK A   0      -8.782  18.252  67.796  1.00  0.00    -0.263 A  
HETATM   24  C   UNK A   0     -10.390  18.191  65.995  1.00  0.00    -0.360 A  
HETATM   25  C   UNK A   0      -8.926  19.637  67.876  1.00  0.00    -0.385 A  
HETATM   26  C   UNK A   0     -10.533  19.577  66.077  1.00  0.00    -0.611 A  
HETATM   27  C   UNK A   0      -9.802  20.300  67.017  1.00  0.00    -0.607 A  
ENDBRANCH  21  22
ENDBRANCH  20  21
ENDBRANCH  19  20
BRANCH  19  28
HETATM   28  C   UNK A   0     -11.581  13.305  67.322  1.00  0.00    -0.359 C  
HETATM   29  O   UNK A   0     -12.074  12.224  67.604  1.00  0.00    -0.502 OA 
BRANCH  28  30
HETATM   30  O   UNK A   0     -12.194  14.264  66.561  1.00  0.00    -0.441 OA 
BRANCH  30  31
HETATM   31  C   UNK A   0     -12.782  13.788  65.339  1.00  0.00    -0.472 C  
HETATM   32  C   UNK A   0     -11.770  13.978  64.222  1.00  0.00    -0.388 C  
ENDBRANCH  30  31
ENDBRANCH  28  30
ENDBRANCH  19  28
ENDBRANCH  17  19
ENDBRANCH  15  17
ENDBRANCH   8  15
TORSDOF 9
ENDMDL
MODEL       57
REMARK 921   NORMALIZED FREE ENERGY PREDICTED BY IDOCK:   -5.52 KCAL/MOL
REMARK 922        TOTAL FREE ENERGY PREDICTED BY IDOCK:  -10.38 KCAL/MOL
REMARK 923 INTER-LIGAND FREE ENERGY PREDICTED BY IDOCK:   -8.27 KCAL/MOL
REMARK 924 INTRA-LIGAND FREE ENERGY PREDICTED BY IDOCK:   -2.11 KCAL/MOL
REMARK 927      BINDING AFFINITY PREDICTED BY RF-SCORE:    0.00 PKD
ROOT
ATOM      1  C   ALA A   1     -10.316  12.879  66.002  1.00  0.00    -0.294 C  
ATOM      2  C   ALA A   1     -10.625  11.413  65.748  1.00  0.00    -0.315 C  
ATOM      3  CA  ALA A   1     -10.582  10.828  67.168  1.00  0.00    -0.256 C  
ATOM      4  N   ALA A   1     -10.953  11.960  68.061  1.00  0.00    -0.211 N  
ATOM      5  C   ALA A   1      -9.191  10.261  67.458  1.00  0.00    -0.141 C  
ATOM      6  C   ALA A   1     -11.151  13.168  67.254  1.00  0.00    -0.279 C  
ATOM      7  O   ALA A   1      -8.420  11.072  68.215  1.00  0.00    -0.125 OA 
ATOM      8  C   ALA A   1     -11.594  11.813  69.297  1.00  0.00    -0.315 C  
ATOM      9  OXT ALA A   1      -8.794   9.196  67.008  1.00  0.00    -0.122 OA 
ATOM     10  C   ALA A   1     -10.633  13.853  64.884  1.00  0.00    -0.436 C  
ATOM     11  O   ALA A   1     -12.109  12.777  69.868  1.00  0.00    -0.308 OA 
ATOM     12  C   ALA A   1     -10.753  14.542  67.794  1.00  0.00    -0.256 C  
ATOM     13  C   ALA A   1     -10.357  15.283  65.361  1.00  0.00    -0.421 C  
ATOM     14  C   ALA A   1     -11.016  15.605  66.710  1.00  0.00    -0.230 C  
ENDROOT
BRANCH   8  15
ATOM     15  CA  ALA A   1     -11.663  10.372  69.916  1.00  0.00    -0.264 C  
ATOM     16  CB  ALA A   1     -12.963  10.211  70.709  1.00  0.00    -0.380 C  
BRANCH  15  17
ATOM     17  N   ALA A   1     -10.469  10.123  70.748  1.00  0.00    -0.351 NA 
ATOM     18  H   ALA A   1     -10.569  10.587  71.651  1.00  0.00     0.000 HD 
BRANCH  17  19
HETATM   19  C   UNK A   0     -10.118   8.696  70.945  1.00  0.00    -0.211 C  
BRANCH  19  20
HETATM   20  C   UNK A   0     -10.483   7.827  69.723  1.00  0.00    -0.233 C  
BRANCH  20  21
HETATM   21  C   UNK A   0     -11.493   6.713  70.044  1.00  0.00    -0.434 C  
BRANCH  21  22
HETATM   22  C   UNK A   0     -10.995   5.833  71.165  1.00  0.00    -0.295 A  
HETATM   23  C   UNK A   0     -11.709   5.732  72.365  1.00  0.00    -0.281 A  
HETATM   24  C   UNK A   0      -9.830   5.072  71.000  1.00  0.00    -0.266 A  
HETATM   25  C   UNK A   0     -11.257   4.898  73.388  1.00  0.00    -0.415 A  
HETATM   26  C   UNK A   0      -9.379   4.239  72.025  1.00  0.00    -0.180 A  
HETATM   27  C   UNK A   0     -10.091   4.152  73.219  1.00  0.00    -0.200 A  
ENDBRANCH  21  22
ENDBRANCH  20  21
ENDBRANCH  19  20
BRANCH  19  28
HETATM   28  C   UNK A   0      -8.601   8.580  71.205  1.00  0.00    -0.176 C  
HETATM   29  O   UNK A   0      -7.767   8.228  70.386  1.00  0.00    -0.079 OA 
BRANCH  28  30
HETATM   30  O   UNK A   0      -8.333   8.850  72.521  1.00  0.00    -0.388 OA 
BRANCH  30  31
HETATM   31  C   UNK A   0      -8.951   7.958  73.464  1.00  0.00    -0.281 C  
HETATM   32  C   UNK A   0      -7.888   7.002  73.978  1.00  0.00    -0.126 C  
ENDBRANCH  30  31
ENDBRANCH  28  30
ENDBRANCH  19  28
ENDBRANCH  17  19
ENDBRANCH  15  17
ENDBRANCH   8  15
TORSDOF 9
ENDMDL
MODEL       58
REMARK 921   NORMALIZED FREE ENERGY PREDICTED BY IDOCK:   -5.45 KCAL/MOL
REMARK 922        TOTAL FREE ENERGY PREDICTED BY IDOCK:  -10.27 KCAL/MOL
REMARK 923 INTER-LIGAND FREE ENERGY PREDICTED BY IDOCK:   -8.58 KCAL/MOL
REMARK 924 INTRA-LIGAND FREE ENERGY PREDICTED BY IDOCK:   -1.69 KCAL/MOL
REMARK 927      BINDING AFFINITY PREDICTED BY RF-SCORE:    0.00 PKD
ROOT
ATOM      1  C   ALA A   1      -8.745  19.202  67.170  1.00  0.00    -0.306 C  
ATOM      2  C   ALA A   1     -10.204  19.192  66.746  1.00  0.00    -0.482 C  
ATOM      3  CA  ALA A   1     -10.549  17.697  66.824  1.00  0.00    -0.224 C  
ATOM      4  N   ALA A   1      -9.631  17.145  67.859  1.00  0.00    -0.260 N  
ATOM      5  C   ALA A   1     -10.370  17.047  65.451  1.00  0.00    -0.063 C  
ATOM      6  C   ALA A   1      -8.746  18.211  68.339  1.00  0.00    -0.291 C  
ATOM      7  O   ALA A   1      -9.219  16.351  65.323  1.00  0.00    -0.166 OA 
ATOM      8  C   ALA A   1      -9.927  16.043  68.670  1.00  0.00    -0.220 C  
ATOM      9  OXT ALA A   1     -11.170  17.183  64.536  1.00  0.00    -1.104 OA 
ATOM     10  C   ALA A   1      -8.154  20.539  67.573  1.00  0.00    -0.304 C  
ATOM     11  O   ALA A   1      -9.260  15.791  69.675  1.00  0.00    -0.265 OA 
ATOM     12  C   ALA A   1      -7.297  17.910  68.720  1.00  0.00    -0.271 C  
ATOM     13  C   ALA A   1      -6.719  20.333  68.067  1.00  0.00    -0.330 C  
ATOM     14  C   ALA A   1      -6.598  19.224  69.123  1.00  0.00    -0.342 C  
ENDROOT
BRANCH   8  15
ATOM     15  CA  ALA A   1     -11.161  15.156  68.273  1.00  0.00    -0.308 C  
ATOM     16  CB  ALA A   1     -11.746  14.494  69.524  1.00  0.00    -0.361 C  
BRANCH  15  17
ATOM     17  N   ALA A   1     -10.763  14.166  67.253  1.00  0.00    -0.277 NA 
ATOM     18  H   ALA A   1      -9.826  14.376  66.909  1.00  0.00     0.000 HD 
BRANCH  17  19
HETATM   19  C   UNK A   0     -10.842  12.748  67.681  1.00  0.00    -0.228 C  
BRANCH  19  20
HETATM   20  C   UNK A   0     -11.327  11.818  66.549  1.00  0.00    -0.370 C  
BRANCH  20  21
HETATM   21  C   UNK A   0     -10.875  10.358  66.719  1.00  0.00    -0.186 C  
BRANCH  21  22
HETATM   22  C   UNK A   0     -10.000   9.923  65.570  1.00  0.00    -0.363 A  
HETATM   23  C   UNK A   0      -9.916  10.693  64.403  1.00  0.00    -0.415 A  
HETATM   24  C   UNK A   0      -9.224   8.760  65.675  1.00  0.00    -0.244 A  
HETATM   25  C   UNK A   0      -9.085  10.298  63.355  1.00  0.00    -0.284 A  
HETATM   26  C   UNK A   0      -8.394   8.366  64.624  1.00  0.00    -0.137 A  
HETATM   27  C   UNK A   0      -8.324   9.135  63.464  1.00  0.00    -0.188 A  
ENDBRANCH  21  22
ENDBRANCH  20  21
ENDBRANCH  19  20
BRANCH  19  28
HETATM   28  C   UNK A   0      -9.446  12.282  68.146  1.00  0.00    -0.213 C  
HETATM   29  O   UNK A   0      -9.225  11.562  69.107  1.00  0.00     0.044 OA 
BRANCH  28  30
HETATM   30  O   UNK A   0      -8.478  12.866  67.373  1.00  0.00    -0.176 OA 
BRANCH  30  31
HETATM   31  C   UNK A   0      -7.135  12.438  67.653  1.00  0.00    -0.133 C  
HETATM   32  C   UNK A   0      -6.732  11.423  66.596  1.00  0.00    -0.112 C  
ENDBRANCH  30  31
ENDBRANCH  28  30
ENDBRANCH  19  28
ENDBRANCH  17  19
ENDBRANCH  15  17
ENDBRANCH   8  15
TORSDOF 9
ENDMDL
MODEL       59
REMARK 921   NORMALIZED FREE ENERGY PREDICTED BY IDOCK:   -5.44 KCAL/MOL
REMARK 922        TOTAL FREE ENERGY PREDICTED BY IDOCK:  -10.25 KCAL/MOL
REMARK 923 INTER-LIGAND FREE ENERGY PREDICTED BY IDOCK:   -8.71 KCAL/MOL
REMARK 924 INTRA-LIGAND FREE ENERGY PREDICTED BY IDOCK:   -1.53 KCAL/MOL
REMARK 927      BINDING AFFINITY PREDICTED BY RF-SCORE:    0.00 PKD
ROOT
ATOM      1  C   ALA A   1     -10.501  17.759  68.462  1.00  0.00    -0.332 C  
ATOM      2  C   ALA A   1      -9.880  17.133  69.700  1.00  0.00     0.257 C  
ATOM      3  CA  ALA A   1      -9.978  15.633  69.381  1.00  0.00    -0.279 C  
ATOM      4  N   ALA A   1      -9.950  15.554  67.894  1.00  0.00    -0.218 N  
ATOM      5  C   ALA A   1     -11.255  15.051  69.991  1.00  0.00    -0.271 C  
ATOM      6  C   ALA A   1      -9.898  16.910  67.338  1.00  0.00    -0.261 C  
ATOM      7  O   ALA A   1     -12.257  14.884  69.101  1.00  0.00    -0.250 OA 
ATOM      8  C   ALA A   1      -9.447  14.465  67.171  1.00  0.00    -0.222 C  
ATOM      9  OXT ALA A   1     -11.376  14.805  71.183  1.00  0.00    -0.253 OA 
ATOM     10  C   ALA A   1     -10.249  19.238  68.240  1.00  0.00    -0.513 C  
ATOM     11  O   ALA A   1      -9.205  14.556  65.966  1.00  0.00    -0.208 OA 
ATOM     12  C   ALA A   1     -10.621  17.248  66.035  1.00  0.00    -0.217 C  
ATOM     13  C   ALA A   1     -10.858  19.662  66.899  1.00  0.00    -0.505 C  
ATOM     14  C   ALA A   1     -10.444  18.749  65.735  1.00  0.00    -0.317 C  
ENDROOT
BRANCH   8  15
ATOM     15  CA  ALA A   1      -9.171  13.134  67.956  1.00  0.00    -0.211 C  
ATOM     16  CB  ALA A   1      -7.823  12.549  67.523  1.00  0.00    -0.168 C  
BRANCH  15  17
ATOM     17  N   ALA A   1     -10.283  12.186  67.747  1.00  0.00    -0.197 NA 
ATOM     18  H   ALA A   1     -11.042  12.643  67.242  1.00  0.00     0.000 HD 
BRANCH  17  19
HETATM   19  C   UNK A   0      -9.916  10.916  67.073  1.00  0.00    -0.192 C  
BRANCH  19  20
HETATM   20  C   UNK A   0     -10.559   9.686  67.746  1.00  0.00    -0.320 C  
BRANCH  20  21
HETATM   21  C   UNK A   0      -9.991   9.385  69.143  1.00  0.00    -0.184 C  
BRANCH  21  22
HETATM   22  C   UNK A   0     -11.096   9.098  70.129  1.00  0.00    -0.248 A  
HETATM   23  C   UNK A   0     -11.472   7.780  70.418  1.00  0.00    -0.171 A  
HETATM   24  C   UNK A   0     -11.733  10.150  70.802  1.00  0.00    -0.446 A  
HETATM   25  C   UNK A   0     -12.477   7.519  71.349  1.00  0.00    -0.382 A  
HETATM   26  C   UNK A   0     -12.740   9.887  71.733  1.00  0.00    -0.523 A  
HETATM   27  C   UNK A   0     -13.112   8.572  72.006  1.00  0.00    -0.403 A  
ENDBRANCH  21  22
ENDBRANCH  20  21
ENDBRANCH  19  20
BRANCH  19  28
HETATM   28  C   UNK A   0     -10.372  10.977  65.600  1.00  0.00    -0.251 C  
HETATM   29  O   UNK A   0      -9.856  10.371  64.674  1.00  0.00    -0.299 OA 
BRANCH  28  30
HETATM   30  O   UNK A   0     -11.394  11.879  65.465  1.00  0.00    -0.322 OA 
BRANCH  30  31
HETATM   31  C   UNK A   0     -11.986  11.937  64.157  1.00  0.00    -0.307 C  
HETATM   32  C   UNK A   0     -11.971  13.385  63.695  1.00  0.00    -0.504 C  
ENDBRANCH  30  31
ENDBRANCH  28  30
ENDBRANCH  19  28
ENDBRANCH  17  19
ENDBRANCH  15  17
ENDBRANCH   8  15
TORSDOF 9
ENDMDL
MODEL       60
REMARK 921   NORMALIZED FREE ENERGY PREDICTED BY IDOCK:   -5.41 KCAL/MOL
REMARK 922        TOTAL FREE ENERGY PREDICTED BY IDOCK:  -10.20 KCAL/MOL
REMARK 923 INTER-LIGAND FREE ENERGY PREDICTED BY IDOCK:   -8.67 KCAL/MOL
REMARK 924 INTRA-LIGAND FREE ENERGY PREDICTED BY IDOCK:   -1.53 KCAL/MOL
REMARK 927      BINDING AFFINITY PREDICTED BY RF-SCORE:    0.00 PKD
ROOT
ATOM      1  C   ALA A   1      -8.440  17.463  66.941  1.00  0.00    -0.264 C  
ATOM      2  C   ALA A   1      -7.509  16.273  66.781  1.00  0.00    -0.266 C  
ATOM      3  CA  ALA A   1      -8.496  15.095  66.773  1.00  0.00    -0.237 C  
ATOM      4  N   ALA A   1      -9.766  15.663  66.240  1.00  0.00    -0.277 N  
ATOM      5  C   ALA A   1      -8.637  14.521  68.184  1.00  0.00    -0.169 C  
ATOM      6  C   ALA A   1      -9.590  17.098  65.996  1.00  0.00    -0.163 C  
ATOM      7  O   ALA A   1      -9.759  14.918  68.824  1.00  0.00    -0.213 OA 
ATOM      8  C   ALA A   1     -10.721  14.928  65.527  1.00  0.00    -0.356 C  
ATOM      9  OXT ALA A   1      -7.792  13.807  68.704  1.00  0.00    -0.136 OA 
ATOM     10  C   ALA A   1      -7.870  18.831  66.621  1.00  0.00    -0.275 C  
ATOM     11  O   ALA A   1     -11.614  15.490  64.889  1.00  0.00    -0.297 OA 
ATOM     12  C   ALA A   1     -10.740  18.076  66.231  1.00  0.00    -0.134 C  
ATOM     13  C   ALA A   1      -8.977  19.884  66.736  1.00  0.00    -0.444 C  
ATOM     14  C   ALA A   1     -10.245  19.510  65.955  1.00  0.00    -0.567 C  
ENDROOT
BRANCH   8  15
ATOM     15  CA  ALA A   1     -10.596  13.363  65.541  1.00  0.00    -0.290 C  
ATOM     16  CB  ALA A   1     -10.546  12.835  64.103  1.00  0.00    -0.441 C  
BRANCH  15  17
ATOM     17  N   ALA A   1     -11.709  12.775  66.311  1.00  0.00    -0.382 NA 
ATOM     18  H   ALA A   1     -12.499  12.583  65.695  1.00  0.00     0.000 HD 
BRANCH  17  19
HETATM   19  C   UNK A   0     -11.368  11.563  67.096  1.00  0.00    -0.284 C  
BRANCH  19  20
HETATM   20  C   UNK A   0      -9.860  11.242  67.057  1.00  0.00    -0.217 C  
BRANCH  20  21
HETATM   21  C   UNK A   0      -9.538   9.894  66.390  1.00  0.00    -0.255 C  
BRANCH  21  22
HETATM   22  C   UNK A   0      -9.592   8.766  67.391  1.00  0.00    -0.206 A  
HETATM   23  C   UNK A   0      -8.821   8.810  68.560  1.00  0.00    -0.138 A  
HETATM   24  C   UNK A   0     -10.450   7.677  67.183  1.00  0.00    -0.412 A  
HETATM   25  C   UNK A   0      -8.893   7.777  69.494  1.00  0.00    -0.139 A  
HETATM   26  C   UNK A   0     -10.520   6.643  68.119  1.00  0.00    -0.257 A  
HETATM   27  C   UNK A   0      -9.742   6.692  69.273  1.00  0.00    -0.151 A  
ENDBRANCH  21  22
ENDBRANCH  20  21
ENDBRANCH  19  20
BRANCH  19  28
HETATM   28  C   UNK A   0     -11.797  11.776  68.563  1.00  0.00    -0.303 C  
HETATM   29  O   UNK A   0     -11.954  12.859  69.105  1.00  0.00    -0.298 OA 
BRANCH  28  30
HETATM   30  O   UNK A   0     -11.893  10.568  69.201  1.00  0.00    -0.239 OA 
BRANCH  30  31
HETATM   31  C   UNK A   0     -11.462  10.566  70.572  1.00  0.00    -0.345 C  
HETATM   32  C   UNK A   0     -12.581   9.983  71.419  1.00  0.00    -0.518 C  
ENDBRANCH  30  31
ENDBRANCH  28  30
ENDBRANCH  19  28
ENDBRANCH  17  19
ENDBRANCH  15  17
ENDBRANCH   8  15
TORSDOF 9
ENDMDL
MODEL       61
REMARK 921   NORMALIZED FREE ENERGY PREDICTED BY IDOCK:   -5.41 KCAL/MOL
REMARK 922        TOTAL FREE ENERGY PREDICTED BY IDOCK:  -10.20 KCAL/MOL
REMARK 923 INTER-LIGAND FREE ENERGY PREDICTED BY IDOCK:   -8.77 KCAL/MOL
REMARK 924 INTRA-LIGAND FREE ENERGY PREDICTED BY IDOCK:   -1.43 KCAL/MOL
REMARK 927      BINDING AFFINITY PREDICTED BY RF-SCORE:    0.00 PKD
ROOT
ATOM      1  C   ALA A   1      -9.475   6.906  72.444  1.00  0.00    -0.153 C  
ATOM      2  C   ALA A   1      -8.783   8.247  72.622  1.00  0.00    -0.291 C  
ATOM      3  CA  ALA A   1      -9.532   9.129  71.611  1.00  0.00    -0.113 C  
ATOM      4  N   ALA A   1     -10.887   8.521  71.501  1.00  0.00    -0.244 N  
ATOM      5  C   ALA A   1      -8.775   9.159  70.282  1.00  0.00    -0.200 C  
ATOM      6  C   ALA A   1     -10.947   7.319  72.339  1.00  0.00    -0.267 C  
ATOM      7  O   ALA A   1      -9.301   8.348  69.337  1.00  0.00    -0.153 OA 
ATOM      8  C   ALA A   1     -12.051   9.237  71.194  1.00  0.00    -0.316 C  
ATOM      9  OXT ALA A   1      -7.760   9.818  70.103  1.00  0.00    -0.150 OA 
ATOM     10  C   ALA A   1      -9.263   5.872  73.532  1.00  0.00    -0.131 C  
ATOM     11  O   ALA A   1     -13.168   8.747  71.372  1.00  0.00    -0.316 OA 
ATOM     12  C   ALA A   1     -11.761   6.102  71.899  1.00  0.00    -0.337 C  
ATOM     13  C   ALA A   1     -10.118   4.636  73.233  1.00  0.00    -0.201 C  
ATOM     14  C   ALA A   1     -11.586   4.977  72.938  1.00  0.00    -0.261 C  
ENDROOT
BRANCH   8  15
ATOM     15  CA  ALA A   1     -11.884  10.698  70.644  1.00  0.00    -0.363 C  
ATOM     16  CB  ALA A   1     -12.776  11.655  71.441  1.00  0.00    -0.445 C  
BRANCH  15  17
ATOM     17  N   ALA A   1     -12.183  10.730  69.199  1.00  0.00    -0.716 NA 
ATOM     18  H   ALA A   1     -12.972  11.351  69.019  1.00  0.00     0.000 HD 
BRANCH  17  19
HETATM   19  C   UNK A   0     -11.042  11.089  68.322  1.00  0.00    -0.257 C  
BRANCH  19  20
HETATM   20  C   UNK A   0     -11.194  10.521  66.896  1.00  0.00     0.003 C  
BRANCH  20  21
HETATM   21  C   UNK A   0      -9.963   9.734  66.416  1.00  0.00    -0.314 C  
BRANCH  21  22
HETATM   22  C   UNK A   0      -9.620  10.080  64.988  1.00  0.00    -0.362 A  
HETATM   23  C   UNK A   0     -10.382  11.015  64.276  1.00  0.00    -0.430 A  
HETATM   24  C   UNK A   0      -8.504   9.499  64.368  1.00  0.00    -0.191 A  
HETATM   25  C   UNK A   0     -10.045  11.350  62.964  1.00  0.00    -0.333 A  
HETATM   26  C   UNK A   0      -8.169   9.835  63.055  1.00  0.00    -0.152 A  
HETATM   27  C   UNK A   0      -8.939  10.759  62.353  1.00  0.00    -0.347 A  
ENDBRANCH  21  22
ENDBRANCH  20  21
ENDBRANCH  19  20
BRANCH  19  28
HETATM   28  C   UNK A   0     -10.933  12.626  68.240  1.00  0.00    -0.248 C  
HETATM   29  O   UNK A   0      -9.947  13.283  68.534  1.00  0.00    -0.234 OA 
BRANCH  28  30
HETATM   30  O   UNK A   0     -12.139  13.159  67.867  1.00  0.00    -0.321 OA 
BRANCH  30  31
HETATM   31  C   UNK A   0     -12.059  14.270  66.958  1.00  0.00    -0.390 C  
HETATM   32  C   UNK A   0     -12.738  13.869  65.660  1.00  0.00    -0.534 C  
ENDBRANCH  30  31
ENDBRANCH  28  30
ENDBRANCH  19  28
ENDBRANCH  17  19
ENDBRANCH  15  17
ENDBRANCH   8  15
TORSDOF 9
ENDMDL
MODEL       62
REMARK 921   NORMALIZED FREE ENERGY PREDICTED BY IDOCK:   -5.38 KCAL/MOL
REMARK 922        TOTAL FREE ENERGY PREDICTED BY IDOCK:  -10.16 KCAL/MOL
REMARK 923 INTER-LIGAND FREE ENERGY PREDICTED BY IDOCK:   -8.59 KCAL/MOL
REMARK 924 INTRA-LIGAND FREE ENERGY PREDICTED BY IDOCK:   -1.56 KCAL/MOL
REMARK 927      BINDING AFFINITY PREDICTED BY RF-SCORE:    0.00 PKD
ROOT
ATOM      1  C   ALA A   1      -9.370   8.324  66.773  1.00  0.00    -0.232 C  
ATOM      2  C   ALA A   1     -10.640   8.426  67.599  1.00  0.00    -0.265 C  
ATOM      3  CA  ALA A   1     -10.884   9.943  67.622  1.00  0.00    -0.257 C  
ATOM      4  N   ALA A   1     -10.266  10.450  66.366  1.00  0.00    -0.232 N  
ATOM      5  C   ALA A   1     -10.271  10.552  68.885  1.00  0.00    -0.208 C  
ATOM      6  C   ALA A   1      -9.636   9.334  65.652  1.00  0.00    -0.254 C  
ATOM      7  O   ALA A   1      -9.085  11.163  68.673  1.00  0.00    -0.170 OA 
ATOM      8  C   ALA A   1     -10.703  11.586  65.674  1.00  0.00    -0.267 C  
ATOM      9  OXT ALA A   1     -10.781  10.454  69.992  1.00  0.00    -0.277 OA 
ATOM     10  C   ALA A   1      -9.018   6.957  66.217  1.00  0.00    -0.172 C  
ATOM     11  O   ALA A   1     -10.337  11.810  64.519  1.00  0.00    -0.263 OA 
ATOM     12  C   ALA A   1      -8.340   9.542  64.869  1.00  0.00    -0.151 C  
ATOM     13  C   ALA A   1      -7.774   7.073  65.330  1.00  0.00    -0.114 C  
ATOM     14  C   ALA A   1      -7.884   8.191  64.283  1.00  0.00    -0.137 C  
ENDROOT
BRANCH   8  15
ATOM     15  CA  ALA A   1     -11.703  12.547  66.409  1.00  0.00    -0.397 C  
ATOM     16  CB  ALA A   1     -12.592  13.253  65.381  1.00  0.00    -0.526 C  
BRANCH  15  17
ATOM     17  N   ALA A   1     -10.956  13.504  67.249  1.00  0.00    -0.276 NA 
ATOM     18  H   ALA A   1     -10.410  13.002  67.950  1.00  0.00     0.000 HD 
BRANCH  17  19
HETATM   19  C   UNK A   0     -10.088  14.454  66.512  1.00  0.00    -0.276 C  
BRANCH  19  20
HETATM   20  C   UNK A   0     -10.761  15.827  66.305  1.00  0.00    -0.282 C  
BRANCH  20  21
HETATM   21  C   UNK A   0     -10.976  16.606  67.614  1.00  0.00    -0.193 C  
BRANCH  21  22
HETATM   22  C   UNK A   0     -10.527  18.039  67.474  1.00  0.00    -0.408 A  
HETATM   23  C   UNK A   0      -9.997  18.733  68.569  1.00  0.00    -0.450 A  
HETATM   24  C   UNK A   0     -10.596  18.683  66.230  1.00  0.00    -0.396 A  
HETATM   25  C   UNK A   0      -9.559  20.050  68.427  1.00  0.00    -0.343 A  
HETATM   26  C   UNK A   0     -10.159  20.001  66.090  1.00  0.00    -0.588 A  
HETATM   27  C   UNK A   0      -9.641  20.685  67.188  1.00  0.00    -0.534 A  
ENDBRANCH  21  22
ENDBRANCH  20  21
ENDBRANCH  19  20
BRANCH  19  28
HETATM   28  C   UNK A   0      -8.776  14.653  67.298  1.00  0.00    -0.208 C  
HETATM   29  O   UNK A   0      -8.562  14.250  68.431  1.00  0.00    -0.165 OA 
BRANCH  28  30
HETATM   30  O   UNK A   0      -7.909  15.425  66.572  1.00  0.00    -0.078 OA 
BRANCH  30  31
HETATM   31  C   UNK A   0      -7.231  16.448  67.319  1.00  0.00    -0.175 C  
HETATM   32  C   UNK A   0      -6.777  17.523  66.346  1.00  0.00    -0.297 C  
ENDBRANCH  30  31
ENDBRANCH  28  30
ENDBRANCH  19  28
ENDBRANCH  17  19
ENDBRANCH  15  17
ENDBRANCH   8  15
TORSDOF 9
ENDMDL
MODEL       63
REMARK 921   NORMALIZED FREE ENERGY PREDICTED BY IDOCK:   -5.36 KCAL/MOL
REMARK 922        TOTAL FREE ENERGY PREDICTED BY IDOCK:  -10.13 KCAL/MOL
REMARK 923 INTER-LIGAND FREE ENERGY PREDICTED BY IDOCK:   -8.96 KCAL/MOL
REMARK 924 INTRA-LIGAND FREE ENERGY PREDICTED BY IDOCK:   -1.17 KCAL/MOL
REMARK 927      BINDING AFFINITY PREDICTED BY RF-SCORE:    0.00 PKD
ROOT
ATOM      1  C   ALA A   1      -7.813   5.789  69.887  1.00  0.00    -0.088 C  
ATOM      2  C   ALA A   1      -7.551   6.639  71.118  1.00  0.00    -0.089 C  
ATOM      3  CA  ALA A   1      -8.662   7.696  71.018  1.00  0.00    -0.137 C  
ATOM      4  N   ALA A   1      -9.766   7.024  70.278  1.00  0.00    -0.176 N  
ATOM      5  C   ALA A   1      -8.133   8.945  70.310  1.00  0.00    -0.123 C  
ATOM      6  C   ALA A   1      -9.342   5.672  69.898  1.00  0.00    -0.147 C  
ATOM      7  O   ALA A   1      -8.503   9.033  69.014  1.00  0.00    -0.128 OA 
ATOM      8  C   ALA A   1     -11.123   7.329  70.437  1.00  0.00    -0.268 C  
ATOM      9  OXT ALA A   1      -7.404   9.763  70.851  1.00  0.00    -0.321 OA 
ATOM     10  C   ALA A   1      -7.151   4.426  69.837  1.00  0.00    -0.046 C  
ATOM     11  O   ALA A   1     -12.001   6.578  70.007  1.00  0.00    -0.358 OA 
ATOM     12  C   ALA A   1      -9.791   5.057  68.573  1.00  0.00    -0.216 C  
ATOM     13  C   ALA A   1      -7.615   3.680  68.581  1.00  0.00    -0.053 C  
ATOM     14  C   ALA A   1      -9.142   3.667  68.418  1.00  0.00    -0.200 C  
ENDROOT
BRANCH   8  15
ATOM     15  CA  ALA A   1     -11.489   8.644  71.212  1.00  0.00    -0.283 C  
ATOM     16  CB  ALA A   1     -12.159   8.291  72.544  1.00  0.00    -0.400 C  
BRANCH  15  17
ATOM     17  N   ALA A   1     -12.343   9.504  70.370  1.00  0.00    -0.477 NA 
ATOM     18  H   ALA A   1     -13.303   9.487  70.712  1.00  0.00     0.000 HD 
BRANCH  17  19
HETATM   19  C   UNK A   0     -11.881  10.906  70.220  1.00  0.00    -0.361 C  
BRANCH  19  20
HETATM   20  C   UNK A   0     -12.106  11.451  68.794  1.00  0.00    -0.256 C  
BRANCH  20  21
HETATM   21  C   UNK A   0     -10.810  11.899  68.098  1.00  0.00    -0.259 C  
BRANCH  21  22
HETATM   22  C   UNK A   0     -10.951  11.842  66.597  1.00  0.00    -0.342 A  
HETATM   23  C   UNK A   0     -11.818  12.714  65.926  1.00  0.00    -0.499 A  
HETATM   24  C   UNK A   0     -10.181  10.939  65.850  1.00  0.00    -0.314 A  
HETATM   25  C   UNK A   0     -11.924  12.673  64.536  1.00  0.00    -0.464 A  
HETATM   26  C   UNK A   0     -10.290  10.899  64.459  1.00  0.00    -0.417 A  
HETATM   27  C   UNK A   0     -11.162  11.765  63.802  1.00  0.00    -0.518 A  
ENDBRANCH  21  22
ENDBRANCH  20  21
ENDBRANCH  19  20
BRANCH  19  28
HETATM   28  C   UNK A   0     -12.644  11.798  71.222  1.00  0.00    -0.296 C  
HETATM   29  O   UNK A   0     -13.402  11.397  72.092  1.00  0.00    -0.469 OA 
BRANCH  28  30
HETATM   30  O   UNK A   0     -12.414  13.118  70.941  1.00  0.00    -0.362 OA 
BRANCH  30  31
HETATM   31  C   UNK A   0     -13.281  14.045  71.615  1.00  0.00    -0.368 C  
HETATM   32  C   UNK A   0     -13.138  15.401  70.944  1.00  0.00    -0.528 C  
ENDBRANCH  30  31
ENDBRANCH  28  30
ENDBRANCH  19  28
ENDBRANCH  17  19
ENDBRANCH  15  17
ENDBRANCH   8  15
TORSDOF 9
ENDMDL
MODEL       64
REMARK 921   NORMALIZED FREE ENERGY PREDICTED BY IDOCK:   -5.36 KCAL/MOL
REMARK 922        TOTAL FREE ENERGY PREDICTED BY IDOCK:  -10.13 KCAL/MOL
REMARK 923 INTER-LIGAND FREE ENERGY PREDICTED BY IDOCK:   -8.62 KCAL/MOL
REMARK 924 INTRA-LIGAND FREE ENERGY PREDICTED BY IDOCK:   -1.51 KCAL/MOL
REMARK 927      BINDING AFFINITY PREDICTED BY RF-SCORE:    0.00 PKD
ROOT
ATOM      1  C   ALA A   1      -6.626  10.055  68.029  1.00  0.00    -0.063 C  
ATOM      2  C   ALA A   1      -6.933  10.899  69.254  1.00  0.00    -0.112 C  
ATOM      3  CA  ALA A   1      -8.148  11.714  68.784  1.00  0.00    -0.072 C  
ATOM      4  N   ALA A   1      -8.811  10.858  67.761  1.00  0.00    -0.133 N  
ATOM      5  C   ALA A   1      -7.690  13.066  68.234  1.00  0.00    -0.141 C  
ATOM      6  C   ALA A   1      -8.027   9.633  67.573  1.00  0.00    -0.106 C  
ATOM      7  O   ALA A   1      -7.652  13.120  66.884  1.00  0.00     0.047 OA 
ATOM      8  C   ALA A   1     -10.183  10.878  67.484  1.00  0.00    -0.190 C  
ATOM      9  OXT ALA A   1      -7.343  13.997  68.947  1.00  0.00    -0.121 OA 
ATOM     10  C   ALA A   1      -5.720   8.855  68.229  1.00  0.00    -0.038 C  
ATOM     11  O   ALA A   1     -10.716   9.980  66.829  1.00  0.00    -0.187 OA 
ATOM     12  C   ALA A   1      -7.913   8.983  66.195  1.00  0.00    -0.103 C  
ATOM     13  C   ALA A   1      -5.615   8.073  66.916  1.00  0.00    -0.033 C  
ATOM     14  C   ALA A   1      -6.981   7.758  66.291  1.00  0.00    -0.063 C  
ENDROOT
BRANCH   8  15
ATOM     15  CA  ALA A   1     -11.027  12.067  68.067  1.00  0.00    -0.223 C  
ATOM     16  CB  ALA A   1     -11.537  11.703  69.465  1.00  0.00    -0.397 C  
BRANCH  15  17
ATOM     17  N   ALA A   1     -12.128  12.404  67.143  1.00  0.00    -0.512 NA 
ATOM     18  H   ALA A   1     -13.023  12.144  67.555  1.00  0.00     0.000 HD 
BRANCH  17  19
HETATM   19  C   UNK A   0     -12.166  13.816  66.690  1.00  0.00    -0.409 C  
BRANCH  19  20
HETATM   20  C   UNK A   0     -10.850  14.565  66.985  1.00  0.00    -0.297 C  
BRANCH  20  21
HETATM   21  C   UNK A   0     -10.942  15.511  68.194  1.00  0.00    -0.312 C  
BRANCH  21  22
HETATM   22  C   UNK A   0     -10.572  16.922  67.809  1.00  0.00    -0.340 A  
HETATM   23  C   UNK A   0     -10.534  17.310  66.464  1.00  0.00    -0.260 A  
HETATM   24  C   UNK A   0     -10.302  17.877  68.800  1.00  0.00    -0.311 A  
HETATM   25  C   UNK A   0     -10.216  18.622  66.115  1.00  0.00    -0.450 A  
HETATM   26  C   UNK A   0      -9.982  19.189  68.449  1.00  0.00    -0.493 A  
HETATM   27  C   UNK A   0      -9.939  19.563  67.108  1.00  0.00    -0.487 A  
ENDBRANCH  21  22
ENDBRANCH  20  21
ENDBRANCH  19  20
BRANCH  19  28
HETATM   28  C   UNK A   0     -12.432  13.851  65.170  1.00  0.00    -0.453 C  
HETATM   29  O   UNK A   0     -12.283  14.824  64.448  1.00  0.00    -0.491 OA 
BRANCH  28  30
HETATM   30  O   UNK A   0     -12.943  12.649  64.758  1.00  0.00    -0.816 OA 
BRANCH  30  31
HETATM   31  C   UNK A   0     -12.415  12.157  63.515  1.00  0.00    -0.555 C  
HETATM   32  C   UNK A   0     -11.012  11.632  63.771  1.00  0.00    -0.495 C  
ENDBRANCH  30  31
ENDBRANCH  28  30
ENDBRANCH  19  28
ENDBRANCH  17  19
ENDBRANCH  15  17
ENDBRANCH   8  15
TORSDOF 9
ENDMDL
MODEL       65
REMARK 921   NORMALIZED FREE ENERGY PREDICTED BY IDOCK:   -5.36 KCAL/MOL
REMARK 922        TOTAL FREE ENERGY PREDICTED BY IDOCK:  -10.12 KCAL/MOL
REMARK 923 INTER-LIGAND FREE ENERGY PREDICTED BY IDOCK:   -8.82 KCAL/MOL
REMARK 924 INTRA-LIGAND FREE ENERGY PREDICTED BY IDOCK:   -1.30 KCAL/MOL
REMARK 927      BINDING AFFINITY PREDICTED BY RF-SCORE:    0.00 PKD
ROOT
ATOM      1  C   ALA A   1      -9.329   8.785  66.433  1.00  0.00    -0.264 C  
ATOM      2  C   ALA A   1     -10.582   8.839  67.292  1.00  0.00    -0.303 C  
ATOM      3  CA  ALA A   1     -10.764  10.351  67.494  1.00  0.00    -0.287 C  
ATOM      4  N   ALA A   1     -10.145  10.977  66.293  1.00  0.00    -0.227 N  
ATOM      5  C   ALA A   1     -10.108  10.786  68.806  1.00  0.00    -0.191 C  
ATOM      6  C   ALA A   1      -9.572   9.929  65.442  1.00  0.00    -0.285 C  
ATOM      7  O   ALA A   1      -8.901  11.372  68.643  1.00  0.00    -0.164 OA 
ATOM      8  C   ALA A   1     -10.547  12.201  65.745  1.00  0.00    -0.260 C  
ATOM      9  OXT ALA A   1     -10.604  10.580  69.904  1.00  0.00    -0.259 OA 
ATOM     10  C   ALA A   1      -9.041   7.480  65.717  1.00  0.00    -0.020 C  
ATOM     11  O   ALA A   1     -10.190  12.544  64.616  1.00  0.00    -0.302 OA 
ATOM     12  C   ALA A   1      -8.281  10.176  64.663  1.00  0.00    -0.165 C  
ATOM     13  C   ALA A   1      -7.808   7.650  64.824  1.00  0.00    -0.129 C  
ATOM     14  C   ALA A   1      -7.888   8.886  63.916  1.00  0.00    -0.137 C  
ENDROOT
BRANCH   8  15
ATOM     15  CA  ALA A   1     -11.497  13.109  66.606  1.00  0.00    -0.348 C  
ATOM     16  CB  ALA A   1     -12.716  13.517  65.774  1.00  0.00    -0.433 C  
BRANCH  15  17
ATOM     17  N   ALA A   1     -10.752  14.278  67.114  1.00  0.00    -0.279 NA 
ATOM     18  H   ALA A   1     -11.185  15.139  66.784  1.00  0.00     0.000 HD 
BRANCH  17  19
HETATM   19  C   UNK A   0     -10.576  14.327  68.586  1.00  0.00    -0.250 C  
BRANCH  19  20
HETATM   20  C   UNK A   0      -9.410  15.246  69.008  1.00  0.00    -0.231 C  
BRANCH  20  21
HETATM   21  C   UNK A   0      -8.682  15.896  67.820  1.00  0.00    -0.173 C  
BRANCH  21  22
HETATM   22  C   UNK A   0      -9.179  17.301  67.581  1.00  0.00    -0.229 A  
HETATM   23  C   UNK A   0     -10.127  17.563  66.584  1.00  0.00    -0.328 A  
HETATM   24  C   UNK A   0      -8.728  18.357  68.386  1.00  0.00    -0.337 A  
HETATM   25  C   UNK A   0     -10.602  18.859  66.384  1.00  0.00    -0.460 A  
HETATM   26  C   UNK A   0      -9.203  19.653  68.183  1.00  0.00    -0.418 A  
HETATM   27  C   UNK A   0     -10.140  19.905  67.183  1.00  0.00    -0.573 A  
ENDBRANCH  21  22
ENDBRANCH  20  21
ENDBRANCH  19  20
BRANCH  19  28
HETATM   28  C   UNK A   0     -11.879  14.844  69.232  1.00  0.00    -0.318 C  
HETATM   29  O   UNK A   0     -12.329  15.973  69.112  1.00  0.00    -0.116 OA 
BRANCH  28  30
HETATM   30  O   UNK A   0     -12.418  13.873  70.034  1.00  0.00    -0.329 OA 
BRANCH  30  31
HETATM   31  C   UNK A   0     -13.216  14.359  71.126  1.00  0.00    -0.350 C  
HETATM   32  C   UNK A   0     -13.442  13.211  72.095  1.00  0.00    -0.653 C  
ENDBRANCH  30  31
ENDBRANCH  28  30
ENDBRANCH  19  28
ENDBRANCH  17  19
ENDBRANCH  15  17
ENDBRANCH   8  15
TORSDOF 9
ENDMDL
MODEL       66
REMARK 921   NORMALIZED FREE ENERGY PREDICTED BY IDOCK:   -5.35 KCAL/MOL
REMARK 922        TOTAL FREE ENERGY PREDICTED BY IDOCK:  -10.11 KCAL/MOL
REMARK 923 INTER-LIGAND FREE ENERGY PREDICTED BY IDOCK:   -8.83 KCAL/MOL
REMARK 924 INTRA-LIGAND FREE ENERGY PREDICTED BY IDOCK:   -1.28 KCAL/MOL
REMARK 927      BINDING AFFINITY PREDICTED BY RF-SCORE:    0.00 PKD
ROOT
ATOM      1  C   ALA A   1     -12.686  12.910  70.743  1.00  0.00    -0.229 C  
ATOM      2  C   ALA A   1     -11.863  11.659  70.490  1.00  0.00    -0.328 C  
ATOM      3  CA  ALA A   1     -11.059  12.054  69.242  1.00  0.00    -0.185 C  
ATOM      4  N   ALA A   1     -10.935  13.536  69.318  1.00  0.00    -0.177 N  
ATOM      5  C   ALA A   1     -11.780  11.573  67.981  1.00  0.00    -0.273 C  
ATOM      6  C   ALA A   1     -11.661  14.022  70.496  1.00  0.00    -0.106 C  
ATOM      7  O   ALA A   1     -12.464  12.546  67.340  1.00  0.00    -0.152 OA 
ATOM      8  C   ALA A   1      -9.866  14.267  68.785  1.00  0.00    -0.189 C  
ATOM      9  OXT ALA A   1     -11.779  10.407  67.612  1.00  0.00    -0.309 OA 
ATOM     10  C   ALA A   1     -13.334  13.044  72.108  1.00  0.00    -0.622 C  
ATOM     11  O   ALA A   1      -9.678  15.444  69.098  1.00  0.00    -0.220 OA 
ATOM     12  C   ALA A   1     -12.397  15.361  70.460  1.00  0.00    -0.452 C  
ATOM     13  C   ALA A   1     -14.026  14.407  72.212  1.00  0.00    -0.610 C  
ATOM     14  C   ALA A   1     -13.116  15.576  71.807  1.00  0.00    -0.548 C  
ENDROOT
BRANCH   8  15
ATOM     15  CA  ALA A   1      -8.896  13.526  67.798  1.00  0.00    -0.198 C  
ATOM     16  CB  ALA A   1      -7.508  13.402  68.433  1.00  0.00    -0.117 C  
BRANCH  15  17
ATOM     17  N   ALA A   1      -8.855  14.235  66.504  1.00  0.00    -0.463 NA 
ATOM     18  H   ALA A   1      -8.097  13.870  65.928  1.00  0.00     0.000 HD 
BRANCH  17  19
HETATM   19  C   UNK A   0     -10.125  14.230  65.737  1.00  0.00    -0.335 C  
BRANCH  19  20
HETATM   20  C   UNK A   0     -10.346  15.542  64.956  1.00  0.00    -0.327 C  
BRANCH  20  21
HETATM   21  C   UNK A   0     -11.055  16.632  65.777  1.00  0.00     0.168 C  
BRANCH  21  22
HETATM   22  C   UNK A   0     -10.056  17.516  66.482  1.00  0.00    -0.331 A  
HETATM   23  C   UNK A   0      -8.724  17.574  66.054  1.00  0.00    -0.069 A  
HETATM   24  C   UNK A   0     -10.462  18.327  67.552  1.00  0.00    -0.431 A  
HETATM   25  C   UNK A   0      -7.811  18.412  66.694  1.00  0.00    -0.269 A  
HETATM   26  C   UNK A   0      -9.547  19.164  68.192  1.00  0.00    -0.411 A  
HETATM   27  C   UNK A   0      -8.222  19.207  67.764  1.00  0.00    -0.319 A  
ENDBRANCH  21  22
ENDBRANCH  20  21
ENDBRANCH  19  20
BRANCH  19  28
HETATM   28  C   UNK A   0     -10.108  13.051  64.741  1.00  0.00    -0.218 C  
HETATM   29  O   UNK A   0     -10.583  13.069  63.616  1.00  0.00    -0.270 OA 
BRANCH  28  30
HETATM   30  O   UNK A   0      -9.556  11.948  65.335  1.00  0.00    -0.232 OA 
BRANCH  30  31
HETATM   31  C   UNK A   0      -9.577  10.753  64.537  1.00  0.00    -0.270 C  
HETATM   32  C   UNK A   0      -9.450   9.559  65.469  1.00  0.00    -0.334 C  
ENDBRANCH  30  31
ENDBRANCH  28  30
ENDBRANCH  19  28
ENDBRANCH  17  19
ENDBRANCH  15  17
ENDBRANCH   8  15
TORSDOF 9
ENDMDL
MODEL       67
REMARK 921   NORMALIZED FREE ENERGY PREDICTED BY IDOCK:   -5.35 KCAL/MOL
REMARK 922        TOTAL FREE ENERGY PREDICTED BY IDOCK:  -10.11 KCAL/MOL
REMARK 923 INTER-LIGAND FREE ENERGY PREDICTED BY IDOCK:   -8.77 KCAL/MOL
REMARK 924 INTRA-LIGAND FREE ENERGY PREDICTED BY IDOCK:   -1.33 KCAL/MOL
REMARK 927      BINDING AFFINITY PREDICTED BY RF-SCORE:    0.00 PKD
ROOT
ATOM      1  C   ALA A   1      -8.233   6.341  65.575  1.00  0.00    -0.145 C  
ATOM      2  C   ALA A   1      -7.346   7.384  66.233  1.00  0.00    -0.082 C  
ATOM      3  CA  ALA A   1      -8.364   8.201  67.045  1.00  0.00    -0.116 C  
ATOM      4  N   ALA A   1      -9.466   7.247  67.350  1.00  0.00    -0.129 N  
ATOM      5  C   ALA A   1      -8.823   9.416  66.237  1.00  0.00    -0.147 C  
ATOM      6  C   ALA A   1      -9.176   5.955  66.721  1.00  0.00    -0.133 C  
ATOM      7  O   ALA A   1     -10.034   9.258  65.658  1.00  0.00    -0.277 OA 
ATOM      8  C   ALA A   1     -10.284   7.322  68.484  1.00  0.00    -0.181 C  
ATOM      9  OXT ALA A   1      -8.140  10.418  66.086  1.00  0.00    -0.128 OA 
ATOM     10  C   ALA A   1      -7.545   5.125  64.986  1.00  0.00    -0.082 C  
ATOM     11  O   ALA A   1     -10.996   6.375  68.822  1.00  0.00    -0.291 OA 
ATOM     12  C   ALA A   1     -10.302   5.094  66.151  1.00  0.00    -0.280 C  
ATOM     13  C   ALA A   1      -8.601   4.143  64.468  1.00  0.00    -0.121 C  
ATOM     14  C   ALA A   1      -9.695   3.835  65.501  1.00  0.00    -0.151 C  
ENDROOT
BRANCH   8  15
ATOM     15  CA  ALA A   1     -10.238   8.644  69.330  1.00  0.00    -0.211 C  
ATOM     16  CB  ALA A   1      -9.300   8.460  70.527  1.00  0.00    -0.177 C  
BRANCH  15  17
ATOM     17  N   ALA A   1     -11.602   9.024  69.745  1.00  0.00    -0.419 NA 
ATOM     18  H   ALA A   1     -12.276   8.338  69.405  1.00  0.00     0.000 HD 
BRANCH  17  19
HETATM   19  C   UNK A   0     -11.786   9.240  71.201  1.00  0.00    -0.325 C  
BRANCH  19  20
HETATM   20  C   UNK A   0     -12.476  10.585  71.514  1.00  0.00    -0.493 C  
BRANCH  20  21
HETATM   21  C   UNK A   0     -12.085  11.714  70.545  1.00  0.00    -0.458 C  
BRANCH  21  22
HETATM   22  C   UNK A   0     -12.672  13.033  70.983  1.00  0.00    -0.347 A  
HETATM   23  C   UNK A   0     -13.506  13.107  72.106  1.00  0.00    -0.653 A  
HETATM   24  C   UNK A   0     -12.355  14.211  70.292  1.00  0.00    -0.421 A  
HETATM   25  C   UNK A   0     -14.025  14.333  72.520  1.00  0.00    -0.519 A  
HETATM   26  C   UNK A   0     -12.877  15.437  70.708  1.00  0.00    -0.524 A  
HETATM   27  C   UNK A   0     -13.712  15.499  71.821  1.00  0.00    -0.582 A  
ENDBRANCH  21  22
ENDBRANCH  20  21
ENDBRANCH  19  20
BRANCH  19  28
HETATM   28  C   UNK A   0     -12.643   8.093  71.776  1.00  0.00    -0.330 C  
HETATM   29  O   UNK A   0     -13.842   7.947  71.598  1.00  0.00    -0.364 OA 
BRANCH  28  30
HETATM   30  O   UNK A   0     -11.876   7.302  72.590  1.00  0.00    -0.214 OA 
BRANCH  30  31
HETATM   31  C   UNK A   0     -11.733   5.939  72.156  1.00  0.00    -0.227 C  
HETATM   32  C   UNK A   0     -10.318   5.487  72.476  1.00  0.00    -0.246 C  
ENDBRANCH  30  31
ENDBRANCH  28  30
ENDBRANCH  19  28
ENDBRANCH  17  19
ENDBRANCH  15  17
ENDBRANCH   8  15
TORSDOF 9
ENDMDL
MODEL       68
REMARK 921   NORMALIZED FREE ENERGY PREDICTED BY IDOCK:   -5.34 KCAL/MOL
REMARK 922        TOTAL FREE ENERGY PREDICTED BY IDOCK:  -10.10 KCAL/MOL
REMARK 923 INTER-LIGAND FREE ENERGY PREDICTED BY IDOCK:   -8.57 KCAL/MOL
REMARK 924 INTRA-LIGAND FREE ENERGY PREDICTED BY IDOCK:   -1.52 KCAL/MOL
REMARK 927      BINDING AFFINITY PREDICTED BY RF-SCORE:    0.00 PKD
ROOT
ATOM      1  C   ALA A   1      -9.362   6.447  73.323  1.00  0.00    -0.140 C  
ATOM      2  C   ALA A   1      -8.890   7.864  73.598  1.00  0.00    -0.336 C  
ATOM      3  CA  ALA A   1      -9.465   8.630  72.396  1.00  0.00    -0.225 C  
ATOM      4  N   ALA A   1     -10.675   7.860  71.994  1.00  0.00    -0.227 N  
ATOM      5  C   ALA A   1      -8.416   8.726  71.286  1.00  0.00    -0.186 C  
ATOM      6  C   ALA A   1     -10.801   6.676  72.849  1.00  0.00    -0.262 C  
ATOM      7  O   ALA A   1      -8.601   7.840  70.283  1.00  0.00    -0.135 OA 
ATOM      8  C   ALA A   1     -11.802   8.424  71.383  1.00  0.00    -0.296 C  
ATOM      9  OXT ALA A   1      -7.469   9.499  71.325  1.00  0.00    -0.332 OA 
ATOM     10  C   ALA A   1      -9.305   5.467  74.479  1.00  0.00    -0.135 C  
ATOM     11  O   ALA A   1     -12.866   7.806  71.312  1.00  0.00    -0.303 OA 
ATOM     12  C   ALA A   1     -11.341   5.361  72.286  1.00  0.00    -0.200 C  
ATOM     13  C   ALA A   1      -9.917   4.131  74.044  1.00  0.00    -0.182 C  
ATOM     14  C   ALA A   1     -11.297   4.285  73.390  1.00  0.00    -0.324 C  
ENDROOT
BRANCH   8  15
ATOM     15  CA  ALA A   1     -11.673   9.884  70.821  1.00  0.00    -0.341 C  
ATOM     16  CB  ALA A   1     -12.681  10.800  71.522  1.00  0.00    -0.536 C  
BRANCH  15  17
ATOM     17  N   ALA A   1     -11.852   9.877  69.355  1.00  0.00    -0.450 NA 
ATOM     18  H   ALA A   1     -12.628  10.485  69.094  1.00  0.00     0.000 HD 
BRANCH  17  19
HETATM   19  C   UNK A   0     -10.645  10.224  68.567  1.00  0.00    -0.213 C  
BRANCH  19  20
HETATM   20  C   UNK A   0     -10.404   9.246  67.398  1.00  0.00    -0.327 C  
BRANCH  20  21
HETATM   21  C   UNK A   0     -10.851   7.806  67.702  1.00  0.00    -0.149 C  
BRANCH  21  22
HETATM   22  C   UNK A   0     -10.120   6.814  66.832  1.00  0.00    -0.268 A  
HETATM   23  C   UNK A   0     -10.642   5.533  66.613  1.00  0.00    -0.365 A  
HETATM   24  C   UNK A   0      -8.925   7.180  66.194  1.00  0.00    -0.168 A  
HETATM   25  C   UNK A   0      -9.975   4.630  65.787  1.00  0.00    -0.246 A  
HETATM   26  C   UNK A   0      -8.258   6.273  65.369  1.00  0.00    -0.142 A  
HETATM   27  C   UNK A   0      -8.782   4.998  65.165  1.00  0.00    -0.150 A  
ENDBRANCH  21  22
ENDBRANCH  20  21
ENDBRANCH  19  20
BRANCH  19  28
HETATM   28  C   UNK A   0     -10.806  11.651  68.000  1.00  0.00    -0.215 C  
HETATM   29  O   UNK A   0     -10.111  12.611  68.294  1.00  0.00    -0.224 OA 
BRANCH  28  30
HETATM   30  O   UNK A   0     -11.900  11.705  67.179  1.00  0.00    -0.608 OA 
BRANCH  30  31
HETATM   31  C   UNK A   0     -12.020  12.909  66.403  1.00  0.00    -0.395 C  
HETATM   32  C   UNK A   0     -12.421  12.523  64.989  1.00  0.00    -0.494 C  
ENDBRANCH  30  31
ENDBRANCH  28  30
ENDBRANCH  19  28
ENDBRANCH  17  19
ENDBRANCH  15  17
ENDBRANCH   8  15
TORSDOF 9
ENDMDL
MODEL       69
REMARK 921   NORMALIZED FREE ENERGY PREDICTED BY IDOCK:   -5.31 KCAL/MOL
REMARK 922        TOTAL FREE ENERGY PREDICTED BY IDOCK:  -10.04 KCAL/MOL
REMARK 923 INTER-LIGAND FREE ENERGY PREDICTED BY IDOCK:   -8.92 KCAL/MOL
REMARK 924 INTRA-LIGAND FREE ENERGY PREDICTED BY IDOCK:   -1.13 KCAL/MOL
REMARK 927      BINDING AFFINITY PREDICTED BY RF-SCORE:    0.00 PKD
ROOT
ATOM      1  C   ALA A   1      -9.736   6.773  73.103  1.00  0.00    -0.189 C  
ATOM      2  C   ALA A   1      -9.124   8.150  73.293  1.00  0.00    -0.327 C  
ATOM      3  CA  ALA A   1      -9.727   8.932  72.116  1.00  0.00    -0.162 C  
ATOM      4  N   ALA A   1     -11.027   8.261  71.835  1.00  0.00    -0.266 N  
ATOM      5  C   ALA A   1      -8.766   8.908  70.925  1.00  0.00    -0.210 C  
ATOM      6  C   ALA A   1     -11.184   7.115  72.736  1.00  0.00    -0.275 C  
ATOM      7  O   ALA A   1      -9.107   8.016  69.969  1.00  0.00    -0.150 OA 
ATOM      8  C   ALA A   1     -12.147   8.906  71.296  1.00  0.00    -0.306 C  
ATOM      9  OXT ALA A   1      -7.757   9.595  70.864  1.00  0.00    -0.314 OA 
ATOM     10  C   ALA A   1      -9.670   5.821  74.282  1.00  0.00    -0.195 C  
ATOM     11  O   ALA A   1     -13.262   8.382  71.329  1.00  0.00    -0.252 OA 
ATOM     12  C   ALA A   1     -11.877   5.838  72.259  1.00  0.00    -0.215 C  
ATOM     13  C   ALA A   1     -10.426   4.533  73.940  1.00  0.00    -0.306 C  
ATOM     14  C   ALA A   1     -11.837   4.792  73.391  1.00  0.00     0.053 C  
ENDROOT
BRANCH   8  15
ATOM     15  CA  ALA A   1     -11.939  10.334  70.678  1.00  0.00    -0.342 C  
ATOM     16  CB  ALA A   1     -12.616  11.384  71.564  1.00  0.00    -0.393 C  
BRANCH  15  17
ATOM     17  N   ALA A   1     -12.449  10.362  69.293  1.00  0.00    -0.636 NA 
ATOM     18  H   ALA A   1     -13.423  10.663  69.284  1.00  0.00     0.000 HD 
BRANCH  17  19
HETATM   19  C   UNK A   0     -11.656  11.178  68.341  1.00  0.00    -0.306 C  
BRANCH  19  20
HETATM   20  C   UNK A   0     -11.149  12.491  68.972  1.00  0.00    -0.287 C  
BRANCH  20  21
HETATM   21  C   UNK A   0     -12.004  13.716  68.608  1.00  0.00    -0.395 C  
BRANCH  21  22
HETATM   22  C   UNK A   0     -11.717  14.180  67.201  1.00  0.00    -0.430 A  
HETATM   23  C   UNK A   0     -12.533  13.781  66.135  1.00  0.00    -0.466 A  
HETATM   24  C   UNK A   0     -10.649  15.054  66.950  1.00  0.00    -0.297 A  
HETATM   25  C   UNK A   0     -12.278  14.235  64.841  1.00  0.00    -0.449 A  
HETATM   26  C   UNK A   0     -10.395  15.506  65.654  1.00  0.00    -0.407 A  
HETATM   27  C   UNK A   0     -11.208  15.096  64.599  1.00  0.00    -0.352 A  
ENDBRANCH  21  22
ENDBRANCH  20  21
ENDBRANCH  19  20
BRANCH  19  28
HETATM   28  C   UNK A   0     -10.444  10.353  67.859  1.00  0.00    -0.209 C  
HETATM   29  O   UNK A   0      -9.280  10.721  67.894  1.00  0.00    -0.146 OA 
BRANCH  28  30
HETATM   30  O   UNK A   0     -10.871   9.176  67.305  1.00  0.00    -0.233 OA 
BRANCH  30  31
HETATM   31  C   UNK A   0     -10.001   8.624  66.302  1.00  0.00    -0.217 C  
HETATM   32  C   UNK A   0      -9.795   7.151  66.614  1.00  0.00    -0.237 C  
ENDBRANCH  30  31
ENDBRANCH  28  30
ENDBRANCH  19  28
ENDBRANCH  17  19
ENDBRANCH  15  17
ENDBRANCH   8  15
TORSDOF 9
ENDMDL
MODEL       70
REMARK 921   NORMALIZED FREE ENERGY PREDICTED BY IDOCK:   -5.28 KCAL/MOL
REMARK 922        TOTAL FREE ENERGY PREDICTED BY IDOCK:  -10.00 KCAL/MOL
REMARK 923 INTER-LIGAND FREE ENERGY PREDICTED BY IDOCK:   -9.62 KCAL/MOL
REMARK 924 INTRA-LIGAND FREE ENERGY PREDICTED BY IDOCK:   -0.38 KCAL/MOL
REMARK 927      BINDING AFFINITY PREDICTED BY RF-SCORE:    0.00 PKD
ROOT
ATOM      1  C   ALA A   1      -8.268  18.090  66.935  1.00  0.00    -0.259 C  
ATOM      2  C   ALA A   1      -7.783  16.997  65.998  1.00  0.00    -0.153 C  
ATOM      3  CA  ALA A   1      -8.365  15.735  66.653  1.00  0.00    -0.284 C  
ATOM      4  N   ALA A   1      -9.584  16.201  67.370  1.00  0.00    -0.228 N  
ATOM      5  C   ALA A   1      -7.326  15.101  67.580  1.00  0.00    -0.183 C  
ATOM      6  C   ALA A   1      -9.710  17.654  67.215  1.00  0.00    -0.284 C  
ATOM      7  O   ALA A   1      -7.527  15.371  68.889  1.00  0.00    -0.129 OA 
ATOM      8  C   ALA A   1     -10.713  15.407  67.606  1.00  0.00    -0.292 C  
ATOM      9  OXT ALA A   1      -6.373  14.451  67.174  1.00  0.00    -0.208 OA 
ATOM     10  C   ALA A   1      -8.207  19.516  66.421  1.00  0.00    -0.347 C  
ATOM     11  O   ALA A   1     -11.782  15.906  67.962  1.00  0.00    -0.245 OA 
ATOM     12  C   ALA A   1     -10.264  18.514  68.351  1.00  0.00    -0.409 C  
ATOM     13  C   ALA A   1      -8.832  20.457  67.455  1.00  0.00    -0.430 C  
ATOM     14  C   ALA A   1     -10.218  19.996  67.929  1.00  0.00    -0.545 C  
ENDROOT
BRANCH   8  15
ATOM     15  CA  ALA A   1     -10.579  13.861  67.369  1.00  0.00    -0.267 C  
ATOM     16  CB  ALA A   1     -11.927  13.287  66.923  1.00  0.00    -0.430 C  
BRANCH  15  17
ATOM     17  N   ALA A   1     -10.072  13.207  68.592  1.00  0.00    -0.381 NA 
ATOM     18  H   ALA A   1     -10.678  13.426  69.383  1.00  0.00     0.000 HD 
BRANCH  17  19
HETATM   19  C   UNK A   0      -9.876  11.740  68.493  1.00  0.00    -0.189 C  
BRANCH  19  20
HETATM   20  C   UNK A   0     -11.186  10.954  68.710  1.00  0.00    -0.329 C  
BRANCH  20  21
HETATM   21  C   UNK A   0     -11.932  11.352  69.994  1.00  0.00    -0.442 C  
BRANCH  21  22
HETATM   22  C   UNK A   0     -11.988  10.201  70.969  1.00  0.00    -0.474 A  
HETATM   23  C   UNK A   0     -10.857   9.410  71.207  1.00  0.00    -0.431 A  
HETATM   24  C   UNK A   0     -13.166   9.936  71.682  1.00  0.00    -0.519 A  
HETATM   25  C   UNK A   0     -10.908   8.364  72.128  1.00  0.00    -0.407 A  
HETATM   26  C   UNK A   0     -13.215   8.888  72.602  1.00  0.00    -0.363 A  
HETATM   27  C   UNK A   0     -12.087   8.101  72.825  1.00  0.00    -0.208 A  
ENDBRANCH  21  22
ENDBRANCH  20  21
ENDBRANCH  19  20
BRANCH  19  28
HETATM   28  C   UNK A   0      -9.314  11.400  67.096  1.00  0.00    -0.172 C  
HETATM   29  O   UNK A   0      -8.259  11.810  66.639  1.00  0.00    -0.171 OA 
BRANCH  28  30
HETATM   30  O   UNK A   0     -10.216  10.636  66.404  1.00  0.00    -0.221 OA 
BRANCH  30  31
HETATM   31  C   UNK A   0      -9.658   9.498  65.727  1.00  0.00    -0.270 C  
HETATM   32  C   UNK A   0      -9.915   8.267  66.580  1.00  0.00    -0.348 C  
ENDBRANCH  30  31
ENDBRANCH  28  30
ENDBRANCH  19  28
ENDBRANCH  17  19
ENDBRANCH  15  17
ENDBRANCH   8  15
TORSDOF 9
ENDMDL
MODEL       71
REMARK 921   NORMALIZED FREE ENERGY PREDICTED BY IDOCK:   -5.27 KCAL/MOL
REMARK 922        TOTAL FREE ENERGY PREDICTED BY IDOCK:   -9.99 KCAL/MOL
REMARK 923 INTER-LIGAND FREE ENERGY PREDICTED BY IDOCK:   -8.42 KCAL/MOL
REMARK 924 INTRA-LIGAND FREE ENERGY PREDICTED BY IDOCK:   -1.57 KCAL/MOL
REMARK 927      BINDING AFFINITY PREDICTED BY RF-SCORE:    0.00 PKD
ROOT
ATOM      1  C   ALA A   1     -10.094   5.595  72.287  1.00  0.00    -0.224 C  
ATOM      2  C   ALA A   1     -11.516   5.962  71.898  1.00  0.00    -0.287 C  
ATOM      3  CA  ALA A   1     -11.295   7.196  71.010  1.00  0.00    -0.279 C  
ATOM      4  N   ALA A   1      -9.937   7.012  70.428  1.00  0.00    -0.180 N  
ATOM      5  C   ALA A   1     -11.425   8.472  71.846  1.00  0.00    -0.335 C  
ATOM      6  C   ALA A   1      -9.343   5.784  70.965  1.00  0.00    -0.160 C  
ATOM      7  O   ALA A   1     -10.239   9.020  72.190  1.00  0.00    -0.300 OA 
ATOM      8  C   ALA A   1      -9.537   7.516  69.184  1.00  0.00    -0.157 C  
ATOM      9  OXT ALA A   1     -12.500   8.927  72.211  1.00  0.00    -0.372 OA 
ATOM     10  C   ALA A   1      -9.873   4.209  72.860  1.00  0.00    -0.186 C  
ATOM     11  O   ALA A   1      -8.506   7.119  68.636  1.00  0.00    -0.124 OA 
ATOM     12  C   ALA A   1      -7.842   5.701  71.244  1.00  0.00    -0.111 C  
ATOM     13  C   ALA A   1      -8.375   3.986  73.090  1.00  0.00    -0.089 C  
ATOM     14  C   ALA A   1      -7.520   4.324  71.860  1.00  0.00    -0.070 C  
ENDROOT
BRANCH   8  15
ATOM     15  CA  ALA A   1     -10.464   8.579  68.495  1.00  0.00    -0.167 C  
ATOM     16  CB  ALA A   1     -10.400   8.413  66.974  1.00  0.00    -0.385 C  
BRANCH  15  17
ATOM     17  N   ALA A   1     -10.077   9.937  68.924  1.00  0.00    -0.176 NA 
ATOM     18  H   ALA A   1      -9.064  10.000  69.016  1.00  0.00     0.000 HD 
BRANCH  17  19
HETATM   19  C   UNK A   0     -10.580  11.040  68.069  1.00  0.00    -0.204 C  
BRANCH  19  20
HETATM   20  C   UNK A   0     -11.795  11.760  68.692  1.00  0.00    -0.369 C  
BRANCH  20  21
HETATM   21  C   UNK A   0     -11.811  11.717  70.229  1.00  0.00    -0.414 C  
BRANCH  21  22
HETATM   22  C   UNK A   0     -12.459  12.954  70.801  1.00  0.00    -0.370 A  
HETATM   23  C   UNK A   0     -12.190  14.217  70.260  1.00  0.00    -0.407 A  
HETATM   24  C   UNK A   0     -13.374  12.847  71.858  1.00  0.00    -0.530 A  
HETATM   25  C   UNK A   0     -12.812  15.354  70.776  1.00  0.00    -0.524 A  
HETATM   26  C   UNK A   0     -13.994  13.986  72.374  1.00  0.00    -0.622 A  
HETATM   27  C   UNK A   0     -13.713  15.239  71.834  1.00  0.00    -0.601 A  
ENDBRANCH  21  22
ENDBRANCH  20  21
ENDBRANCH  19  20
BRANCH  19  28
HETATM   28  C   UNK A   0      -9.449  12.067  67.852  1.00  0.00    -0.196 C  
HETATM   29  O   UNK A   0      -9.366  13.156  68.399  1.00  0.00    -0.207 OA 
BRANCH  28  30
HETATM   30  O   UNK A   0      -8.588  11.614  66.888  1.00  0.00    -0.162 OA 
BRANCH  30  31
HETATM   31  C   UNK A   0      -7.199  11.891  67.134  1.00  0.00    -0.144 C  
HETATM   32  C   UNK A   0      -6.619  10.732  67.928  1.00  0.00    -0.063 C  
ENDBRANCH  30  31
ENDBRANCH  28  30
ENDBRANCH  19  28
ENDBRANCH  17  19
ENDBRANCH  15  17
ENDBRANCH   8  15
TORSDOF 9
ENDMDL
MODEL       72
REMARK 921   NORMALIZED FREE ENERGY PREDICTED BY IDOCK:   -5.26 KCAL/MOL
REMARK 922        TOTAL FREE ENERGY PREDICTED BY IDOCK:   -9.97 KCAL/MOL
REMARK 923 INTER-LIGAND FREE ENERGY PREDICTED BY IDOCK:   -8.48 KCAL/MOL
REMARK 924 INTRA-LIGAND FREE ENERGY PREDICTED BY IDOCK:   -1.48 KCAL/MOL
REMARK 927      BINDING AFFINITY PREDICTED BY RF-SCORE:    0.00 PKD
ROOT
ATOM      1  C   ALA A   1     -10.848   8.993  70.854  1.00  0.00    -0.323 C  
ATOM      2  C   ALA A   1      -9.382   9.065  70.460  1.00  0.00    -0.262 C  
ATOM      3  CA  ALA A   1      -9.448   9.824  69.126  1.00  0.00    -0.188 C  
ATOM      4  N   ALA A   1     -10.673  10.666  69.223  1.00  0.00    -0.223 N  
ATOM      5  C   ALA A   1      -9.489   8.833  67.961  1.00  0.00    -0.143 C  
ATOM      6  C   ALA A   1     -11.343  10.399  70.500  1.00  0.00    -0.341 C  
ATOM      7  O   ALA A   1     -10.724   8.651  67.444  1.00  0.00    -0.264 OA 
ATOM      8  C   ALA A   1     -10.841  11.893  68.570  1.00  0.00    -0.221 C  
ATOM      9  OXT ALA A   1      -8.506   8.223  67.565  1.00  0.00    -0.127 OA 
ATOM     10  C   ALA A   1     -11.156   8.641  72.297  1.00  0.00    -0.395 C  
ATOM     11  O   ALA A   1     -11.748  12.666  68.886  1.00  0.00    -0.290 OA 
ATOM     12  C   ALA A   1     -12.868  10.415  70.599  1.00  0.00    -0.393 C  
ATOM     13  C   ALA A   1     -12.669   8.721  72.528  1.00  0.00    -0.378 C  
ATOM     14  C   ALA A   1     -13.284  10.039  72.035  1.00  0.00    -0.545 C  
ENDROOT
BRANCH   8  15
ATOM     15  CA  ALA A   1      -9.814  12.266  67.443  1.00  0.00    -0.198 C  
ATOM     16  CB  ALA A   1      -8.555  12.872  68.071  1.00  0.00    -0.186 C  
BRANCH  15  17
ATOM     17  N   ALA A   1     -10.445  13.178  66.468  1.00  0.00    -0.276 NA 
ATOM     18  H   ALA A   1      -9.846  13.987  66.307  1.00  0.00     0.000 HD 
BRANCH  17  19
HETATM   19  C   UNK A   0     -10.824  12.559  65.174  1.00  0.00    -0.288 C  
BRANCH  19  20
HETATM   20  C   UNK A   0     -10.653  11.026  65.183  1.00  0.00    -0.295 C  
BRANCH  20  21
HETATM   21  C   UNK A   0      -9.950  10.482  63.928  1.00  0.00    -0.348 C  
BRANCH  21  22
HETATM   22  C   UNK A   0      -8.582   9.940  64.263  1.00  0.00    -0.199 A  
HETATM   23  C   UNK A   0      -7.732  10.634  65.134  1.00  0.00     0.011 A  
HETATM   24  C   UNK A   0      -8.161   8.710  63.738  1.00  0.00    -0.163 A  
HETATM   25  C   UNK A   0      -6.479  10.116  65.460  1.00  0.00    -0.107 A  
HETATM   26  C   UNK A   0      -6.906   8.194  64.065  1.00  0.00    -0.067 A  
HETATM   27  C   UNK A   0      -6.064   8.896  64.925  1.00  0.00    -0.064 A  
ENDBRANCH  21  22
ENDBRANCH  20  21
ENDBRANCH  19  20
BRANCH  19  28
HETATM   28  C   UNK A   0     -12.299  12.896  64.868  1.00  0.00    -0.475 C  
HETATM   29  O   UNK A   0     -13.101  12.144  64.337  1.00  0.00    -0.740 OA 
BRANCH  28  30
HETATM   30  O   UNK A   0     -12.558  14.199  65.201  1.00  0.00    -0.524 OA 
BRANCH  30  31
HETATM   31  C   UNK A   0     -12.203  15.166  64.200  1.00  0.00    -0.161 C  
HETATM   32  C   UNK A   0     -11.252  16.171  64.828  1.00  0.00    -0.313 C  
ENDBRANCH  30  31
ENDBRANCH  28  30
ENDBRANCH  19  28
ENDBRANCH  17  19
ENDBRANCH  15  17
ENDBRANCH   8  15
TORSDOF 9
ENDMDL
MODEL       73
REMARK 921   NORMALIZED FREE ENERGY PREDICTED BY IDOCK:   -5.25 KCAL/MOL
REMARK 922        TOTAL FREE ENERGY PREDICTED BY IDOCK:   -9.95 KCAL/MOL
REMARK 923 INTER-LIGAND FREE ENERGY PREDICTED BY IDOCK:   -8.34 KCAL/MOL
REMARK 924 INTRA-LIGAND FREE ENERGY PREDICTED BY IDOCK:   -1.62 KCAL/MOL
REMARK 927      BINDING AFFINITY PREDICTED BY RF-SCORE:    0.00 PKD
ROOT
ATOM      1  C   ALA A   1      -9.541  14.860  68.373  1.00  0.00    -0.209 C  
ATOM      2  C   ALA A   1      -8.670  14.803  67.130  1.00  0.00    -0.241 C  
ATOM      3  CA  ALA A   1      -8.688  13.303  66.797  1.00  0.00    -0.080 C  
ATOM      4  N   ALA A   1      -9.983  12.805  67.338  1.00  0.00    -0.210 N  
ATOM      5  C   ALA A   1      -7.471  12.615  67.419  1.00  0.00    -0.146 C  
ATOM      6  C   ALA A   1     -10.684  13.907  68.006  1.00  0.00    -0.247 C  
ATOM      7  O   ALA A   1      -7.748  11.943  68.558  1.00  0.00    -0.127 OA 
ATOM      8  C   ALA A   1     -10.695  11.722  66.808  1.00  0.00    -0.253 C  
ATOM      9  OXT ALA A   1      -6.342  12.703  66.957  1.00  0.00    -0.212 OA 
ATOM     10  C   ALA A   1     -10.064  16.223  68.785  1.00  0.00    -0.243 C  
ATOM     11  O   ALA A   1     -11.870  11.517  67.118  1.00  0.00    -0.595 OA 
ATOM     12  C   ALA A   1     -11.523  13.652  69.258  1.00  0.00    -0.344 C  
ATOM     13  C   ALA A   1     -11.002  16.066  69.986  1.00  0.00    -0.365 C  
ATOM     14  C   ALA A   1     -12.081  14.994  69.772  1.00  0.00    -0.354 C  
ENDROOT
BRANCH   8  15
ATOM     15  CA  ALA A   1      -9.954  10.795  65.780  1.00  0.00    -0.251 C  
ATOM     16  CB  ALA A   1     -10.497  11.048  64.371  1.00  0.00    -0.422 C  
BRANCH  15  17
ATOM     17  N   ALA A   1     -10.093   9.382  66.185  1.00  0.00    -0.284 NA 
ATOM     18  H   ALA A   1      -9.935   8.771  65.384  1.00  0.00     0.000 HD 
BRANCH  17  19
HETATM   19  C   UNK A   0      -9.239   8.961  67.323  1.00  0.00    -0.138 C  
BRANCH  19  20
HETATM   20  C   UNK A   0     -10.057   8.344  68.476  1.00  0.00    -0.218 C  
BRANCH  20  21
HETATM   21  C   UNK A   0      -9.771   8.988  69.843  1.00  0.00    -0.194 C  
BRANCH  21  22
HETATM   22  C   UNK A   0     -11.049   9.237  70.605  1.00  0.00    -0.335 A  
HETATM   23  C   UNK A   0     -11.571   8.262  71.464  1.00  0.00    -0.326 A  
HETATM   24  C   UNK A   0     -11.709  10.469  70.494  1.00  0.00    -0.443 A  
HETATM   25  C   UNK A   0     -12.739   8.507  72.186  1.00  0.00    -0.423 A  
HETATM   26  C   UNK A   0     -12.879  10.712  71.216  1.00  0.00    -0.535 A  
HETATM   27  C   UNK A   0     -13.394   9.732  72.061  1.00  0.00    -0.547 A  
ENDBRANCH  21  22
ENDBRANCH  20  21
ENDBRANCH  19  20
BRANCH  19  28
HETATM   28  C   UNK A   0      -8.213   7.922  66.825  1.00  0.00    -0.116 C  
HETATM   29  O   UNK A   0      -7.073   7.795  67.246  1.00  0.00    -0.081 OA 
BRANCH  28  30
HETATM   30  O   UNK A   0      -8.738   7.212  65.779  1.00  0.00    -0.154 OA 
BRANCH  30  31
HETATM   31  C   UNK A   0      -7.841   6.999  64.676  1.00  0.00    -0.123 C  
HETATM   32  C   UNK A   0      -8.019   5.570  64.190  1.00  0.00    -0.120 C  
ENDBRANCH  30  31
ENDBRANCH  28  30
ENDBRANCH  19  28
ENDBRANCH  17  19
ENDBRANCH  15  17
ENDBRANCH   8  15
TORSDOF 9
ENDMDL
MODEL       74
REMARK 921   NORMALIZED FREE ENERGY PREDICTED BY IDOCK:   -5.24 KCAL/MOL
REMARK 922        TOTAL FREE ENERGY PREDICTED BY IDOCK:   -9.95 KCAL/MOL
REMARK 923 INTER-LIGAND FREE ENERGY PREDICTED BY IDOCK:   -8.33 KCAL/MOL
REMARK 924 INTRA-LIGAND FREE ENERGY PREDICTED BY IDOCK:   -1.62 KCAL/MOL
REMARK 927      BINDING AFFINITY PREDICTED BY RF-SCORE:    0.00 PKD
ROOT
ATOM      1  C   ALA A   1      -8.261  18.400  66.936  1.00  0.00    -0.258 C  
ATOM      2  C   ALA A   1      -7.276  17.440  66.291  1.00  0.00    -0.346 C  
ATOM      3  CA  ALA A   1      -7.432  16.188  67.168  1.00  0.00    -0.212 C  
ATOM      4  N   ALA A   1      -8.825  16.255  67.689  1.00  0.00    -0.189 N  
ATOM      5  C   ALA A   1      -6.374  16.189  68.274  1.00  0.00    -0.121 C  
ATOM      6  C   ALA A   1      -9.461  17.488  67.215  1.00  0.00    -0.253 C  
ATOM      7  O   ALA A   1      -6.845  16.584  69.477  1.00  0.00    -0.229 OA 
ATOM      8  C   ALA A   1      -9.598  15.135  68.023  1.00  0.00    -0.204 C  
ATOM      9  OXT ALA A   1      -5.201  15.906  68.079  1.00  0.00    -0.107 OA 
ATOM     10  C   ALA A   1      -8.664  19.619  66.128  1.00  0.00    -0.361 C  
ATOM     11  O   ALA A   1     -10.815  15.227  68.194  1.00  0.00    -0.256 OA 
ATOM     12  C   ALA A   1     -10.450  18.246  68.099  1.00  0.00    -0.359 C  
ATOM     13  C   ALA A   1      -9.734  20.405  66.892  1.00  0.00    -0.567 C  
ATOM     14  C   ALA A   1     -10.901  19.527  67.368  1.00  0.00    -0.536 C  
ENDROOT
BRANCH   8  15
ATOM     15  CA  ALA A   1      -8.865  13.751  68.138  1.00  0.00    -0.185 C  
ATOM     16  CB  ALA A   1      -8.505  13.239  66.740  1.00  0.00     0.011 C  
BRANCH  15  17
ATOM     17  N   ALA A   1      -9.708  12.795  68.882  1.00  0.00    -0.405 NA 
ATOM     18  H   ALA A   1     -10.483  13.286  69.328  1.00  0.00     0.000 HD 
BRANCH  17  19
HETATM   19  C   UNK A   0     -10.219  11.650  68.089  1.00  0.00    -0.197 C  
BRANCH  19  20
HETATM   20  C   UNK A   0      -9.730  10.292  68.636  1.00  0.00    -0.171 C  
BRANCH  20  21
HETATM   21  C   UNK A   0      -9.800   9.155  67.602  1.00  0.00    -0.217 C  
BRANCH  21  22
HETATM   22  C   UNK A   0      -8.911   9.443  66.418  1.00  0.00    -0.182 A  
HETATM   23  C   UNK A   0      -9.455   9.598  65.136  1.00  0.00    -0.332 A  
HETATM   24  C   UNK A   0      -7.529   9.601  66.593  1.00  0.00    -0.094 A  
HETATM   25  C   UNK A   0      -8.632   9.889  64.049  1.00  0.00    -0.198 A  
HETATM   26  C   UNK A   0      -6.706   9.892  65.504  1.00  0.00    -0.094 A  
HETATM   27  C   UNK A   0      -7.257  10.035  64.232  1.00  0.00    -0.133 A  
ENDBRANCH  21  22
ENDBRANCH  20  21
ENDBRANCH  19  20
BRANCH  19  28
HETATM   28  C   UNK A   0     -11.762  11.671  68.109  1.00  0.00    -0.295 C  
HETATM   29  O   UNK A   0     -12.469  11.006  68.851  1.00  0.00    -0.460 OA 
BRANCH  28  30
HETATM   30  O   UNK A   0     -12.230  12.484  67.112  1.00  0.00    -0.474 OA 
BRANCH  30  31
HETATM   31  C   UNK A   0     -11.678  12.230  65.810  1.00  0.00    -0.385 C  
HETATM   32  C   UNK A   0     -12.653  12.759  64.771  1.00  0.00    -0.518 C  
ENDBRANCH  30  31
ENDBRANCH  28  30
ENDBRANCH  19  28
ENDBRANCH  17  19
ENDBRANCH  15  17
ENDBRANCH   8  15
TORSDOF 9
ENDMDL
MODEL       75
REMARK 921   NORMALIZED FREE ENERGY PREDICTED BY IDOCK:   -5.24 KCAL/MOL
REMARK 922        TOTAL FREE ENERGY PREDICTED BY IDOCK:   -9.95 KCAL/MOL
REMARK 923 INTER-LIGAND FREE ENERGY PREDICTED BY IDOCK:   -9.24 KCAL/MOL
REMARK 924 INTRA-LIGAND FREE ENERGY PREDICTED BY IDOCK:   -0.71 KCAL/MOL
REMARK 927      BINDING AFFINITY PREDICTED BY RF-SCORE:    0.00 PKD
ROOT
ATOM      1  C   ALA A   1     -11.464   9.383  70.316  1.00  0.00    -0.223 C  
ATOM      2  C   ALA A   1     -10.125   9.981  69.920  1.00  0.00    -0.289 C  
ATOM      3  CA  ALA A   1     -10.533  11.380  69.432  1.00  0.00     0.000 C  
ATOM      4  N   ALA A   1     -11.777  11.701  70.184  1.00  0.00    -0.321 N  
ATOM      5  C   ALA A   1     -10.731  11.367  67.915  1.00  0.00    -0.200 C  
ATOM      6  C   ALA A   1     -12.140  10.558  71.029  1.00  0.00    -0.387 C  
ATOM      7  O   ALA A   1     -12.027  11.310  67.536  1.00  0.00    -0.612 OA 
ATOM      8  C   ALA A   1     -12.182  12.998  70.523  1.00  0.00    -0.313 C  
ATOM      9  OXT ALA A   1      -9.804  11.360  67.118  1.00  0.00    -0.188 OA 
ATOM     10  C   ALA A   1     -11.433   8.144  71.190  1.00  0.00    -0.304 C  
ATOM     11  O   ALA A   1     -13.065  13.193  71.360  1.00  0.00    -0.337 OA 
ATOM     12  C   ALA A   1     -13.607  10.201  71.268  1.00  0.00    -0.192 C  
ATOM     13  C   ALA A   1     -12.865   7.754  71.570  1.00  0.00    -0.357 C  
ATOM     14  C   ALA A   1     -13.680   8.927  72.134  1.00  0.00    -0.527 C  
ENDROOT
BRANCH   8  15
ATOM     15  CA  ALA A   1     -11.448  14.197  69.823  1.00  0.00    -0.250 C  
ATOM     16  CB  ALA A   1     -11.229  15.329  70.832  1.00  0.00    -0.367 C  
BRANCH  15  17
ATOM     17  N   ALA A   1     -12.219  14.641  68.646  1.00  0.00    -0.586 NA 
ATOM     18  H   ALA A   1     -13.099  15.062  68.942  1.00  0.00     0.000 HD 
BRANCH  17  19
HETATM   19  C   UNK A   0     -11.501  15.556  67.725  1.00  0.00    -0.243 C  
BRANCH  19  20
HETATM   20  C   UNK A   0     -10.944  16.800  68.448  1.00  0.00    -0.325 C  
BRANCH  20  21
HETATM   21  C   UNK A   0     -10.781  18.021  67.527  1.00  0.00    -0.352 C  
BRANCH  21  22
HETATM   22  C   UNK A   0      -9.367  18.548  67.568  1.00  0.00    -0.290 A  
HETATM   23  C   UNK A   0      -8.589  18.601  66.405  1.00  0.00    -0.284 A  
HETATM   24  C   UNK A   0      -8.829  19.031  68.770  1.00  0.00    -0.352 A  
HETATM   25  C   UNK A   0      -7.292  19.113  66.445  1.00  0.00    -0.263 A  
HETATM   26  C   UNK A   0      -7.530  19.542  68.808  1.00  0.00    -0.387 A  
HETATM   27  C   UNK A   0      -6.762  19.582  67.646  1.00  0.00    -0.246 A  
ENDBRANCH  21  22
ENDBRANCH  20  21
ENDBRANCH  19  20
BRANCH  19  28
HETATM   28  C   UNK A   0     -10.332  14.794  67.067  1.00  0.00    -0.255 C  
HETATM   29  O   UNK A   0     -10.307  14.394  65.914  1.00  0.00    -0.289 OA 
BRANCH  28  30
HETATM   30  O   UNK A   0      -9.352  14.553  67.994  1.00  0.00    -0.191 OA 
BRANCH  30  31
HETATM   31  C   UNK A   0      -8.013  14.817  67.546  1.00  0.00    -0.188 C  
HETATM   32  C   UNK A   0      -7.359  15.762  68.539  1.00  0.00    -0.124 C  
ENDBRANCH  30  31
ENDBRANCH  28  30
ENDBRANCH  19  28
ENDBRANCH  17  19
ENDBRANCH  15  17
ENDBRANCH   8  15
TORSDOF 9
ENDMDL
MODEL       76
REMARK 921   NORMALIZED FREE ENERGY PREDICTED BY IDOCK:   -5.22 KCAL/MOL
REMARK 922        TOTAL FREE ENERGY PREDICTED BY IDOCK:   -9.92 KCAL/MOL
REMARK 923 INTER-LIGAND FREE ENERGY PREDICTED BY IDOCK:   -8.20 KCAL/MOL
REMARK 924 INTRA-LIGAND FREE ENERGY PREDICTED BY IDOCK:   -1.71 KCAL/MOL
REMARK 927      BINDING AFFINITY PREDICTED BY RF-SCORE:    0.00 PKD
ROOT
ATOM      1  C   ALA A   1      -7.265  18.072  67.260  1.00  0.00    -0.208 C  
ATOM      2  C   ALA A   1      -6.846  16.744  66.653  1.00  0.00    -0.255 C  
ATOM      3  CA  ALA A   1      -8.199  16.040  66.464  1.00  0.00    -0.299 C  
ATOM      4  N   ALA A   1      -9.185  17.142  66.291  1.00  0.00    -0.252 N  
ATOM      5  C   ALA A   1      -8.497  15.148  67.671  1.00  0.00    -0.160 C  
ATOM      6  C   ALA A   1      -8.498  18.431  66.423  1.00  0.00    -0.245 C  
ATOM      7  O   ALA A   1      -9.370  15.691  68.548  1.00  0.00    -0.187 OA 
ATOM      8  C   ALA A   1     -10.366  17.034  65.548  1.00  0.00    -0.143 C  
ATOM      9  OXT ALA A   1      -7.959  14.065  67.854  1.00  0.00    -0.130 OA 
ATOM     10  C   ALA A   1      -6.239  19.189  67.246  1.00  0.00    -0.178 C  
ATOM     11  O   ALA A   1     -11.008  18.035  65.219  1.00  0.00    -0.575 OA 
ATOM     12  C   ALA A   1      -9.196  19.624  67.076  1.00  0.00    -0.425 C  
ATOM     13  C   ALA A   1      -6.874  20.470  67.798  1.00  0.00    -0.363 C  
ATOM     14  C   ALA A   1      -8.215  20.812  67.133  1.00  0.00    -0.227 C  
ENDROOT
BRANCH   8  15
ATOM     15  CA  ALA A   1     -10.829  15.597  65.118  1.00  0.00    -0.431 C  
ATOM     16  CB  ALA A   1     -11.689  15.687  63.853  1.00  0.00     0.270 C  
BRANCH  15  17
ATOM     17  N   ALA A   1     -11.544  14.944  66.232  1.00  0.00    -0.289 NA 
ATOM     18  H   ALA A   1     -12.542  15.142  66.171  1.00  0.00     0.000 HD 
BRANCH  17  19
HETATM   19  C   UNK A   0     -11.321  13.483  66.360  1.00  0.00    -0.316 C  
BRANCH  19  20
HETATM   20  C   UNK A   0     -11.941  12.904  67.649  1.00  0.00    -0.344 C  
BRANCH  20  21
HETATM   21  C   UNK A   0     -10.897  12.534  68.716  1.00  0.00    -0.276 C  
BRANCH  21  22
HETATM   22  C   UNK A   0     -10.292  11.180  68.439  1.00  0.00    -0.201 A  
HETATM   23  C   UNK A   0     -11.105  10.086  68.119  1.00  0.00    -0.252 A  
HETATM   24  C   UNK A   0      -8.900  11.011  68.458  1.00  0.00    -0.159 A  
HETATM   25  C   UNK A   0     -10.538   8.842  67.839  1.00  0.00    -0.244 A  
HETATM   26  C   UNK A   0      -8.335   9.766  68.178  1.00  0.00    -0.110 A  
HETATM   27  C   UNK A   0      -9.153   8.682  67.869  1.00  0.00    -0.145 A  
ENDBRANCH  21  22
ENDBRANCH  20  21
ENDBRANCH  19  20
BRANCH  19  28
HETATM   28  C   UNK A   0     -11.945  12.770  65.141  1.00  0.00    -0.424 C  
HETATM   29  O   UNK A   0     -13.140  12.605  64.953  1.00  0.00    -0.850 OA 
BRANCH  28  30
HETATM   30  O   UNK A   0     -10.955  12.269  64.338  1.00  0.00    -0.293 OA 
BRANCH  30  31
HETATM   31  C   UNK A   0     -10.619  10.892  64.572  1.00  0.00    -0.265 C  
HETATM   32  C   UNK A   0      -9.106  10.783  64.663  1.00  0.00    -0.223 C  
ENDBRANCH  30  31
ENDBRANCH  28  30
ENDBRANCH  19  28
ENDBRANCH  17  19
ENDBRANCH  15  17
ENDBRANCH   8  15
TORSDOF 9
ENDMDL
MODEL       77
REMARK 921   NORMALIZED FREE ENERGY PREDICTED BY IDOCK:   -5.22 KCAL/MOL
REMARK 922        TOTAL FREE ENERGY PREDICTED BY IDOCK:   -9.91 KCAL/MOL
REMARK 923 INTER-LIGAND FREE ENERGY PREDICTED BY IDOCK:   -7.98 KCAL/MOL
REMARK 924 INTRA-LIGAND FREE ENERGY PREDICTED BY IDOCK:   -1.92 KCAL/MOL
REMARK 927      BINDING AFFINITY PREDICTED BY RF-SCORE:    0.00 PKD
ROOT
ATOM      1  C   ALA A   1     -11.645   8.526  70.960  1.00  0.00    -0.317 C  
ATOM      2  C   ALA A   1     -10.595   7.452  71.187  1.00  0.00    -0.235 C  
ATOM      3  CA  ALA A   1      -9.717   7.595  69.934  1.00  0.00    -0.175 C  
ATOM      4  N   ALA A   1      -9.859   9.021  69.526  1.00  0.00    -0.175 N  
ATOM      5  C   ALA A   1     -10.179   6.611  68.857  1.00  0.00    -0.177 C  
ATOM      6  C   ALA A   1     -10.802   9.690  70.428  1.00  0.00    -0.295 C  
ATOM      7  O   ALA A   1     -10.932   7.178  67.889  1.00  0.00    -0.170 OA 
ATOM      8  C   ALA A   1      -8.872   9.751  68.853  1.00  0.00    -0.140 C  
ATOM      9  OXT ALA A   1      -9.932   5.414  68.892  1.00  0.00    -0.152 OA 
ATOM     10  C   ALA A   1     -12.475   8.942  72.159  1.00  0.00    -0.459 C  
ATOM     11  O   ALA A   1      -8.930  10.980  68.774  1.00  0.00    -0.165 OA 
ATOM     12  C   ALA A   1     -11.746  10.773  69.906  1.00  0.00    -0.412 C  
ATOM     13  C   ALA A   1     -13.397  10.100  71.764  1.00  0.00    -0.485 C  
ATOM     14  C   ALA A   1     -12.656  11.245  71.057  1.00  0.00    -0.495 C  
ENDROOT
BRANCH   8  15
ATOM     15  CA  ALA A   1      -7.672   8.953  68.231  1.00  0.00    -0.096 C  
ATOM     16  CB  ALA A   1      -6.392   9.248  69.018  1.00  0.00    -0.043 C  
BRANCH  15  17
ATOM     17  N   ALA A   1      -7.535   9.286  66.799  1.00  0.00    -0.086 NA 
ATOM     18  H   ALA A   1      -6.557   9.217  66.516  1.00  0.00     0.000 HD 
BRANCH  17  19
HETATM   19  C   UNK A   0      -8.389   8.496  65.879  1.00  0.00    -0.138 C  
BRANCH  19  20
HETATM   20  C   UNK A   0      -9.484   9.353  65.211  1.00  0.00    -0.296 C  
BRANCH  20  21
HETATM   21  C   UNK A   0      -9.085  10.827  65.034  1.00  0.00    -0.226 C  
BRANCH  21  22
HETATM   22  C   UNK A   0     -10.303  11.711  64.921  1.00  0.00    -0.331 A  
HETATM   23  C   UNK A   0     -11.031  12.074  66.061  1.00  0.00    -0.346 A  
HETATM   24  C   UNK A   0     -10.696  12.215  63.673  1.00  0.00    -0.518 A  
HETATM   25  C   UNK A   0     -12.141  12.911  65.954  1.00  0.00    -0.503 A  
HETATM   26  C   UNK A   0     -11.808  13.052  63.568  1.00  0.00    -0.582 A  
HETATM   27  C   UNK A   0     -12.531  13.400  64.707  1.00  0.00    -0.416 A  
ENDBRANCH  21  22
ENDBRANCH  20  21
ENDBRANCH  19  20
BRANCH  19  28
HETATM   28  C   UNK A   0      -7.503   7.871  64.780  1.00  0.00    -0.095 C  
HETATM   29  O   UNK A   0      -6.660   8.467  64.127  1.00  0.00    -0.070 OA 
BRANCH  28  30
HETATM   30  O   UNK A   0      -7.859   6.564  64.582  1.00  0.00    -0.102 OA 
BRANCH  30  31
HETATM   31  C   UNK A   0      -8.196   5.837  65.775  1.00  0.00    -0.125 C  
HETATM   32  C   UNK A   0      -9.178   4.739  65.398  1.00  0.00    -0.156 C  
ENDBRANCH  30  31
ENDBRANCH  28  30
ENDBRANCH  19  28
ENDBRANCH  17  19
ENDBRANCH  15  17
ENDBRANCH   8  15
TORSDOF 9
ENDMDL
MODEL       78
REMARK 921   NORMALIZED FREE ENERGY PREDICTED BY IDOCK:   -5.21 KCAL/MOL
REMARK 922        TOTAL FREE ENERGY PREDICTED BY IDOCK:   -9.90 KCAL/MOL
REMARK 923 INTER-LIGAND FREE ENERGY PREDICTED BY IDOCK:   -8.40 KCAL/MOL
REMARK 924 INTRA-LIGAND FREE ENERGY PREDICTED BY IDOCK:   -1.50 KCAL/MOL
REMARK 927      BINDING AFFINITY PREDICTED BY RF-SCORE:    0.00 PKD
ROOT
ATOM      1  C   ALA A   1      -8.966   6.855  72.332  1.00  0.00    -0.143 C  
ATOM      2  C   ALA A   1      -8.306   8.222  72.391  1.00  0.00    -0.231 C  
ATOM      3  CA  ALA A   1      -9.215   9.055  71.474  1.00  0.00    -0.190 C  
ATOM      4  N   ALA A   1     -10.549   8.399  71.558  1.00  0.00    -0.225 N  
ATOM      5  C   ALA A   1      -8.644   9.080  70.055  1.00  0.00    -0.151 C  
ATOM      6  C   ALA A   1     -10.453   7.215  72.418  1.00  0.00    -0.218 C  
ATOM      7  O   ALA A   1      -9.261   8.231  69.205  1.00  0.00    -0.150 OA 
ATOM      8  C   ALA A   1     -11.769   9.068  71.397  1.00  0.00    -0.322 C  
ATOM      9  OXT ALA A   1      -7.687   9.768  69.730  1.00  0.00    -0.107 OA 
ATOM     10  C   ALA A   1      -8.572   5.854  73.401  1.00  0.00    -0.120 C  
ATOM     11  O   ALA A   1     -12.833   8.545  71.733  1.00  0.00    -0.321 OA 
ATOM     12  C   ALA A   1     -11.273   5.961  72.114  1.00  0.00    -0.342 C  
ATOM     13  C   ALA A   1      -9.414   4.583  73.242  1.00  0.00    -0.134 C  
ATOM     14  C   ALA A   1     -10.919   4.867  73.140  1.00  0.00    -0.376 C  
ENDROOT
BRANCH   8  15
ATOM     15  CA  ALA A   1     -11.731  10.521  70.804  1.00  0.00    -0.356 C  
ATOM     16  CB  ALA A   1     -12.900  11.338  71.361  1.00  0.00    -0.515 C  
BRANCH  15  17
ATOM     17  N   ALA A   1     -11.744  10.463  69.329  1.00  0.00    -0.470 NA 
ATOM     18  H   ALA A   1     -12.558   9.940  69.006  1.00  0.00     0.000 HD 
BRANCH  17  19
HETATM   19  C   UNK A   0     -11.677  11.776  68.641  1.00  0.00    -0.330 C  
BRANCH  19  20
HETATM   20  C   UNK A   0     -10.684  12.744  69.318  1.00  0.00     0.040 C  
BRANCH  20  21
HETATM   21  C   UNK A   0     -11.132  14.215  69.265  1.00  0.00    -0.286 C  
BRANCH  21  22
HETATM   22  C   UNK A   0     -10.329  14.991  68.251  1.00  0.00    -0.236 A  
HETATM   23  C   UNK A   0     -10.908  16.049  67.538  1.00  0.00    -0.292 A  
HETATM   24  C   UNK A   0      -8.976  14.690  68.040  1.00  0.00    -0.174 A  
HETATM   25  C   UNK A   0     -10.154  16.779  66.620  1.00  0.00    -0.304 A  
HETATM   26  C   UNK A   0      -8.223  15.422  67.120  1.00  0.00    -0.250 A  
HETATM   27  C   UNK A   0      -8.811  16.466  66.410  1.00  0.00    -0.346 A  
ENDBRANCH  21  22
ENDBRANCH  20  21
ENDBRANCH  19  20
BRANCH  19  28
HETATM   28  C   UNK A   0     -11.242  11.557  67.177  1.00  0.00    -0.301 C  
HETATM   29  O   UNK A   0     -10.132  11.199  66.814  1.00  0.00    -0.205 OA 
BRANCH  28  30
HETATM   30  O   UNK A   0     -12.262  11.904  66.331  1.00  0.00    -0.476 OA 
BRANCH  30  31
HETATM   31  C   UNK A   0     -11.874  12.719  65.212  1.00  0.00    -0.403 C  
HETATM   32  C   UNK A   0     -12.673  14.010  65.267  1.00  0.00    -0.468 C  
ENDBRANCH  30  31
ENDBRANCH  28  30
ENDBRANCH  19  28
ENDBRANCH  17  19
ENDBRANCH  15  17
ENDBRANCH   8  15
TORSDOF 9
ENDMDL
MODEL       79
REMARK 921   NORMALIZED FREE ENERGY PREDICTED BY IDOCK:   -5.21 KCAL/MOL
REMARK 922        TOTAL FREE ENERGY PREDICTED BY IDOCK:   -9.89 KCAL/MOL
REMARK 923 INTER-LIGAND FREE ENERGY PREDICTED BY IDOCK:   -7.82 KCAL/MOL
REMARK 924 INTRA-LIGAND FREE ENERGY PREDICTED BY IDOCK:   -2.07 KCAL/MOL
REMARK 927      BINDING AFFINITY PREDICTED BY RF-SCORE:    0.00 PKD
ROOT
ATOM      1  C   ALA A   1     -10.646  11.836  64.853  1.00  0.00    -0.344 C  
ATOM      2  C   ALA A   1     -10.091  10.426  64.967  1.00  0.00    -0.379 C  
ATOM      3  CA  ALA A   1      -9.655  10.374  66.440  1.00  0.00    -0.179 C  
ATOM      4  N   ALA A   1     -10.552  11.336  67.140  1.00  0.00    -0.223 N  
ATOM      5  C   ALA A   1      -8.173  10.735  66.560  1.00  0.00    -0.148 C  
ATOM      6  C   ALA A   1     -11.435  11.975  66.159  1.00  0.00    -0.339 C  
ATOM      7  O   ALA A   1      -7.953  12.004  66.970  1.00  0.00    -0.163 OA 
ATOM      8  C   ALA A   1     -10.937  11.223  68.481  1.00  0.00    -0.220 C  
ATOM      9  OXT ALA A   1      -7.270   9.965  66.267  1.00  0.00    -0.096 OA 
ATOM     10  C   ALA A   1     -11.510  12.139  63.644  1.00  0.00    -0.566 C  
ATOM     11  O   ALA A   1     -11.874  11.882  68.934  1.00  0.00    -0.296 OA 
ATOM     12  C   ALA A   1     -11.849  13.438  66.320  1.00  0.00    -0.438 C  
ATOM     13  C   ALA A   1     -12.061  13.564  63.757  1.00  0.00    -0.482 C  
ATOM     14  C   ALA A   1     -12.718  13.850  65.115  1.00  0.00    -0.434 C  
ENDROOT
BRANCH   8  15
ATOM     15  CA  ALA A   1     -10.153  10.202  69.381  1.00  0.00    -0.231 C  
ATOM     16  CB  ALA A   1     -10.974   9.882  70.634  1.00  0.00    -0.405 C  
BRANCH  15  17
ATOM     17  N   ALA A   1      -8.820  10.742  69.711  1.00  0.00    -0.297 NA 
ATOM     18  H   ALA A   1      -8.907  11.503  70.385  1.00  0.00     0.000 HD 
BRANCH  17  19
HETATM   19  C   UNK A   0      -7.833   9.746  70.194  1.00  0.00    -0.183 C  
BRANCH  19  20
HETATM   20  C   UNK A   0      -7.928   8.407  69.433  1.00  0.00    -0.112 C  
BRANCH  20  21
HETATM   21  C   UNK A   0      -7.779   7.175  70.340  1.00  0.00    -0.095 C  
BRANCH  21  22
HETATM   22  C   UNK A   0      -9.094   6.813  70.986  1.00  0.00    -0.156 A  
HETATM   23  C   UNK A   0      -9.300   7.022  72.355  1.00  0.00    -0.152 A  
HETATM   24  C   UNK A   0     -10.143   6.299  70.211  1.00  0.00    -0.226 A  
HETATM   25  C   UNK A   0     -10.526   6.710  72.941  1.00  0.00    -0.254 A  
HETATM   26  C   UNK A   0     -11.369   5.986  70.800  1.00  0.00    -0.295 A  
HETATM   27  C   UNK A   0     -11.561   6.190  72.164  1.00  0.00    -0.369 A  
ENDBRANCH  21  22
ENDBRANCH  20  21
ENDBRANCH  19  20
BRANCH  19  28
HETATM   28  C   UNK A   0      -6.411  10.320  70.021  1.00  0.00    -0.101 C  
HETATM   29  O   UNK A   0      -5.569   9.901  69.242  1.00  0.00    -0.035 OA 
BRANCH  28  30
HETATM   30  O   UNK A   0      -6.197  11.318  70.933  1.00  0.00    -0.347 OA 
BRANCH  30  31
HETATM   31  C   UNK A   0      -5.377  12.403  70.468  1.00  0.00    -0.145 C  
HETATM   32  C   UNK A   0      -6.283  13.436  69.818  1.00  0.00    -0.113 C  
ENDBRANCH  30  31
ENDBRANCH  28  30
ENDBRANCH  19  28
ENDBRANCH  17  19
ENDBRANCH  15  17
ENDBRANCH   8  15
TORSDOF 9
ENDMDL
MODEL       80
REMARK 921   NORMALIZED FREE ENERGY PREDICTED BY IDOCK:   -5.19 KCAL/MOL
REMARK 922        TOTAL FREE ENERGY PREDICTED BY IDOCK:   -9.86 KCAL/MOL
REMARK 923 INTER-LIGAND FREE ENERGY PREDICTED BY IDOCK:   -8.44 KCAL/MOL
REMARK 924 INTRA-LIGAND FREE ENERGY PREDICTED BY IDOCK:   -1.43 KCAL/MOL
REMARK 927      BINDING AFFINITY PREDICTED BY RF-SCORE:    0.00 PKD
ROOT
ATOM      1  C   ALA A   1      -9.318  16.410  66.038  1.00  0.00    -0.335 C  
ATOM      2  C   ALA A   1     -10.831  16.544  66.049  1.00  0.00    -0.069 C  
ATOM      3  CA  ALA A   1     -11.279  15.086  66.231  1.00  0.00    -0.309 C  
ATOM      4  N   ALA A   1     -10.160  14.429  66.963  1.00  0.00    -0.253 N  
ATOM      5  C   ALA A   1     -11.562  14.451  64.868  1.00  0.00    -0.395 C  
ATOM      6  C   ALA A   1      -9.079  15.399  67.164  1.00  0.00    -0.220 C  
ATOM      7  O   ALA A   1     -10.566  13.656  64.420  1.00  0.00    -0.423 OA 
ATOM      8  C   ALA A   1     -10.316  13.341  67.831  1.00  0.00    -0.238 C  
ATOM      9  OXT ALA A   1     -12.573  14.680  64.219  1.00  0.00    -0.688 OA 
ATOM     10  C   ALA A   1      -8.513  17.678  66.248  1.00  0.00    -0.237 C  
ATOM     11  O   ALA A   1      -9.416  13.007  68.604  1.00  0.00    -0.134 OA 
ATOM     12  C   ALA A   1      -7.616  14.957  67.116  1.00  0.00    -0.145 C  
ATOM     13  C   ALA A   1      -7.022  17.330  66.311  1.00  0.00    -0.299 C  
ATOM     14  C   ALA A   1      -6.711  16.192  67.295  1.00  0.00    -0.233 C  
ENDROOT
BRANCH   8  15
ATOM     15  CA  ALA A   1     -11.690  12.581  67.809  1.00  0.00    -0.359 C  
ATOM     16  CB  ALA A   1     -12.118  12.245  69.240  1.00  0.00    -0.219 C  
BRANCH  15  17
ATOM     17  N   ALA A   1     -11.585  11.377  66.961  1.00  0.00    -0.514 NA 
ATOM     18  H   ALA A   1     -11.636  11.637  65.976  1.00  0.00     0.000 HD 
BRANCH  17  19
HETATM   19  C   UNK A   0     -10.390  10.532  67.204  1.00  0.00    -0.235 C  
BRANCH  19  20
HETATM   20  C   UNK A   0     -10.760   9.120  67.703  1.00  0.00    -0.257 C  
BRANCH  20  21
HETATM   21  C   UNK A   0      -9.827   8.597  68.808  1.00  0.00    -0.180 C  
BRANCH  21  22
HETATM   22  C   UNK A   0     -10.613   8.130  70.008  1.00  0.00    -0.239 A  
HETATM   23  C   UNK A   0     -10.586   6.786  70.402  1.00  0.00    -0.262 A  
HETATM   24  C   UNK A   0     -11.350   9.048  70.771  1.00  0.00    -0.329 A  
HETATM   25  C   UNK A   0     -11.294   6.365  71.527  1.00  0.00    -0.346 A  
HETATM   26  C   UNK A   0     -12.059   8.624  71.896  1.00  0.00    -0.422 A  
HETATM   27  C   UNK A   0     -12.032   7.283  72.274  1.00  0.00    -0.259 A  
ENDBRANCH  21  22
ENDBRANCH  20  21
ENDBRANCH  19  20
BRANCH  19  28
HETATM   28  C   UNK A   0      -9.588  10.405  65.891  1.00  0.00    -0.206 C  
HETATM   29  O   UNK A   0     -10.036  10.019  64.823  1.00  0.00    -0.296 OA 
BRANCH  28  30
HETATM   30  O   UNK A   0      -8.272  10.707  66.118  1.00  0.00    -0.145 OA 
BRANCH  30  31
HETATM   31  C   UNK A   0      -7.327   9.825  65.490  1.00  0.00    -0.112 C  
HETATM   32  C   UNK A   0      -7.167   8.597  66.370  1.00  0.00    -0.080 C  
ENDBRANCH  30  31
ENDBRANCH  28  30
ENDBRANCH  19  28
ENDBRANCH  17  19
ENDBRANCH  15  17
ENDBRANCH   8  15
TORSDOF 9
ENDMDL
MODEL       81
REMARK 921   NORMALIZED FREE ENERGY PREDICTED BY IDOCK:   -5.19 KCAL/MOL
REMARK 922        TOTAL FREE ENERGY PREDICTED BY IDOCK:   -9.86 KCAL/MOL
REMARK 923 INTER-LIGAND FREE ENERGY PREDICTED BY IDOCK:   -7.75 KCAL/MOL
REMARK 924 INTRA-LIGAND FREE ENERGY PREDICTED BY IDOCK:   -2.11 KCAL/MOL
REMARK 927      BINDING AFFINITY PREDICTED BY RF-SCORE:    0.00 PKD
ROOT
ATOM      1  C   ALA A   1     -10.565  11.961  64.634  1.00  0.00    -0.353 C  
ATOM      2  C   ALA A   1      -9.856  10.621  64.528  1.00  0.00    -0.388 C  
ATOM      3  CA  ALA A   1      -9.491  10.337  65.993  1.00  0.00    -0.185 C  
ATOM      4  N   ALA A   1     -10.527  11.049  66.792  1.00  0.00    -0.241 N  
ATOM      5  C   ALA A   1      -8.069  10.822  66.281  1.00  0.00    -0.159 C  
ATOM      6  C   ALA A   1     -11.428  11.767  65.885  1.00  0.00    -0.207 C  
ATOM      7  O   ALA A   1      -8.018  12.007  66.930  1.00  0.00    -0.162 OA 
ATOM      8  C   ALA A   1     -10.962  10.644  68.060  1.00  0.00    -0.282 C  
ATOM      9  OXT ALA A   1      -7.068  10.221  65.916  1.00  0.00    -0.117 OA 
ATOM     10  C   ALA A   1     -11.398  12.395  63.444  1.00  0.00    -0.507 C  
ATOM     11  O   ALA A   1     -11.991  11.104  68.559  1.00  0.00    -0.526 OA 
ATOM     12  C   ALA A   1     -12.018  13.120  66.281  1.00  0.00    -0.473 C  
ATOM     13  C   ALA A   1     -12.115  13.707  63.776  1.00  0.00    -0.435 C  
ATOM     14  C   ALA A   1     -12.868  13.660  65.113  1.00  0.00    -0.382 C  
ENDROOT
BRANCH   8  15
ATOM     15  CA  ALA A   1     -10.110   9.560  68.811  1.00  0.00    -0.188 C  
ATOM     16  CB  ALA A   1     -10.727   8.175  68.591  1.00  0.00    -0.065 C  
BRANCH  15  17
ATOM     17  N   ALA A   1     -10.008   9.903  70.243  1.00  0.00    -0.350 NA 
ATOM     18  H   ALA A   1     -10.696  10.617  70.482  1.00  0.00     0.000 HD 
BRANCH  17  19
HETATM   19  C   UNK A   0     -10.116   8.758  71.180  1.00  0.00    -0.247 C  
BRANCH  19  20
HETATM   20  C   UNK A   0      -8.912   8.669  72.141  1.00  0.00    -0.270 C  
BRANCH  20  21
HETATM   21  C   UNK A   0      -8.113   7.362  72.001  1.00  0.00    -0.101 C  
BRANCH  21  22
HETATM   22  C   UNK A   0      -7.700   7.128  70.569  1.00  0.00    -0.094 A  
HETATM   23  C   UNK A   0      -6.855   8.032  69.912  1.00  0.00    -0.041 A  
HETATM   24  C   UNK A   0      -8.124   5.977  69.891  1.00  0.00    -0.117 A  
HETATM   25  C   UNK A   0      -6.455   7.797  68.597  1.00  0.00    -0.048 A  
HETATM   26  C   UNK A   0      -7.724   5.745  68.574  1.00  0.00    -0.093 A  
HETATM   27  C   UNK A   0      -6.890   6.654  67.926  1.00  0.00    -0.077 A  
ENDBRANCH  21  22
ENDBRANCH  20  21
ENDBRANCH  19  20
BRANCH  19  28
HETATM   28  C   UNK A   0     -11.409   8.905  72.009  1.00  0.00    -0.357 C  
HETATM   29  O   UNK A   0     -12.120   9.897  72.040  1.00  0.00    -0.287 OA 
BRANCH  28  30
HETATM   30  O   UNK A   0     -11.601   7.788  72.777  1.00  0.00    -0.362 OA 
BRANCH  30  31
HETATM   31  C   UNK A   0     -12.058   6.628  72.061  1.00  0.00    -0.310 C  
HETATM   32  C   UNK A   0     -11.299   5.420  72.582  1.00  0.00    -0.327 C  
ENDBRANCH  30  31
ENDBRANCH  28  30
ENDBRANCH  19  28
ENDBRANCH  17  19
ENDBRANCH  15  17
ENDBRANCH   8  15
TORSDOF 9
ENDMDL
MODEL       82
REMARK 921   NORMALIZED FREE ENERGY PREDICTED BY IDOCK:   -5.17 KCAL/MOL
REMARK 922        TOTAL FREE ENERGY PREDICTED BY IDOCK:   -9.84 KCAL/MOL
REMARK 923 INTER-LIGAND FREE ENERGY PREDICTED BY IDOCK:   -8.34 KCAL/MOL
REMARK 924 INTRA-LIGAND FREE ENERGY PREDICTED BY IDOCK:   -1.50 KCAL/MOL
REMARK 927      BINDING AFFINITY PREDICTED BY RF-SCORE:    0.00 PKD
ROOT
ATOM      1  C   ALA A   1     -11.563  13.165  65.797  1.00  0.00    -0.383 C  
ATOM      2  C   ALA A   1     -11.143  14.033  66.971  1.00  0.00    -0.312 C  
ATOM      3  CA  ALA A   1     -10.617  12.989  67.967  1.00  0.00    -0.235 C  
ATOM      4  N   ALA A   1     -10.140  11.858  67.123  1.00  0.00    -0.203 N  
ATOM      5  C   ALA A   1     -11.728  12.588  68.940  1.00  0.00    -0.322 C  
ATOM      6  C   ALA A   1     -10.408  12.161  65.713  1.00  0.00    -0.258 C  
ATOM      7  O   ALA A   1     -12.311  11.405  68.644  1.00  0.00    -0.491 OA 
ATOM      8  C   ALA A   1      -9.105  10.986  67.483  1.00  0.00    -0.137 C  
ATOM      9  OXT ALA A   1     -12.090  13.293  69.871  1.00  0.00    -0.323 OA 
ATOM     10  C   ALA A   1     -11.790  13.864  64.470  1.00  0.00    -0.449 C  
ATOM     11  O   ALA A   1      -8.577  10.245  66.653  1.00  0.00    -0.126 OA 
ATOM     12  C   ALA A   1     -10.800  11.051  64.738  1.00  0.00    -0.234 C  
ATOM     13  C   ALA A   1     -12.099  12.820  63.392  1.00  0.00    -0.619 C  
ATOM     14  C   ALA A   1     -11.080  11.672  63.355  1.00  0.00    -0.422 C  
ENDROOT
BRANCH   8  15
ATOM     15  CA  ALA A   1      -8.618  11.010  68.976  1.00  0.00    -0.068 C  
ATOM     16  CB  ALA A   1      -7.164  11.487  69.038  1.00  0.00    -0.106 C  
BRANCH  15  17
ATOM     17  N   ALA A   1      -8.793   9.676  69.584  1.00  0.00    -0.185 NA 
ATOM     18  H   ALA A   1      -8.012   9.469  70.205  1.00  0.00     0.000 HD 
BRANCH  17  19
HETATM   19  C   UNK A   0     -10.078   9.466  70.295  1.00  0.00    -0.240 C  
BRANCH  19  20
HETATM   20  C   UNK A   0     -10.990   8.451  69.575  1.00  0.00    -0.051 C  
BRANCH  20  21
HETATM   21  C   UNK A   0     -10.751   6.996  70.013  1.00  0.00    -0.267 C  
BRANCH  21  22
HETATM   22  C   UNK A   0     -10.470   6.110  68.824  1.00  0.00    -0.295 A  
HETATM   23  C   UNK A   0      -9.698   4.950  68.963  1.00  0.00    -0.245 A  
HETATM   24  C   UNK A   0     -11.018   6.416  67.570  1.00  0.00    -0.454 A  
HETATM   25  C   UNK A   0      -9.463   4.121  67.866  1.00  0.00    -0.219 A  
HETATM   26  C   UNK A   0     -10.781   5.586  66.473  1.00  0.00    -0.309 A  
HETATM   27  C   UNK A   0     -10.004   4.440  66.620  1.00  0.00    -0.234 A  
ENDBRANCH  21  22
ENDBRANCH  20  21
ENDBRANCH  19  20
BRANCH  19  28
HETATM   28  C   UNK A   0      -9.787   8.955  71.721  1.00  0.00    -0.315 C  
HETATM   29  O   UNK A   0     -10.630   8.704  72.569  1.00  0.00    -0.300 OA 
BRANCH  28  30
HETATM   30  O   UNK A   0      -8.435   8.903  71.931  1.00  0.00    -0.348 OA 
BRANCH  30  31
HETATM   31  C   UNK A   0      -7.967   7.715  72.591  1.00  0.00    -0.106 C  
HETATM   32  C   UNK A   0      -7.350   6.803  71.543  1.00  0.00    -0.085 C  
ENDBRANCH  30  31
ENDBRANCH  28  30
ENDBRANCH  19  28
ENDBRANCH  17  19
ENDBRANCH  15  17
ENDBRANCH   8  15
TORSDOF 9
ENDMDL
MODEL       83
REMARK 921   NORMALIZED FREE ENERGY PREDICTED BY IDOCK:   -5.17 KCAL/MOL
REMARK 922        TOTAL FREE ENERGY PREDICTED BY IDOCK:   -9.83 KCAL/MOL
REMARK 923 INTER-LIGAND FREE ENERGY PREDICTED BY IDOCK:   -8.50 KCAL/MOL
REMARK 924 INTRA-LIGAND FREE ENERGY PREDICTED BY IDOCK:   -1.33 KCAL/MOL
REMARK 927      BINDING AFFINITY PREDICTED BY RF-SCORE:    0.00 PKD
ROOT
ATOM      1  C   ALA A   1      -9.616   6.076  70.910  1.00  0.00    -0.196 C  
ATOM      2  C   ALA A   1     -11.062   6.296  70.498  1.00  0.00    -0.399 C  
ATOM      3  CA  ALA A   1     -11.008   7.706  69.891  1.00  0.00    -0.200 C  
ATOM      4  N   ALA A   1      -9.615   7.855  69.386  1.00  0.00    -0.160 N  
ATOM      5  C   ALA A   1     -11.380   8.746  70.951  1.00  0.00    -0.275 C  
ATOM      6  C   ALA A   1      -8.851   6.646  69.711  1.00  0.00    -0.144 C  
ATOM      7  O   ALA A   1     -10.315   9.384  71.484  1.00  0.00    -0.327 OA 
ATOM      8  C   ALA A   1      -9.251   8.660  68.300  1.00  0.00    -0.137 C  
ATOM      9  OXT ALA A   1     -12.528   8.948  71.318  1.00  0.00    -0.305 OA 
ATOM     10  C   ALA A   1      -9.196   4.650  71.212  1.00  0.00    -0.191 C  
ATOM     11  O   ALA A   1      -8.148   8.546  67.762  1.00  0.00    -0.113 OA 
ATOM     12  C   ALA A   1      -7.371   6.735  70.079  1.00  0.00    -0.085 C  
ATOM     13  C   ALA A   1      -7.692   4.614  71.503  1.00  0.00    -0.083 C  
ATOM     14  C   ALA A   1      -6.854   5.325  70.431  1.00  0.00    -0.048 C  
ENDROOT
BRANCH   8  15
ATOM     15  CA  ALA A   1     -10.310   9.690  67.768  1.00  0.00    -0.236 C  
ATOM     16  CB  ALA A   1     -10.098   9.923  66.269  1.00  0.00    -0.311 C  
BRANCH  15  17
ATOM     17  N   ALA A   1     -10.227  10.943  68.544  1.00  0.00    -0.177 NA 
ATOM     18  H   ALA A   1      -9.267  11.103  68.849  1.00  0.00     0.000 HD 
BRANCH  17  19
HETATM   19  C   UNK A   0     -10.751  12.150  67.859  1.00  0.00    -0.207 C  
BRANCH  19  20
HETATM   20  C   UNK A   0     -11.852  12.858  68.675  1.00  0.00    -0.347 C  
BRANCH  20  21
HETATM   21  C   UNK A   0     -11.796  12.545  70.180  1.00  0.00    -0.336 C  
BRANCH  21  22
HETATM   22  C   UNK A   0     -12.325  13.699  70.995  1.00  0.00    -0.436 A  
HETATM   23  C   UNK A   0     -13.577  13.621  71.618  1.00  0.00    -0.370 A  
HETATM   24  C   UNK A   0     -11.547  14.852  71.175  1.00  0.00    -0.347 A  
HETATM   25  C   UNK A   0     -14.050  14.681  72.392  1.00  0.00    -0.542 A  
HETATM   26  C   UNK A   0     -12.022  15.912  71.949  1.00  0.00    -0.588 A  
HETATM   27  C   UNK A   0     -13.273  15.827  72.557  1.00  0.00    -0.568 A  
ENDBRANCH  21  22
ENDBRANCH  20  21
ENDBRANCH  19  20
BRANCH  19  28
HETATM   28  C   UNK A   0      -9.590  13.139  67.622  1.00  0.00    -0.210 C  
HETATM   29  O   UNK A   0      -8.787  13.503  68.467  1.00  0.00    -0.166 OA 
BRANCH  28  30
HETATM   30  O   UNK A   0      -9.642  13.620  66.341  1.00  0.00    -0.277 OA 
BRANCH  30  31
HETATM   31  C   UNK A   0     -10.049  14.993  66.221  1.00  0.00    -0.282 C  
HETATM   32  C   UNK A   0     -10.846  15.139  64.935  1.00  0.00    -0.437 C  
ENDBRANCH  30  31
ENDBRANCH  28  30
ENDBRANCH  19  28
ENDBRANCH  17  19
ENDBRANCH  15  17
ENDBRANCH   8  15
TORSDOF 9
ENDMDL
MODEL       84
REMARK 921   NORMALIZED FREE ENERGY PREDICTED BY IDOCK:   -5.16 KCAL/MOL
REMARK 922        TOTAL FREE ENERGY PREDICTED BY IDOCK:   -9.82 KCAL/MOL
REMARK 923 INTER-LIGAND FREE ENERGY PREDICTED BY IDOCK:   -8.47 KCAL/MOL
REMARK 924 INTRA-LIGAND FREE ENERGY PREDICTED BY IDOCK:   -1.35 KCAL/MOL
REMARK 927      BINDING AFFINITY PREDICTED BY RF-SCORE:    0.00 PKD
ROOT
ATOM      1  C   ALA A   1     -10.583  15.036  66.002  1.00  0.00    -0.329 C  
ATOM      2  C   ALA A   1     -12.050  14.661  66.131  1.00  0.00    -0.213 C  
ATOM      3  CA  ALA A   1     -11.970  13.146  66.372  1.00  0.00    -0.402 C  
ATOM      4  N   ALA A   1     -10.649  12.929  67.024  1.00  0.00    -0.251 N  
ATOM      5  C   ALA A   1     -12.119  12.396  65.046  1.00  0.00    -0.407 C  
ATOM      6  C   ALA A   1      -9.942  14.211  67.122  1.00  0.00    -0.255 C  
ATOM      7  O   ALA A   1     -10.947  11.958  64.535  1.00  0.00    -0.296 OA 
ATOM      8  C   ALA A   1     -10.371  11.889  67.920  1.00  0.00    -0.198 C  
ATOM      9  OXT ALA A   1     -13.190  12.249  64.476  1.00  0.00    -0.799 OA 
ATOM     10  C   ALA A   1     -10.236  16.507  66.125  1.00  0.00    -0.360 C  
ATOM     11  O   ALA A   1      -9.361  11.906  68.625  1.00  0.00    -0.165 OA 
ATOM     12  C   ALA A   1      -8.424  14.278  66.966  1.00  0.00    -0.190 C  
ATOM     13  C   ALA A   1      -8.714  16.677  66.076  1.00  0.00    -0.239 C  
ATOM     14  C   ALA A   1      -7.973  15.750  67.051  1.00  0.00    -0.272 C  
ENDROOT
BRANCH   8  15
ATOM     15  CA  ALA A   1     -11.410  10.716  68.019  1.00  0.00    -0.278 C  
ATOM     16  CB  ALA A   1     -11.865  10.550  69.473  1.00  0.00    -0.287 C  
BRANCH  15  17
ATOM     17  N   ALA A   1     -10.823   9.477  67.474  1.00  0.00    -0.415 NA 
ATOM     18  H   ALA A   1     -10.146   9.701  66.746  1.00  0.00     0.000 HD 
BRANCH  17  19
HETATM   19  C   UNK A   0     -10.212   8.569  68.476  1.00  0.00    -0.198 C  
BRANCH  19  20
HETATM   20  C   UNK A   0     -10.467   7.082  68.155  1.00  0.00    -0.242 C  
BRANCH  20  21
HETATM   21  C   UNK A   0     -11.350   6.373  69.196  1.00  0.00    -0.366 C  
BRANCH  21  22
HETATM   22  C   UNK A   0     -10.982   6.795  70.597  1.00  0.00    -0.313 A  
HETATM   23  C   UNK A   0     -11.868   7.554  71.372  1.00  0.00    -0.321 A  
HETATM   24  C   UNK A   0      -9.761   6.393  71.158  1.00  0.00    -0.191 A  
HETATM   25  C   UNK A   0     -11.533   7.919  72.676  1.00  0.00    -0.454 A  
HETATM   26  C   UNK A   0      -9.427   6.760  72.463  1.00  0.00    -0.151 A  
HETATM   27  C   UNK A   0     -10.312   7.523  73.222  1.00  0.00    -0.412 A  
ENDBRANCH  21  22
ENDBRANCH  20  21
ENDBRANCH  19  20
BRANCH  19  28
HETATM   28  C   UNK A   0      -8.690   8.818  68.519  1.00  0.00    -0.135 C  
HETATM   29  O   UNK A   0      -8.029   8.985  69.532  1.00  0.00    -0.093 OA 
BRANCH  28  30
HETATM   30  O   UNK A   0      -8.196   8.911  67.245  1.00  0.00    -0.104 OA 
BRANCH  30  31
HETATM   31  C   UNK A   0      -6.792   8.635  67.114  1.00  0.00    -0.067 C  
HETATM   32  C   UNK A   0      -6.152   9.785  66.353  1.00  0.00    -0.064 C  
ENDBRANCH  30  31
ENDBRANCH  28  30
ENDBRANCH  19  28
ENDBRANCH  17  19
ENDBRANCH  15  17
ENDBRANCH   8  15
TORSDOF 9
ENDMDL
MODEL       85
REMARK 921   NORMALIZED FREE ENERGY PREDICTED BY IDOCK:   -5.16 KCAL/MOL
REMARK 922        TOTAL FREE ENERGY PREDICTED BY IDOCK:   -9.81 KCAL/MOL
REMARK 923 INTER-LIGAND FREE ENERGY PREDICTED BY IDOCK:   -8.83 KCAL/MOL
REMARK 924 INTRA-LIGAND FREE ENERGY PREDICTED BY IDOCK:   -0.98 KCAL/MOL
REMARK 927      BINDING AFFINITY PREDICTED BY RF-SCORE:    0.00 PKD
ROOT
ATOM      1  C   ALA A   1     -12.131  15.002  70.371  1.00  0.00    -0.384 C  
ATOM      2  C   ALA A   1     -12.063  15.813  69.088  1.00  0.00    -0.217 C  
ATOM      3  CA  ALA A   1     -11.340  14.845  68.138  1.00  0.00    -0.312 C  
ATOM      4  N   ALA A   1     -11.681  13.486  68.642  1.00  0.00    -0.332 N  
ATOM      5  C   ALA A   1      -9.837  15.131  68.144  1.00  0.00    -0.218 C  
ATOM      6  C   ALA A   1     -12.505  13.610  69.849  1.00  0.00    -0.167 C  
ATOM      7  O   ALA A   1      -9.122  14.268  68.899  1.00  0.00    -0.143 OA 
ATOM      8  C   ALA A   1     -11.760  12.343  67.837  1.00  0.00    -0.360 C  
ATOM      9  OXT ALA A   1      -9.333  16.080  67.560  1.00  0.00    -0.214 OA 
ATOM     10  C   ALA A   1     -13.102  15.476  71.435  1.00  0.00    -0.580 C  
ATOM     11  O   ALA A   1     -12.296  11.310  68.245  1.00  0.00    -0.542 OA 
ATOM     12  C   ALA A   1     -12.364  12.609  70.995  1.00  0.00    -0.307 C  
ATOM     13  C   ALA A   1     -13.109  14.481  72.599  1.00  0.00    -0.557 C  
ATOM     14  C   ALA A   1     -13.302  13.026  72.146  1.00  0.00    -0.622 C  
ENDROOT
BRANCH   8  15
ATOM     15  CA  ALA A   1     -11.172  12.432  66.384  1.00  0.00    -0.319 C  
ATOM     16  CB  ALA A   1     -12.133  13.216  65.485  1.00  0.00    -0.490 C  
BRANCH  15  17
ATOM     17  N   ALA A   1     -10.905  11.076  65.865  1.00  0.00    -0.171 NA 
ATOM     18  H   ALA A   1     -11.220  11.003  64.898  1.00  0.00     0.000 HD 
BRANCH  17  19
HETATM   19  C   UNK A   0      -9.498  10.620  65.978  1.00  0.00    -0.193 C  
BRANCH  19  20
HETATM   20  C   UNK A   0      -9.343   9.420  66.936  1.00  0.00    -0.188 C  
BRANCH  20  21
HETATM   21  C   UNK A   0     -10.597   8.533  67.013  1.00  0.00    -0.305 C  
BRANCH  21  22
HETATM   22  C   UNK A   0     -10.266   7.171  67.573  1.00  0.00    -0.272 A  
HETATM   23  C   UNK A   0     -10.812   6.747  68.791  1.00  0.00    -0.280 A  
HETATM   24  C   UNK A   0      -9.437   6.296  66.857  1.00  0.00    -0.157 A  
HETATM   25  C   UNK A   0     -10.522   5.477  69.291  1.00  0.00    -0.336 A  
HETATM   26  C   UNK A   0      -9.148   5.026  67.360  1.00  0.00    -0.120 A  
HETATM   27  C   UNK A   0      -9.689   4.617  68.577  1.00  0.00    -0.208 A  
ENDBRANCH  21  22
ENDBRANCH  20  21
ENDBRANCH  19  20
BRANCH  19  28
HETATM   28  C   UNK A   0      -8.987  10.212  64.580  1.00  0.00    -0.221 C  
HETATM   29  O   UNK A   0      -9.537  10.473  63.521  1.00  0.00    -0.280 OA 
BRANCH  28  30
HETATM   30  O   UNK A   0      -7.864   9.438  64.701  1.00  0.00    -0.110 OA 
BRANCH  30  31
HETATM   31  C   UNK A   0      -7.828   8.279  63.852  1.00  0.00    -0.147 C  
HETATM   32  C   UNK A   0      -6.438   8.179  63.246  1.00  0.00    -0.080 C  
ENDBRANCH  30  31
ENDBRANCH  28  30
ENDBRANCH  19  28
ENDBRANCH  17  19
ENDBRANCH  15  17
ENDBRANCH   8  15
TORSDOF 9
ENDMDL
MODEL       86
REMARK 921   NORMALIZED FREE ENERGY PREDICTED BY IDOCK:   -5.14 KCAL/MOL
REMARK 922        TOTAL FREE ENERGY PREDICTED BY IDOCK:   -9.79 KCAL/MOL
REMARK 923 INTER-LIGAND FREE ENERGY PREDICTED BY IDOCK:   -9.00 KCAL/MOL
REMARK 924 INTRA-LIGAND FREE ENERGY PREDICTED BY IDOCK:   -0.79 KCAL/MOL
REMARK 927      BINDING AFFINITY PREDICTED BY RF-SCORE:    0.00 PKD
ROOT
ATOM      1  C   ALA A   1      -9.032  17.655  66.209  1.00  0.00    -0.211 C  
ATOM      2  C   ALA A   1     -10.530  17.514  66.418  1.00  0.00    -0.277 C  
ATOM      3  CA  ALA A   1     -10.669  16.014  66.725  1.00  0.00    -0.259 C  
ATOM      4  N   ALA A   1      -9.364  15.624  67.329  1.00  0.00    -0.212 N  
ATOM      5  C   ALA A   1     -10.994  15.246  65.443  1.00  0.00    -0.372 C  
ATOM      6  C   ALA A   1      -8.468  16.784  67.337  1.00  0.00    -0.189 C  
ATOM      7  O   ALA A   1      -9.930  14.614  64.902  1.00  0.00    -0.301 OA 
ATOM      8  C   ALA A   1      -9.203  14.589  68.258  1.00  0.00    -0.201 C  
ATOM      9  OXT ALA A   1     -12.103  15.242  64.927  1.00  0.00    -0.186 OA 
ATOM     10  C   ALA A   1      -8.460  19.059  66.250  1.00  0.00    -0.289 C  
ATOM     11  O   ALA A   1      -8.167  14.478  68.917  1.00  0.00    -0.149 OA 
ATOM     12  C   ALA A   1      -6.966  16.612  67.112  1.00  0.00    -0.226 C  
ATOM     13  C   ALA A   1      -6.934  18.991  66.127  1.00  0.00    -0.272 C  
ATOM     14  C   ALA A   1      -6.295  18.000  67.110  1.00  0.00    -0.185 C  
ENDROOT
BRANCH   8  15
ATOM     15  CA  ALA A   1     -10.401  13.594  68.457  1.00  0.00    -0.243 C  
ATOM     16  CB  ALA A   1     -11.419  14.197  69.429  1.00  0.00    -0.337 C  
BRANCH  15  17
ATOM     17  N   ALA A   1      -9.897  12.285  68.918  1.00  0.00    -0.422 NA 
ATOM     18  H   ALA A   1     -10.215  12.104  69.870  1.00  0.00     0.000 HD 
BRANCH  17  19
HETATM   19  C   UNK A   0     -10.227  11.134  68.043  1.00  0.00    -0.181 C  
BRANCH  19  20
HETATM   20  C   UNK A   0     -11.148  10.110  68.739  1.00  0.00    -0.250 C  
BRANCH  20  21
HETATM   21  C   UNK A   0     -11.029  10.123  70.273  1.00  0.00    -0.380 C  
BRANCH  21  22
HETATM   22  C   UNK A   0     -11.093   8.724  70.835  1.00  0.00    -0.320 A  
HETATM   23  C   UNK A   0     -11.321   8.512  72.200  1.00  0.00    -0.442 A  
HETATM   24  C   UNK A   0     -10.966   7.615  69.986  1.00  0.00    -0.237 A  
HETATM   25  C   UNK A   0     -11.405   7.217  72.710  1.00  0.00    -0.285 A  
HETATM   26  C   UNK A   0     -11.049   6.320  70.498  1.00  0.00    -0.399 A  
HETATM   27  C   UNK A   0     -11.268   6.120  71.860  1.00  0.00    -0.336 A  
ENDBRANCH  21  22
ENDBRANCH  20  21
ENDBRANCH  19  20
BRANCH  19  28
HETATM   28  C   UNK A   0     -10.928  11.652  66.770  1.00  0.00    -0.290 C  
HETATM   29  O   UNK A   0     -12.085  12.037  66.706  1.00  0.00    -0.613 OA 
BRANCH  28  30
HETATM   30  O   UNK A   0     -10.086  11.539  65.695  1.00  0.00    -0.218 OA 
BRANCH  30  31
HETATM   31  C   UNK A   0     -10.724  11.183  64.458  1.00  0.00    -0.297 C  
HETATM   32  C   UNK A   0      -9.833  11.645  63.316  1.00  0.00    -0.428 C  
ENDBRANCH  30  31
ENDBRANCH  28  30
ENDBRANCH  19  28
ENDBRANCH  17  19
ENDBRANCH  15  17
ENDBRANCH   8  15
TORSDOF 9
ENDMDL
MODEL       87
REMARK 921   NORMALIZED FREE ENERGY PREDICTED BY IDOCK:   -5.14 KCAL/MOL
REMARK 922        TOTAL FREE ENERGY PREDICTED BY IDOCK:   -9.79 KCAL/MOL
REMARK 923 INTER-LIGAND FREE ENERGY PREDICTED BY IDOCK:   -8.14 KCAL/MOL
REMARK 924 INTRA-LIGAND FREE ENERGY PREDICTED BY IDOCK:   -1.65 KCAL/MOL
REMARK 927      BINDING AFFINITY PREDICTED BY RF-SCORE:    0.00 PKD
ROOT
ATOM      1  C   ALA A   1      -8.031   7.858  65.030  1.00  0.00    -0.137 C  
ATOM      2  C   ALA A   1      -7.404   8.992  64.237  1.00  0.00    -0.103 C  
ATOM      3  CA  ALA A   1      -8.042  10.228  64.891  1.00  0.00    -0.154 C  
ATOM      4  N   ALA A   1      -8.347   9.809  66.287  1.00  0.00    -0.116 N  
ATOM      5  C   ALA A   1      -9.283  10.653  64.104  1.00  0.00    -0.236 C  
ATOM      6  C   ALA A   1      -7.978   8.401  66.462  1.00  0.00    -0.096 C  
ATOM      7  O   ALA A   1     -10.446  10.265  64.671  1.00  0.00    -0.185 OA 
ATOM      8  C   ALA A   1      -8.380  10.681  67.382  1.00  0.00    -0.119 C  
ATOM      9  OXT ALA A   1      -9.229  11.247  63.036  1.00  0.00    -0.300 OA 
ATOM     10  C   ALA A   1      -7.370   6.497  64.925  1.00  0.00    -0.076 C  
ATOM     11  O   ALA A   1      -8.375  10.254  68.539  1.00  0.00    -0.107 OA 
ATOM     12  C   ALA A   1      -8.807   7.483  67.359  1.00  0.00    -0.127 C  
ATOM     13  C   ALA A   1      -8.073   5.516  65.869  1.00  0.00    -0.110 C  
ATOM     14  C   ALA A   1      -8.223   6.057  67.298  1.00  0.00    -0.106 C  
ENDROOT
BRANCH   8  15
ATOM     15  CA  ALA A   1      -8.390  12.223  67.087  1.00  0.00    -0.183 C  
ATOM     16  CB  ALA A   1      -7.046  12.836  67.491  1.00  0.00    -0.148 C  
BRANCH  15  17
ATOM     17  N   ALA A   1      -9.525  12.861  67.783  1.00  0.00    -0.195 NA 
ATOM     18  H   ALA A   1      -9.373  13.867  67.852  1.00  0.00     0.000 HD 
BRANCH  17  19
HETATM   19  C   UNK A   0     -10.862  12.587  67.201  1.00  0.00    -0.250 C  
BRANCH  19  20
HETATM   20  C   UNK A   0     -11.767  11.785  68.160  1.00  0.00    -0.377 C  
BRANCH  20  21
HETATM   21  C   UNK A   0     -11.448  12.023  69.645  1.00  0.00    -0.322 C  
BRANCH  21  22
HETATM   22  C   UNK A   0     -11.849  10.834  70.484  1.00  0.00    -0.453 A  
HETATM   23  C   UNK A   0     -12.927  10.919  71.375  1.00  0.00    -0.527 A  
HETATM   24  C   UNK A   0     -11.173   9.614  70.350  1.00  0.00    -0.342 A  
HETATM   25  C   UNK A   0     -13.310   9.810  72.128  1.00  0.00    -0.527 A  
HETATM   26  C   UNK A   0     -11.557   8.505  71.106  1.00  0.00    -0.325 A  
HETATM   27  C   UNK A   0     -12.624   8.603  71.995  1.00  0.00    -0.434 A  
ENDBRANCH  21  22
ENDBRANCH  20  21
ENDBRANCH  19  20
BRANCH  19  28
HETATM   28  C   UNK A   0     -11.550  13.927  66.866  1.00  0.00    -0.378 C  
HETATM   29  O   UNK A   0     -12.008  14.711  67.682  1.00  0.00    -0.362 OA 
BRANCH  28  30
HETATM   30  O   UNK A   0     -11.650  14.072  65.508  1.00  0.00    -0.318 OA 
BRANCH  30  31
HETATM   31  C   UNK A   0     -12.505  13.120  64.854  1.00  0.00    -0.433 C  
HETATM   32  C   UNK A   0     -12.106  13.052  63.390  1.00  0.00    -0.591 C  
ENDBRANCH  30  31
ENDBRANCH  28  30
ENDBRANCH  19  28
ENDBRANCH  17  19
ENDBRANCH  15  17
ENDBRANCH   8  15
TORSDOF 9
ENDMDL
MODEL       88
REMARK 921   NORMALIZED FREE ENERGY PREDICTED BY IDOCK:   -5.11 KCAL/MOL
REMARK 922        TOTAL FREE ENERGY PREDICTED BY IDOCK:   -9.75 KCAL/MOL
REMARK 923 INTER-LIGAND FREE ENERGY PREDICTED BY IDOCK:   -8.07 KCAL/MOL
REMARK 924 INTRA-LIGAND FREE ENERGY PREDICTED BY IDOCK:   -1.68 KCAL/MOL
REMARK 927      BINDING AFFINITY PREDICTED BY RF-SCORE:    0.00 PKD
ROOT
ATOM      1  C   ALA A   1      -8.655   7.308  65.266  1.00  0.00    -0.002 C  
ATOM      2  C   ALA A   1      -7.455   8.104  64.782  1.00  0.00    -0.094 C  
ATOM      3  CA  ALA A   1      -7.878   9.546  65.103  1.00  0.00    -0.113 C  
ATOM      4  N   ALA A   1      -8.807   9.425  66.260  1.00  0.00    -0.142 N  
ATOM      5  C   ALA A   1      -8.526  10.187  63.874  1.00  0.00    -0.181 C  
ATOM      6  C   ALA A   1      -8.988   8.007  66.589  1.00  0.00    -0.150 C  
ATOM      7  O   ALA A   1      -9.876  10.218  63.925  1.00  0.00    -0.305 OA 
ATOM      8  C   ALA A   1      -8.986  10.413  67.236  1.00  0.00    -0.135 C  
ATOM      9  OXT ALA A   1      -7.887  10.589  62.912  1.00  0.00    -0.152 OA 
ATOM     10  C   ALA A   1      -8.460   5.817  65.458  1.00  0.00    -0.150 C  
ATOM     11  O   ALA A   1      -9.556  10.164  68.300  1.00  0.00    -0.138 OA 
ATOM     12  C   ALA A   1     -10.337   7.487  67.085  1.00  0.00    -0.384 C  
ATOM     13  C   ALA A   1      -9.736   5.208  66.048  1.00  0.00    -0.182 C  
ATOM     14  C   ALA A   1     -10.246   5.961  67.285  1.00  0.00    -0.242 C  
ENDROOT
BRANCH   8  15
ATOM     15  CA  ALA A   1      -8.405  11.842  66.941  1.00  0.00    -0.170 C  
ATOM     16  CB  ALA A   1      -8.009  12.520  68.256  1.00  0.00    -0.153 C  
BRANCH  15  17
ATOM     17  N   ALA A   1      -9.387  12.637  66.177  1.00  0.00    -0.402 NA 
ATOM     18  H   ALA A   1      -9.830  12.055  65.467  1.00  0.00     0.000 HD 
BRANCH  17  19
HETATM   19  C   UNK A   0     -10.420  13.322  66.992  1.00  0.00    -0.249 C  
BRANCH  19  20
HETATM   20  C   UNK A   0     -10.554  14.817  66.634  1.00  0.00    -0.299 C  
BRANCH  20  21
HETATM   21  C   UNK A   0      -9.244  15.447  66.131  1.00  0.00    -0.362 C  
BRANCH  21  22
HETATM   22  C   UNK A   0      -9.013  16.797  66.763  1.00  0.00    -0.265 A  
HETATM   23  C   UNK A   0      -9.744  17.917  66.346  1.00  0.00    -0.321 A  
HETATM   24  C   UNK A   0      -8.090  16.939  67.809  1.00  0.00    -0.188 A  
HETATM   25  C   UNK A   0      -9.543  19.157  66.951  1.00  0.00    -0.379 A  
HETATM   26  C   UNK A   0      -7.890  18.181  68.412  1.00  0.00    -0.306 A  
HETATM   27  C   UNK A   0      -8.616  19.290  67.984  1.00  0.00    -0.357 A  
ENDBRANCH  21  22
ENDBRANCH  20  21
ENDBRANCH  19  20
BRANCH  19  28
HETATM   28  C   UNK A   0     -11.780  12.630  66.768  1.00  0.00    -0.392 C  
HETATM   29  O   UNK A   0     -12.182  11.648  67.372  1.00  0.00    -0.458 OA 
BRANCH  28  30
HETATM   30  O   UNK A   0     -12.442  13.226  65.727  1.00  0.00    -0.448 OA 
BRANCH  30  31
HETATM   31  C   UNK A   0     -12.611  12.403  64.562  1.00  0.00    -0.391 C  
HETATM   32  C   UNK A   0     -12.086  13.171  63.360  1.00  0.00    -0.558 C  
ENDBRANCH  30  31
ENDBRANCH  28  30
ENDBRANCH  19  28
ENDBRANCH  17  19
ENDBRANCH  15  17
ENDBRANCH   8  15
TORSDOF 9
ENDMDL
MODEL       89
REMARK 921   NORMALIZED FREE ENERGY PREDICTED BY IDOCK:   -5.10 KCAL/MOL
REMARK 922        TOTAL FREE ENERGY PREDICTED BY IDOCK:   -9.73 KCAL/MOL
REMARK 923 INTER-LIGAND FREE ENERGY PREDICTED BY IDOCK:   -9.05 KCAL/MOL
REMARK 924 INTRA-LIGAND FREE ENERGY PREDICTED BY IDOCK:   -0.68 KCAL/MOL
REMARK 927      BINDING AFFINITY PREDICTED BY RF-SCORE:    0.00 PKD
ROOT
ATOM      1  C   ALA A   1      -8.840   8.011  66.772  1.00  0.00    -0.157 C  
ATOM      2  C   ALA A   1     -10.329   8.102  67.056  1.00  0.00    -0.403 C  
ATOM      3  CA  ALA A   1     -10.360   8.096  68.592  1.00  0.00    -0.200 C  
ATOM      4  N   ALA A   1      -9.056   8.682  69.006  1.00  0.00    -0.145 N  
ATOM      5  C   ALA A   1     -10.570   6.669  69.105  1.00  0.00    -0.244 C  
ATOM      6  C   ALA A   1      -8.256   8.973  67.811  1.00  0.00    -0.109 C  
ATOM      7  O   ALA A   1      -9.436   6.075  69.538  1.00  0.00    -0.137 OA 
ATOM      8  C   ALA A   1      -8.852   9.395  70.194  1.00  0.00    -0.223 C  
ATOM      9  OXT ALA A   1     -11.652   6.100  69.081  1.00  0.00    -0.287 OA 
ATOM     10  C   ALA A   1      -8.384   8.363  65.369  1.00  0.00    -0.166 C  
ATOM     11  O   ALA A   1      -7.839  10.077  70.364  1.00  0.00    -0.216 OA 
ATOM     12  C   ALA A   1      -6.737   8.805  67.829  1.00  0.00    -0.066 C  
ATOM     13  C   ALA A   1      -6.854   8.317  65.304  1.00  0.00    -0.059 C  
ATOM     14  C   ALA A   1      -6.179   9.118  66.427  1.00  0.00    -0.065 C  
ENDROOT
BRANCH   8  15
ATOM     15  CA  ALA A   1      -9.974   9.322  71.290  1.00  0.00    -0.271 C  
ATOM     16  CB  ALA A   1      -9.944   7.950  71.970  1.00  0.00    -0.251 C  
BRANCH  15  17
ATOM     17  N   ALA A   1     -11.288   9.615  70.685  1.00  0.00    -0.288 NA 
ATOM     18  H   ALA A   1     -12.031   9.190  71.238  1.00  0.00     0.000 HD 
BRANCH  17  19
HETATM   19  C   UNK A   0     -11.578  11.053  70.463  1.00  0.00    -0.245 C  
BRANCH  19  20
HETATM   20  C   UNK A   0     -11.953  11.359  68.998  1.00  0.00    -0.387 C  
BRANCH  20  21
HETATM   21  C   UNK A   0     -10.754  11.795  68.138  1.00  0.00    -0.247 C  
BRANCH  21  22
HETATM   22  C   UNK A   0     -11.160  11.983  66.696  1.00  0.00    -0.358 A  
HETATM   23  C   UNK A   0     -12.119  12.939  66.342  1.00  0.00    -0.400 A  
HETATM   24  C   UNK A   0     -10.547  11.227  65.686  1.00  0.00    -0.303 A  
HETATM   25  C   UNK A   0     -12.471  13.126  65.005  1.00  0.00    -0.516 A  
HETATM   26  C   UNK A   0     -10.901  11.415  64.349  1.00  0.00    -0.397 A  
HETATM   27  C   UNK A   0     -11.863  12.363  64.008  1.00  0.00    -0.521 A  
ENDBRANCH  21  22
ENDBRANCH  20  21
ENDBRANCH  19  20
BRANCH  19  28
HETATM   28  C   UNK A   0     -12.746  11.479  71.377  1.00  0.00    -0.364 C  
HETATM   29  O   UNK A   0     -13.406  10.728  72.078  1.00  0.00    -0.447 OA 
BRANCH  28  30
HETATM   30  O   UNK A   0     -12.994  12.817  71.224  1.00  0.00    -0.321 OA 
BRANCH  30  31
HETATM   31  C   UNK A   0     -13.786  13.412  72.265  1.00  0.00    -0.607 C  
HETATM   32  C   UNK A   0     -14.354  14.720  71.738  1.00  0.00    -0.656 C  
ENDBRANCH  30  31
ENDBRANCH  28  30
ENDBRANCH  19  28
ENDBRANCH  17  19
ENDBRANCH  15  17
ENDBRANCH   8  15
TORSDOF 9
ENDMDL
MODEL       90
REMARK 921   NORMALIZED FREE ENERGY PREDICTED BY IDOCK:   -5.09 KCAL/MOL
REMARK 922        TOTAL FREE ENERGY PREDICTED BY IDOCK:   -9.72 KCAL/MOL
REMARK 923 INTER-LIGAND FREE ENERGY PREDICTED BY IDOCK:   -8.61 KCAL/MOL
REMARK 924 INTRA-LIGAND FREE ENERGY PREDICTED BY IDOCK:   -1.10 KCAL/MOL
REMARK 927      BINDING AFFINITY PREDICTED BY RF-SCORE:    0.00 PKD
ROOT
ATOM      1  C   ALA A   1      -7.211   6.855  68.828  1.00  0.00    -0.091 C  
ATOM      2  C   ALA A   1      -7.430   7.547  70.163  1.00  0.00    -0.086 C  
ATOM      3  CA  ALA A   1      -8.321   8.734  69.764  1.00  0.00    -0.127 C  
ATOM      4  N   ALA A   1      -9.058   8.271  68.555  1.00  0.00    -0.137 N  
ATOM      5  C   ALA A   1      -7.459   9.972  69.508  1.00  0.00    -0.123 C  
ATOM      6  C   ALA A   1      -8.608   6.921  68.202  1.00  0.00    -0.123 C  
ATOM      7  O   ALA A   1      -7.246  10.226  68.198  1.00  0.00    -0.081 OA 
ATOM      8  C   ALA A   1     -10.333   8.719  68.188  1.00  0.00    -0.216 C  
ATOM      9  OXT ALA A   1      -6.968  10.644  70.404  1.00  0.00    -0.276 OA 
ATOM     10  C   ALA A   1      -6.685   5.433  68.868  1.00  0.00    -0.053 C  
ATOM     11  O   ALA A   1     -11.000   8.122  67.342  1.00  0.00    -0.138 OA 
ATOM     12  C   ALA A   1      -8.504   6.491  66.739  1.00  0.00    -0.113 C  
ATOM     13  C   ALA A   1      -6.632   4.870  67.444  1.00  0.00    -0.050 C  
ATOM     14  C   ALA A   1      -7.948   5.055  66.675  1.00  0.00    -0.107 C  
ENDROOT
BRANCH   8  15
ATOM     15  CA  ALA A   1     -10.897   9.990  68.918  1.00  0.00    -0.220 C  
ATOM     16  CB  ALA A   1     -11.420   9.601  70.304  1.00  0.00    -0.288 C  
BRANCH  15  17
ATOM     17  N   ALA A   1     -11.939  10.626  68.088  1.00  0.00    -0.783 NA 
ATOM     18  H   ALA A   1     -12.845  10.559  68.551  1.00  0.00     0.000 HD 
BRANCH  17  19
HETATM   19  C   UNK A   0     -11.669  12.032  67.698  1.00  0.00    -0.294 C  
BRANCH  19  20
HETATM   20  C   UNK A   0     -10.822  12.781  68.747  1.00  0.00    -0.270 C  
BRANCH  20  21
HETATM   21  C   UNK A   0     -11.361  14.183  69.082  1.00  0.00    -0.318 C  
BRANCH  21  22
HETATM   22  C   UNK A   0     -12.328  14.131  70.239  1.00  0.00    -0.421 A  
HETATM   23  C   UNK A   0     -12.534  12.940  70.946  1.00  0.00    -0.383 A  
HETATM   24  C   UNK A   0     -13.001  15.291  70.649  1.00  0.00    -0.442 A  
HETATM   25  C   UNK A   0     -13.410  12.904  72.031  1.00  0.00    -0.579 A  
HETATM   26  C   UNK A   0     -13.878  15.253  71.735  1.00  0.00    -0.622 A  
HETATM   27  C   UNK A   0     -14.083  14.060  72.425  1.00  0.00    -0.576 A  
ENDBRANCH  21  22
ENDBRANCH  20  21
ENDBRANCH  19  20
BRANCH  19  28
HETATM   28  C   UNK A   0     -10.920  12.046  66.348  1.00  0.00    -0.296 C  
HETATM   29  O   UNK A   0     -10.699  11.067  65.652  1.00  0.00    -0.231 OA 
BRANCH  28  30
HETATM   30  O   UNK A   0     -10.462  13.308  66.082  1.00  0.00    -0.283 OA 
BRANCH  30  31
HETATM   31  C   UNK A   0     -10.675  13.762  64.736  1.00  0.00    -0.416 C  
HETATM   32  C   UNK A   0     -12.136  14.156  64.594  1.00  0.00    -0.469 C  
ENDBRANCH  30  31
ENDBRANCH  28  30
ENDBRANCH  19  28
ENDBRANCH  17  19
ENDBRANCH  15  17
ENDBRANCH   8  15
TORSDOF 9
ENDMDL
MODEL       91
REMARK 921   NORMALIZED FREE ENERGY PREDICTED BY IDOCK:   -5.06 KCAL/MOL
REMARK 922        TOTAL FREE ENERGY PREDICTED BY IDOCK:   -9.67 KCAL/MOL
REMARK 923 INTER-LIGAND FREE ENERGY PREDICTED BY IDOCK:   -7.96 KCAL/MOL
REMARK 924 INTRA-LIGAND FREE ENERGY PREDICTED BY IDOCK:   -1.71 KCAL/MOL
REMARK 927      BINDING AFFINITY PREDICTED BY RF-SCORE:    0.00 PKD
ROOT
ATOM      1  C   ALA A   1     -11.348   5.952  72.320  1.00  0.00    -0.351 C  
ATOM      2  C   ALA A   1     -12.383   6.870  71.693  1.00  0.00    -0.413 C  
ATOM      3  CA  ALA A   1     -11.521   7.728  70.754  1.00  0.00    -0.272 C  
ATOM      4  N   ALA A   1     -10.362   6.863  70.400  1.00  0.00    -0.199 N  
ATOM      5  C   ALA A   1     -11.114   9.025  71.456  1.00  0.00    -0.349 C  
ATOM      6  C   ALA A   1     -10.473   5.588  71.116  1.00  0.00    -0.236 C  
ATOM      7  O   ALA A   1      -9.849   9.012  71.932  1.00  0.00    -0.323 OA 
ATOM      8  C   ALA A   1      -9.654   6.946  69.195  1.00  0.00    -0.144 C  
ATOM      9  OXT ALA A   1     -11.876   9.967  71.617  1.00  0.00    -0.365 OA 
ATOM     10  C   ALA A   1     -11.864   4.714  73.028  1.00  0.00    -0.060 C  
ATOM     11  O   ALA A   1      -8.885   6.050  68.842  1.00  0.00    -0.120 OA 
ATOM     12  C   ALA A   1      -9.224   4.868  71.625  1.00  0.00    -0.179 C  
ATOM     13  C   ALA A   1     -10.678   3.866  73.499  1.00  0.00    -0.305 C  
ATOM     14  C   ALA A   1      -9.651   3.599  72.388  1.00  0.00    -0.200 C  
ENDROOT
BRANCH   8  15
ATOM     15  CA  ALA A   1      -9.898   8.207  68.291  1.00  0.00    -0.171 C  
ATOM     16  CB  ALA A   1     -10.087   7.772  66.835  1.00  0.00    -0.356 C  
BRANCH  15  17
ATOM     17  N   ALA A   1      -8.783   9.162  68.447  1.00  0.00    -0.129 NA 
ATOM     18  H   ALA A   1      -7.943   8.795  67.999  1.00  0.00     0.000 HD 
BRANCH  17  19
HETATM   19  C   UNK A   0      -9.055  10.539  67.969  1.00  0.00    -0.138 C  
BRANCH  19  20
HETATM   20  C   UNK A   0     -10.238  11.197  68.710  1.00  0.00    -0.219 C  
BRANCH  20  21
HETATM   21  C   UNK A   0     -11.520  11.278  67.866  1.00  0.00    -0.360 C  
BRANCH  21  22
HETATM   22  C   UNK A   0     -11.419  12.368  66.827  1.00  0.00    -0.423 A  
HETATM   23  C   UNK A   0     -10.996  12.077  65.524  1.00  0.00    -0.345 A  
HETATM   24  C   UNK A   0     -11.791  13.683  67.145  1.00  0.00    -0.435 A  
HETATM   25  C   UNK A   0     -10.929  13.085  64.562  1.00  0.00    -0.381 A  
HETATM   26  C   UNK A   0     -11.722  14.689  66.180  1.00  0.00    -0.316 A  
HETATM   27  C   UNK A   0     -11.291  14.391  64.889  1.00  0.00    -0.380 A  
ENDBRANCH  21  22
ENDBRANCH  20  21
ENDBRANCH  19  20
BRANCH  19  28
HETATM   28  C   UNK A   0      -7.793  11.403  68.175  1.00  0.00    -0.130 C  
HETATM   29  O   UNK A   0      -7.003  11.292  69.099  1.00  0.00    -0.095 OA 
BRANCH  28  30
HETATM   30  O   UNK A   0      -7.731  12.375  67.213  1.00  0.00    -0.160 OA 
BRANCH  30  31
HETATM   31  C   UNK A   0      -7.299  13.665  67.677  1.00  0.00    -0.176 C  
HETATM   32  C   UNK A   0      -8.243  14.712  67.108  1.00  0.00    -0.227 C  
ENDBRANCH  30  31
ENDBRANCH  28  30
ENDBRANCH  19  28
ENDBRANCH  17  19
ENDBRANCH  15  17
ENDBRANCH   8  15
TORSDOF 9
ENDMDL
MODEL       92
REMARK 921   NORMALIZED FREE ENERGY PREDICTED BY IDOCK:   -5.05 KCAL/MOL
REMARK 922        TOTAL FREE ENERGY PREDICTED BY IDOCK:   -9.66 KCAL/MOL
REMARK 923 INTER-LIGAND FREE ENERGY PREDICTED BY IDOCK:   -8.18 KCAL/MOL
REMARK 924 INTRA-LIGAND FREE ENERGY PREDICTED BY IDOCK:   -1.48 KCAL/MOL
REMARK 927      BINDING AFFINITY PREDICTED BY RF-SCORE:    0.00 PKD
ROOT
ATOM      1  C   ALA A   1     -11.221  13.330  67.184  1.00  0.00    -0.327 C  
ATOM      2  C   ALA A   1     -10.456  13.094  68.475  1.00  0.00    -0.262 C  
ATOM      3  CA  ALA A   1     -10.555  11.569  68.629  1.00  0.00    -0.208 C  
ATOM      4  N   ALA A   1     -10.686  11.050  67.239  1.00  0.00    -0.249 N  
ATOM      5  C   ALA A   1     -11.744  11.209  69.522  1.00  0.00    -0.335 C  
ATOM      6  C   ALA A   1     -10.725  12.178  66.303  1.00  0.00    -0.261 C  
ATOM      7  O   ALA A   1     -12.833  10.795  68.837  1.00  0.00     0.061 OA 
ATOM      8  C   ALA A   1     -10.240   9.790  66.821  1.00  0.00    -0.233 C  
ATOM      9  OXT ALA A   1     -11.730  11.330  70.738  1.00  0.00    -0.276 OA 
ATOM     10  C   ALA A   1     -11.028  14.673  66.505  1.00  0.00    -0.318 C  
ATOM     11  O   ALA A   1     -10.132   9.515  65.625  1.00  0.00    -0.285 OA 
ATOM     12  C   ALA A   1     -11.593  12.120  65.047  1.00  0.00    -0.365 C  
ATOM     13  C   ALA A   1     -11.788  14.684  65.175  1.00  0.00    -0.351 C  
ATOM     14  C   ALA A   1     -11.483  13.463  64.297  1.00  0.00    -0.429 C  
ENDROOT
BRANCH   8  15
ATOM     15  CA  ALA A   1      -9.850   8.750  67.931  1.00  0.00    -0.169 C  
ATOM     16  CB  ALA A   1      -8.369   8.382  67.798  1.00  0.00    -0.130 C  
BRANCH  15  17
ATOM     17  N   ALA A   1     -10.728   7.566  67.843  1.00  0.00    -0.425 NA 
ATOM     18  H   ALA A   1     -11.126   7.495  66.907  1.00  0.00     0.000 HD 
BRANCH  17  19
HETATM   19  C   UNK A   0     -10.099   6.279  68.227  1.00  0.00    -0.153 C  
BRANCH  19  20
HETATM   20  C   UNK A   0     -10.818   5.604  69.414  1.00  0.00    -0.334 C  
BRANCH  20  21
HETATM   21  C   UNK A   0     -11.611   6.589  70.290  1.00  0.00    -0.473 C  
BRANCH  21  22
HETATM   22  C   UNK A   0     -10.828   6.972  71.522  1.00  0.00    -0.255 A  
HETATM   23  C   UNK A   0      -9.928   8.045  71.492  1.00  0.00    -0.225 A  
HETATM   24  C   UNK A   0     -11.024   6.282  72.726  1.00  0.00    -0.291 A  
HETATM   25  C   UNK A   0      -9.226   8.411  72.641  1.00  0.00    -0.325 A  
HETATM   26  C   UNK A   0     -10.320   6.649  73.874  1.00  0.00    -0.385 A  
HETATM   27  C   UNK A   0      -9.421   7.712  73.832  1.00  0.00    -0.230 A  
ENDBRANCH  21  22
ENDBRANCH  20  21
ENDBRANCH  19  20
BRANCH  19  28
HETATM   28  C   UNK A   0     -10.126   5.323  67.016  1.00  0.00    -0.210 C  
HETATM   29  O   UNK A   0     -11.027   5.247  66.195  1.00  0.00    -0.213 OA 
BRANCH  28  30
HETATM   30  O   UNK A   0      -9.027   4.507  67.042  1.00  0.00    -0.111 OA 
BRANCH  30  31
HETATM   31  C   UNK A   0      -9.310   3.100  66.961  1.00  0.00    -0.150 C  
HETATM   32  C   UNK A   0      -9.393   2.551  68.375  1.00  0.00    -0.259 C  
ENDBRANCH  30  31
ENDBRANCH  28  30
ENDBRANCH  19  28
ENDBRANCH  17  19
ENDBRANCH  15  17
ENDBRANCH   8  15
TORSDOF 9
ENDMDL
MODEL       93
REMARK 921   NORMALIZED FREE ENERGY PREDICTED BY IDOCK:   -5.05 KCAL/MOL
REMARK 922        TOTAL FREE ENERGY PREDICTED BY IDOCK:   -9.65 KCAL/MOL
REMARK 923 INTER-LIGAND FREE ENERGY PREDICTED BY IDOCK:   -8.64 KCAL/MOL
REMARK 924 INTRA-LIGAND FREE ENERGY PREDICTED BY IDOCK:   -1.02 KCAL/MOL
REMARK 927      BINDING AFFINITY PREDICTED BY RF-SCORE:    0.00 PKD
ROOT
ATOM      1  C   ALA A   1      -8.251  18.285  66.929  1.00  0.00    -0.260 C  
ATOM      2  C   ALA A   1      -7.294  17.316  66.255  1.00  0.00    -0.342 C  
ATOM      3  CA  ALA A   1      -7.441  16.062  67.131  1.00  0.00    -0.218 C  
ATOM      4  N   ALA A   1      -8.820  16.143  67.688  1.00  0.00    -0.185 N  
ATOM      5  C   ALA A   1      -6.355  16.047  68.208  1.00  0.00    -0.116 C  
ATOM      6  C   ALA A   1      -9.453  17.385  67.235  1.00  0.00    -0.251 C  
ATOM      7  O   ALA A   1      -6.789  16.443  69.425  1.00  0.00    -0.210 OA 
ATOM      8  C   ALA A   1      -9.596  15.031  68.037  1.00  0.00    -0.208 C  
ATOM      9  OXT ALA A   1      -5.190  15.751  67.982  1.00  0.00    -0.107 OA 
ATOM     10  C   ALA A   1      -8.660  19.511  66.136  1.00  0.00    -0.326 C  
ATOM     11  O   ALA A   1     -10.807  15.136  68.241  1.00  0.00    -0.247 OA 
ATOM     12  C   ALA A   1     -10.410  18.151  68.148  1.00  0.00    -0.393 C  
ATOM     13  C   ALA A   1      -9.702  20.306  66.931  1.00  0.00    -0.584 C  
ATOM     14  C   ALA A   1     -10.865  19.439  67.434  1.00  0.00    -0.555 C  
ENDROOT
BRANCH   8  15
ATOM     15  CA  ALA A   1      -8.876  13.638  68.128  1.00  0.00    -0.189 C  
ATOM     16  CB  ALA A   1      -8.584  13.115  66.718  1.00  0.00    -0.049 C  
BRANCH  15  17
ATOM     17  N   ALA A   1      -9.698  12.697  68.913  1.00  0.00    -0.403 NA 
ATOM     18  H   ALA A   1     -10.555  13.155  69.223  1.00  0.00     0.000 HD 
BRANCH  17  19
HETATM   19  C   UNK A   0     -10.020  11.418  68.235  1.00  0.00    -0.198 C  
BRANCH  19  20
HETATM   20  C   UNK A   0      -9.619  10.188  69.076  1.00  0.00    -0.202 C  
BRANCH  20  21
HETATM   21  C   UNK A   0      -9.514   8.892  68.255  1.00  0.00    -0.150 C  
BRANCH  21  22
HETATM   22  C   UNK A   0      -9.817   7.683  69.105  1.00  0.00    -0.171 A  
HETATM   23  C   UNK A   0      -8.805   6.777  69.446  1.00  0.00    -0.135 A  
HETATM   24  C   UNK A   0     -11.111   7.476  69.603  1.00  0.00    -0.099 A  
HETATM   25  C   UNK A   0      -9.086   5.675  70.254  1.00  0.00    -0.163 A  
HETATM   26  C   UNK A   0     -11.390   6.372  70.410  1.00  0.00    -0.453 A  
HETATM   27  C   UNK A   0     -10.378   5.471  70.735  1.00  0.00    -0.321 A  
ENDBRANCH  21  22
ENDBRANCH  20  21
ENDBRANCH  19  20
BRANCH  19  28
HETATM   28  C   UNK A   0     -11.538  11.362  67.960  1.00  0.00    -0.286 C  
HETATM   29  O   UNK A   0     -12.402  11.152  68.798  1.00  0.00    -0.539 OA 
BRANCH  28  30
HETATM   30  O   UNK A   0     -11.774  11.497  66.618  1.00  0.00    -0.486 OA 
BRANCH  30  31
HETATM   31  C   UNK A   0     -12.097  12.829  66.188  1.00  0.00    -0.364 C  
HETATM   32  C   UNK A   0     -11.787  12.936  64.704  1.00  0.00    -0.422 C  
ENDBRANCH  30  31
ENDBRANCH  28  30
ENDBRANCH  19  28
ENDBRANCH  17  19
ENDBRANCH  15  17
ENDBRANCH   8  15
TORSDOF 9
ENDMDL
MODEL       94
REMARK 921   NORMALIZED FREE ENERGY PREDICTED BY IDOCK:   -5.05 KCAL/MOL
REMARK 922        TOTAL FREE ENERGY PREDICTED BY IDOCK:   -9.65 KCAL/MOL
REMARK 923 INTER-LIGAND FREE ENERGY PREDICTED BY IDOCK:   -8.87 KCAL/MOL
REMARK 924 INTRA-LIGAND FREE ENERGY PREDICTED BY IDOCK:   -0.78 KCAL/MOL
REMARK 927      BINDING AFFINITY PREDICTED BY RF-SCORE:    0.00 PKD
ROOT
ATOM      1  C   ALA A   1     -11.159   7.311  72.764  1.00  0.00    -0.362 C  
ATOM      2  C   ALA A   1     -12.175   7.145  71.647  1.00  0.00    -0.385 C  
ATOM      3  CA  ALA A   1     -12.045   8.479  70.897  1.00  0.00    -0.139 C  
ATOM      4  N   ALA A   1     -10.645   8.924  71.144  1.00  0.00    -0.241 N  
ATOM      5  C   ALA A   1     -13.092   9.471  71.408  1.00  0.00    -0.370 C  
ATOM      6  C   ALA A   1      -9.981   7.962  72.031  1.00  0.00    -0.193 C  
ATOM      7  O   ALA A   1     -12.599  10.384  72.274  1.00  0.00    -0.175 OA 
ATOM      8  C   ALA A   1      -9.900   9.713  70.259  1.00  0.00    -0.266 C  
ATOM      9  OXT ALA A   1     -14.274   9.415  71.102  1.00  0.00    -0.110 OA 
ATOM     10  C   ALA A   1     -10.731   6.055  73.499  1.00  0.00    -0.270 C  
ATOM     11  O   ALA A   1      -8.679   9.831  70.382  1.00  0.00    -0.195 OA 
ATOM     12  C   ALA A   1      -8.964   8.433  73.069  1.00  0.00    -0.242 C  
ATOM     13  C   ALA A   1      -9.633   6.405  74.508  1.00  0.00    -0.294 C  
ATOM     14  C   ALA A   1      -8.486   7.219  73.891  1.00  0.00    -0.201 C  
ENDROOT
BRANCH   8  15
ATOM     15  CA  ALA A   1     -10.669  10.416  69.084  1.00  0.00    -0.234 C  
ATOM     16  CB  ALA A   1     -10.576   9.557  67.820  1.00  0.00    -0.318 C  
BRANCH  15  17
ATOM     17  N   ALA A   1     -10.134  11.775  68.875  1.00  0.00    -0.394 NA 
ATOM     18  H   ALA A   1      -9.267  11.732  68.339  1.00  0.00     0.000 HD 
BRANCH  17  19
HETATM   19  C   UNK A   0     -11.073  12.737  68.247  1.00  0.00    -0.257 C  
BRANCH  19  20
HETATM   20  C   UNK A   0     -11.014  14.132  68.906  1.00  0.00    -0.280 C  
BRANCH  20  21
HETATM   21  C   UNK A   0     -11.543  15.258  68.002  1.00  0.00    -0.325 C  
BRANCH  21  22
HETATM   22  C   UNK A   0     -10.538  16.377  67.883  1.00  0.00    -0.320 A  
HETATM   23  C   UNK A   0     -10.726  17.413  66.959  1.00  0.00    -0.162 A  
HETATM   24  C   UNK A   0      -9.420  16.415  68.729  1.00  0.00    -0.247 A  
HETATM   25  C   UNK A   0      -9.807  18.458  66.872  1.00  0.00    -0.347 A  
HETATM   26  C   UNK A   0      -8.501  17.462  68.640  1.00  0.00    -0.257 A  
HETATM   27  C   UNK A   0      -8.693  18.482  67.711  1.00  0.00    -0.290 A  
ENDBRANCH  21  22
ENDBRANCH  20  21
ENDBRANCH  19  20
BRANCH  19  28
HETATM   28  C   UNK A   0     -10.727  12.876  66.750  1.00  0.00    -0.261 C  
HETATM   29  O   UNK A   0      -9.708  13.380  66.303  1.00  0.00    -0.280 OA 
BRANCH  28  30
HETATM   30  O   UNK A   0     -11.770  12.425  65.987  1.00  0.00    -0.389 OA 
BRANCH  30  31
HETATM   31  C   UNK A   0     -11.986  13.148  64.763  1.00  0.00    -0.388 C  
HETATM   32  C   UNK A   0     -12.369  12.148  63.684  1.00  0.00    -0.673 C  
ENDBRANCH  30  31
ENDBRANCH  28  30
ENDBRANCH  19  28
ENDBRANCH  17  19
ENDBRANCH  15  17
ENDBRANCH   8  15
TORSDOF 9
ENDMDL
MODEL       95
REMARK 921   NORMALIZED FREE ENERGY PREDICTED BY IDOCK:   -5.03 KCAL/MOL
REMARK 922        TOTAL FREE ENERGY PREDICTED BY IDOCK:   -9.63 KCAL/MOL
REMARK 923 INTER-LIGAND FREE ENERGY PREDICTED BY IDOCK:   -8.49 KCAL/MOL
REMARK 924 INTRA-LIGAND FREE ENERGY PREDICTED BY IDOCK:   -1.13 KCAL/MOL
REMARK 927      BINDING AFFINITY PREDICTED BY RF-SCORE:    0.00 PKD
ROOT
ATOM      1  C   ALA A   1     -10.792  12.198  64.634  1.00  0.00    -0.351 C  
ATOM      2  C   ALA A   1     -10.257  10.803  64.360  1.00  0.00    -0.432 C  
ATOM      3  CA  ALA A   1      -9.892  10.318  65.772  1.00  0.00    -0.257 C  
ATOM      4  N   ALA A   1     -10.812  11.057  66.681  1.00  0.00    -0.252 N  
ATOM      5  C   ALA A   1      -8.414  10.596  66.054  1.00  0.00    -0.165 C  
ATOM      6  C   ALA A   1     -11.641  11.973  65.890  1.00  0.00    -0.300 C  
ATOM      7  O   ALA A   1      -8.202  11.687  66.822  1.00  0.00    -0.164 OA 
ATOM      8  C   ALA A   1     -11.261  10.571  67.915  1.00  0.00    -0.289 C  
ATOM      9  OXT ALA A   1      -7.505   9.923  65.589  1.00  0.00    -0.105 OA 
ATOM     10  C   ALA A   1     -11.596  12.856  63.530  1.00  0.00    -0.528 C  
ATOM     11  O   ALA A   1     -12.213  11.092  68.499  1.00  0.00    -0.600 OA 
ATOM     12  C   ALA A   1     -12.049  13.335  66.450  1.00  0.00    -0.454 C  
ATOM     13  C   ALA A   1     -12.138  14.201  64.026  1.00  0.00    -0.382 C  
ATOM     14  C   ALA A   1     -12.856  14.097  65.380  1.00  0.00    -0.393 C  
ENDROOT
BRANCH   8  15
ATOM     15  CA  ALA A   1     -10.530   9.316  68.513  1.00  0.00    -0.206 C  
ATOM     16  CB  ALA A   1     -10.759   8.103  67.606  1.00  0.00    -0.203 C  
BRANCH  15  17
ATOM     17  N   ALA A   1     -10.994   9.075  69.894  1.00  0.00    -0.316 NA 
ATOM     18  H   ALA A   1     -11.385   8.136  69.973  1.00  0.00     0.000 HD 
BRANCH  17  19
HETATM   19  C   UNK A   0      -9.978   9.295  70.952  1.00  0.00    -0.297 C  
BRANCH  19  20
HETATM   20  C   UNK A   0      -9.993   8.183  72.022  1.00  0.00    -0.299 C  
BRANCH  20  21
HETATM   21  C   UNK A   0     -11.154   7.188  71.854  1.00  0.00    -0.268 C  
BRANCH  21  22
HETATM   22  C   UNK A   0     -10.641   5.802  71.546  1.00  0.00    -0.304 A  
HETATM   23  C   UNK A   0     -10.385   5.411  70.226  1.00  0.00    -0.357 A  
HETATM   24  C   UNK A   0     -10.373   4.901  72.587  1.00  0.00    -0.250 A  
HETATM   25  C   UNK A   0      -9.887   4.138  69.950  1.00  0.00    -0.233 A  
HETATM   26  C   UNK A   0      -9.875   3.627  72.308  1.00  0.00    -0.234 A  
HETATM   27  C   UNK A   0      -9.633   3.245  70.990  1.00  0.00    -0.234 A  
ENDBRANCH  21  22
ENDBRANCH  20  21
ENDBRANCH  19  20
BRANCH  19  28
HETATM   28  C   UNK A   0      -8.579   9.347  70.305  1.00  0.00    -0.221 C  
HETATM   29  O   UNK A   0      -8.023  10.357  69.901  1.00  0.00    -0.132 OA 
BRANCH  28  30
HETATM   30  O   UNK A   0      -8.080   8.079  70.169  1.00  0.00    -0.110 OA 
BRANCH  30  31
HETATM   31  C   UNK A   0      -7.062   7.929  69.167  1.00  0.00    -0.069 C  
HETATM   32  C   UNK A   0      -7.308   6.620  68.435  1.00  0.00    -0.087 C  
ENDBRANCH  30  31
ENDBRANCH  28  30
ENDBRANCH  19  28
ENDBRANCH  17  19
ENDBRANCH  15  17
ENDBRANCH   8  15
TORSDOF 9
ENDMDL
MODEL       96
REMARK 921   NORMALIZED FREE ENERGY PREDICTED BY IDOCK:   -5.03 KCAL/MOL
REMARK 922        TOTAL FREE ENERGY PREDICTED BY IDOCK:   -9.62 KCAL/MOL
REMARK 923 INTER-LIGAND FREE ENERGY PREDICTED BY IDOCK:   -8.28 KCAL/MOL
REMARK 924 INTRA-LIGAND FREE ENERGY PREDICTED BY IDOCK:   -1.33 KCAL/MOL
REMARK 927      BINDING AFFINITY PREDICTED BY RF-SCORE:    0.00 PKD
ROOT
ATOM      1  C   ALA A   1     -11.746  13.164  65.822  1.00  0.00    -0.415 C  
ATOM      2  C   ALA A   1     -11.394  13.865  67.122  1.00  0.00    -0.346 C  
ATOM      3  CA  ALA A   1     -10.854  12.705  67.973  1.00  0.00    -0.225 C  
ATOM      4  N   ALA A   1     -10.310  11.729  66.990  1.00  0.00    -0.210 N  
ATOM      5  C   ALA A   1     -11.975  12.127  68.840  1.00  0.00    -0.242 C  
ATOM      6  C   ALA A   1     -10.550  12.225  65.631  1.00  0.00    -0.260 C  
ATOM      7  O   ALA A   1     -12.501  10.981  68.356  1.00  0.00    -0.352 OA 
ATOM      8  C   ALA A   1      -9.251  10.851  67.254  1.00  0.00    -0.151 C  
ATOM      9  OXT ALA A   1     -12.391  12.675  69.852  1.00  0.00    -0.185 OA 
ATOM     10  C   ALA A   1     -11.965  14.041  64.604  1.00  0.00    -0.449 C  
ATOM     11  O   ALA A   1      -8.671  10.258  66.342  1.00  0.00    -0.132 OA 
ATOM     12  C   ALA A   1     -10.871  11.257  64.493  1.00  0.00    -0.354 C  
ATOM     13  C   ALA A   1     -12.202  13.156  63.375  1.00  0.00    -0.521 C  
ATOM     14  C   ALA A   1     -11.137  12.063  63.206  1.00  0.00    -0.400 C  
ENDROOT
BRANCH   8  15
ATOM     15  CA  ALA A   1      -8.807  10.672  68.749  1.00  0.00    -0.161 C  
ATOM     16  CB  ALA A   1      -7.316  10.996  68.887  1.00  0.00    -0.111 C  
BRANCH  15  17
ATOM     17  N   ALA A   1      -9.125   9.307  69.210  1.00  0.00    -0.147 NA 
ATOM     18  H   ALA A   1      -8.864   8.627  68.496  1.00  0.00     0.000 HD 
BRANCH  17  19
HETATM   19  C   UNK A   0      -8.537   8.924  70.517  1.00  0.00    -0.184 C  
BRANCH  19  20
HETATM   20  C   UNK A   0      -9.574   8.950  71.659  1.00  0.00    -0.363 C  
BRANCH  20  21
HETATM   21  C   UNK A   0     -10.859   9.716  71.301  1.00  0.00    -0.366 C  
BRANCH  21  22
HETATM   22  C   UNK A   0     -12.084   8.872  71.557  1.00  0.00    -0.395 A  
HETATM   23  C   UNK A   0     -13.267   9.454  72.029  1.00  0.00    -0.529 A  
HETATM   24  C   UNK A   0     -12.064   7.497  71.284  1.00  0.00    -0.351 A  
HETATM   25  C   UNK A   0     -14.404   8.673  72.238  1.00  0.00    -0.486 A  
HETATM   26  C   UNK A   0     -13.202   6.718  71.496  1.00  0.00    -0.222 A  
HETATM   27  C   UNK A   0     -14.372   7.305  71.973  1.00  0.00    -0.421 A  
ENDBRANCH  21  22
ENDBRANCH  20  21
ENDBRANCH  19  20
BRANCH  19  28
HETATM   28  C   UNK A   0      -7.948   7.502  70.408  1.00  0.00    -0.102 C  
HETATM   29  O   UNK A   0      -8.555   6.512  70.029  1.00  0.00    -0.136 OA 
BRANCH  28  30
HETATM   30  O   UNK A   0      -6.663   7.492  70.881  1.00  0.00    -0.043 OA 
BRANCH  30  31
HETATM   31  C   UNK A   0      -5.674   7.025  69.948  1.00  0.00    -0.023 C  
HETATM   32  C   UNK A   0      -5.212   5.649  70.398  1.00  0.00    -0.005 C  
ENDBRANCH  30  31
ENDBRANCH  28  30
ENDBRANCH  19  28
ENDBRANCH  17  19
ENDBRANCH  15  17
ENDBRANCH   8  15
TORSDOF 9
ENDMDL
MODEL       97
REMARK 921   NORMALIZED FREE ENERGY PREDICTED BY IDOCK:   -5.02 KCAL/MOL
REMARK 922        TOTAL FREE ENERGY PREDICTED BY IDOCK:   -9.61 KCAL/MOL
REMARK 923 INTER-LIGAND FREE ENERGY PREDICTED BY IDOCK:   -7.94 KCAL/MOL
REMARK 924 INTRA-LIGAND FREE ENERGY PREDICTED BY IDOCK:   -1.67 KCAL/MOL
REMARK 927      BINDING AFFINITY PREDICTED BY RF-SCORE:    0.00 PKD
ROOT
ATOM      1  C   ALA A   1     -11.673  13.251  65.935  1.00  0.00    -0.403 C  
ATOM      2  C   ALA A   1     -11.342  14.036  67.192  1.00  0.00    -0.348 C  
ATOM      3  CA  ALA A   1     -10.664  12.968  68.065  1.00  0.00    -0.232 C  
ATOM      4  N   ALA A   1     -10.066  12.005  67.099  1.00  0.00    -0.201 N  
ATOM      5  C   ALA A   1     -11.692  12.326  68.998  1.00  0.00    -0.324 C  
ATOM      6  C   ALA A   1     -10.402  12.419  65.733  1.00  0.00    -0.263 C  
ATOM      7  O   ALA A   1     -12.126  11.116  68.580  1.00  0.00    -0.556 OA 
ATOM      8  C   ALA A   1      -8.920  11.241  67.353  1.00  0.00    -0.144 C  
ATOM      9  OXT ALA A   1     -12.120  12.875  70.003  1.00  0.00    -0.324 OA 
ATOM     10  C   ALA A   1     -12.018  14.051  64.694  1.00  0.00    -0.449 C  
ATOM     11  O   ALA A   1      -8.321  10.667  66.442  1.00  0.00    -0.139 OA 
ATOM     12  C   ALA A   1     -10.671  11.378  64.646  1.00  0.00    -0.378 C  
ATOM     13  C   ALA A   1     -12.216  13.097  63.511  1.00  0.00    -0.552 C  
ATOM     14  C   ALA A   1     -11.060  12.101  63.341  1.00  0.00    -0.495 C  
ENDROOT
BRANCH   8  15
ATOM     15  CA  ALA A   1      -8.406  11.168  68.835  1.00  0.00    -0.099 C  
ATOM     16  CB  ALA A   1      -7.027  11.826  68.936  1.00  0.00    -0.109 C  
BRANCH  15  17
ATOM     17  N   ALA A   1      -8.390   9.766  69.294  1.00  0.00    -0.130 NA 
ATOM     18  H   ALA A   1      -7.744   9.660  70.075  1.00  0.00     0.000 HD 
BRANCH  17  19
HETATM   19  C   UNK A   0      -9.714   9.198  69.647  1.00  0.00    -0.176 C  
BRANCH  19  20
HETATM   20  C   UNK A   0      -9.850   7.718  69.233  1.00  0.00    -0.173 C  
BRANCH  20  21
HETATM   21  C   UNK A   0      -8.508   6.968  69.193  1.00  0.00    -0.129 C  
BRANCH  21  22
HETATM   22  C   UNK A   0      -8.145   6.579  67.781  1.00  0.00    -0.115 A  
HETATM   23  C   UNK A   0      -8.816   7.144  66.689  1.00  0.00    -0.142 A  
HETATM   24  C   UNK A   0      -7.100   5.675  67.543  1.00  0.00    -0.074 A  
HETATM   25  C   UNK A   0      -8.459   6.799  65.385  1.00  0.00    -0.102 A  
HETATM   26  C   UNK A   0      -6.745   5.331  66.238  1.00  0.00    -0.057 A  
HETATM   27  C   UNK A   0      -7.425   5.892  65.159  1.00  0.00    -0.079 A  
ENDBRANCH  21  22
ENDBRANCH  20  21
ENDBRANCH  19  20
BRANCH  19  28
HETATM   28  C   UNK A   0      -9.920   9.312  71.173  1.00  0.00    -0.286 C  
HETATM   29  O   UNK A   0      -9.157   8.882  72.024  1.00  0.00    -0.353 OA 
BRANCH  28  30
HETATM   30  O   UNK A   0     -11.132   9.893  71.437  1.00  0.00    -0.325 OA 
BRANCH  30  31
HETATM   31  C   UNK A   0     -12.206   8.973  71.690  1.00  0.00    -0.348 C  
HETATM   32  C   UNK A   0     -13.515   9.744  71.625  1.00  0.00    -0.436 C  
ENDBRANCH  30  31
ENDBRANCH  28  30
ENDBRANCH  19  28
ENDBRANCH  17  19
ENDBRANCH  15  17
ENDBRANCH   8  15
TORSDOF 9
ENDMDL
MODEL       98
REMARK 921   NORMALIZED FREE ENERGY PREDICTED BY IDOCK:   -5.02 KCAL/MOL
REMARK 922        TOTAL FREE ENERGY PREDICTED BY IDOCK:   -9.60 KCAL/MOL
REMARK 923 INTER-LIGAND FREE ENERGY PREDICTED BY IDOCK:   -8.31 KCAL/MOL
REMARK 924 INTRA-LIGAND FREE ENERGY PREDICTED BY IDOCK:   -1.30 KCAL/MOL
REMARK 927      BINDING AFFINITY PREDICTED BY RF-SCORE:    0.00 PKD
ROOT
ATOM      1  C   ALA A   1     -10.386  12.134  66.001  1.00  0.00    -0.268 C  
ATOM      2  C   ALA A   1      -9.935  13.045  64.873  1.00  0.00    -0.151 C  
ATOM      3  CA  ALA A   1      -9.543  14.322  65.632  1.00  0.00    -0.104 C  
ATOM      4  N   ALA A   1      -9.138  13.854  66.987  1.00  0.00    -0.241 N  
ATOM      5  C   ALA A   1     -10.721  15.297  65.658  1.00  0.00    -0.365 C  
ATOM      6  C   ALA A   1      -9.325  12.402  67.073  1.00  0.00    -0.204 C  
ATOM      7  O   ALA A   1     -11.396  15.305  66.828  1.00  0.00    -0.291 OA 
ATOM      8  C   ALA A   1      -8.201  14.504  67.799  1.00  0.00    -0.165 C  
ATOM      9  OXT ALA A   1     -11.053  15.973  64.694  1.00  0.00    -0.548 OA 
ATOM     10  C   ALA A   1     -10.500  10.654  65.688  1.00  0.00    -0.235 C  
ATOM     11  O   ALA A   1      -7.711  13.945  68.782  1.00  0.00    -0.134 OA 
ATOM     12  C   ALA A   1      -9.778  11.750  68.378  1.00  0.00    -0.197 C  
ATOM     13  C   ALA A   1     -10.861   9.889  66.965  1.00  0.00    -0.186 C  
ATOM     14  C   ALA A   1      -9.949  10.234  68.151  1.00  0.00    -0.168 C  
ENDROOT
BRANCH   8  15
ATOM     15  CA  ALA A   1      -7.770  15.958  67.395  1.00  0.00    -0.175 C  
ATOM     16  CB  ALA A   1      -6.272  15.983  67.072  1.00  0.00     0.036 C  
BRANCH  15  17
ATOM     17  N   ALA A   1      -8.124  16.906  68.470  1.00  0.00    -0.234 NA 
ATOM     18  H   ALA A   1      -7.553  17.747  68.398  1.00  0.00     0.000 HD 
BRANCH  17  19
HETATM   19  C   UNK A   0      -9.560  17.270  68.547  1.00  0.00    -0.291 C  
BRANCH  19  20
HETATM   20  C   UNK A   0     -10.256  16.663  69.783  1.00  0.00    -0.036 C  
BRANCH  20  21
HETATM   21  C   UNK A   0     -11.763  16.427  69.583  1.00  0.00     0.074 C  
BRANCH  21  22
HETATM   22  C   UNK A   0     -12.297  15.441  70.591  1.00  0.00    -0.451 A  
HETATM   23  C   UNK A   0     -12.891  15.884  71.780  1.00  0.00    -0.441 A  
HETATM   24  C   UNK A   0     -12.243  14.064  70.330  1.00  0.00    -0.433 A  
HETATM   25  C   UNK A   0     -13.406  14.968  72.697  1.00  0.00    -0.556 A  
HETATM   26  C   UNK A   0     -12.758  13.149  71.250  1.00  0.00    -0.396 A  
HETATM   27  C   UNK A   0     -13.339  13.600  72.433  1.00  0.00    -0.641 A  
ENDBRANCH  21  22
ENDBRANCH  20  21
ENDBRANCH  19  20
BRANCH  19  28
HETATM   28  C   UNK A   0      -9.688  18.807  68.605  1.00  0.00    -0.390 C  
HETATM   29  O   UNK A   0     -10.232  19.438  69.497  1.00  0.00    -0.190 OA 
BRANCH  28  30
HETATM   30  O   UNK A   0      -9.174  19.361  67.463  1.00  0.00    -0.297 OA 
BRANCH  30  31
HETATM   31  C   UNK A   0      -9.739  18.866  66.238  1.00  0.00    -0.344 C  
HETATM   32  C   UNK A   0     -10.979  19.687  65.924  1.00  0.00    -0.287 C  
ENDBRANCH  30  31
ENDBRANCH  28  30
ENDBRANCH  19  28
ENDBRANCH  17  19
ENDBRANCH  15  17
ENDBRANCH   8  15
TORSDOF 9
ENDMDL
MODEL       99
REMARK 921   NORMALIZED FREE ENERGY PREDICTED BY IDOCK:   -5.02 KCAL/MOL
REMARK 922        TOTAL FREE ENERGY PREDICTED BY IDOCK:   -9.60 KCAL/MOL
REMARK 923 INTER-LIGAND FREE ENERGY PREDICTED BY IDOCK:   -8.14 KCAL/MOL
REMARK 924 INTRA-LIGAND FREE ENERGY PREDICTED BY IDOCK:   -1.46 KCAL/MOL
REMARK 927      BINDING AFFINITY PREDICTED BY RF-SCORE:    0.00 PKD
ROOT
ATOM      1  C   ALA A   1     -10.956  13.290  65.935  1.00  0.00    -0.288 C  
ATOM      2  C   ALA A   1      -9.810  13.129  66.919  1.00  0.00    -0.249 C  
ATOM      3  CA  ALA A   1      -9.604  11.607  66.923  1.00  0.00    -0.186 C  
ATOM      4  N   ALA A   1     -10.060  11.154  65.579  1.00  0.00    -0.244 N  
ATOM      5  C   ALA A   1     -10.393  10.975  68.072  1.00  0.00    -0.185 C  
ATOM      6  C   ALA A   1     -10.565  12.307  64.826  1.00  0.00    -0.297 C  
ATOM      7  O   ALA A   1     -11.554  10.402  67.684  1.00  0.00    -0.383 OA 
ATOM      8  C   ALA A   1      -9.559  10.029  64.913  1.00  0.00    -0.310 C  
ATOM      9  OXT ALA A   1     -10.033  11.026  69.239  1.00  0.00    -0.171 OA 
ATOM     10  C   ALA A   1     -11.201  14.682  65.385  1.00  0.00    -0.347 C  
ATOM     11  O   ALA A   1      -9.773   9.850  63.713  1.00  0.00    -0.162 OA 
ATOM     12  C   ALA A   1     -11.749  12.158  63.872  1.00  0.00    -0.546 C  
ATOM     13  C   ALA A   1     -12.317  14.626  64.337  1.00  0.00    -0.420 C  
ATOM     14  C   ALA A   1     -12.093  13.538  63.277  1.00  0.00    -0.223 C  
ENDROOT
BRANCH   8  15
ATOM     15  CA  ALA A   1      -8.687   9.020  65.741  1.00  0.00    -0.169 C  
ATOM     16  CB  ALA A   1      -7.293   8.908  65.118  1.00  0.00    -0.092 C  
BRANCH  15  17
ATOM     17  N   ALA A   1      -9.369   7.713  65.820  1.00  0.00    -0.400 NA 
ATOM     18  H   ALA A   1      -9.001   7.083  65.107  1.00  0.00     0.000 HD 
BRANCH  17  19
HETATM   19  C   UNK A   0      -9.330   7.055  67.149  1.00  0.00    -0.143 C  
BRANCH  19  20
HETATM   20  C   UNK A   0     -10.740   6.743  67.692  1.00  0.00    -0.357 C  
BRANCH  20  21
HETATM   21  C   UNK A   0     -10.727   5.990  69.033  1.00  0.00    -0.393 C  
BRANCH  21  22
HETATM   22  C   UNK A   0     -11.109   6.902  70.173  1.00  0.00    -0.344 A  
HETATM   23  C   UNK A   0     -10.193   7.830  70.684  1.00  0.00    -0.199 A  
HETATM   24  C   UNK A   0     -12.405   6.859  70.708  1.00  0.00    -0.314 A  
HETATM   25  C   UNK A   0     -10.561   8.688  71.720  1.00  0.00    -0.395 A  
HETATM   26  C   UNK A   0     -12.770   7.718  71.746  1.00  0.00    -0.354 A  
HETATM   27  C   UNK A   0     -11.848   8.632  72.253  1.00  0.00    -0.436 A  
ENDBRANCH  21  22
ENDBRANCH  20  21
ENDBRANCH  19  20
BRANCH  19  28
HETATM   28  C   UNK A   0      -8.534   5.738  67.037  1.00  0.00    -0.107 C  
HETATM   29  O   UNK A   0      -7.532   5.461  67.677  1.00  0.00    -0.081 OA 
BRANCH  28  30
HETATM   30  O   UNK A   0      -9.067   4.954  66.049  1.00  0.00    -0.130 OA 
BRANCH  30  31
HETATM   31  C   UNK A   0      -8.105   4.288  65.215  1.00  0.00    -0.101 C  
HETATM   32  C   UNK A   0      -8.365   4.697  63.774  1.00  0.00    -0.117 C  
ENDBRANCH  30  31
ENDBRANCH  28  30
ENDBRANCH  19  28
ENDBRANCH  17  19
ENDBRANCH  15  17
ENDBRANCH   8  15
TORSDOF 9
ENDMDL
MODEL      100
REMARK 921   NORMALIZED FREE ENERGY PREDICTED BY IDOCK:   -4.99 KCAL/MOL
REMARK 922        TOTAL FREE ENERGY PREDICTED BY IDOCK:   -9.55 KCAL/MOL
REMARK 923 INTER-LIGAND FREE ENERGY PREDICTED BY IDOCK:   -8.52 KCAL/MOL
REMARK 924 INTRA-LIGAND FREE ENERGY PREDICTED BY IDOCK:   -1.03 KCAL/MOL
REMARK 927      BINDING AFFINITY PREDICTED BY RF-SCORE:    0.00 PKD
ROOT
ATOM      1  C   ALA A   1      -9.397   3.857  71.260  1.00  0.00    -0.213 C  
ATOM      2  C   ALA A   1     -10.072   4.475  72.472  1.00  0.00    -0.233 C  
ATOM      3  CA  ALA A   1     -10.188   5.949  72.055  1.00  0.00    -0.197 C  
ATOM      4  N   ALA A   1     -10.258   5.923  70.567  1.00  0.00    -0.199 N  
ATOM      5  C   ALA A   1      -8.991   6.739  72.589  1.00  0.00    -0.129 C  
ATOM      6  C   ALA A   1     -10.134   4.538  70.102  1.00  0.00    -0.149 C  
ATOM      7  O   ALA A   1      -8.040   6.981  71.660  1.00  0.00    -0.103 OA 
ATOM      8  C   ALA A   1     -10.921   6.882  69.792  1.00  0.00    -0.270 C  
ATOM      9  OXT ALA A   1      -8.880   7.080  73.758  1.00  0.00    -0.143 OA 
ATOM     10  C   ALA A   1      -9.446   2.346  71.140  1.00  0.00    -0.220 C  
ATOM     11  O   ALA A   1     -11.173   6.678  68.602  1.00  0.00    -0.239 OA 
ATOM     12  C   ALA A   1      -9.398   4.215  68.802  1.00  0.00    -0.222 C  
ATOM     13  C   ALA A   1      -8.813   1.920  69.811  1.00  0.00    -0.124 C  
ATOM     14  C   ALA A   1      -9.372   2.686  68.604  1.00  0.00    -0.244 C  
ENDROOT
BRANCH   8  15
ATOM     15  CA  ALA A   1     -11.362   8.213  70.498  1.00  0.00    -0.221 C  
ATOM     16  CB  ALA A   1     -12.577   7.947  71.390  1.00  0.00    -0.319 C  
BRANCH  15  17
ATOM     17  N   ALA A   1     -11.631   9.254  69.486  1.00  0.00    -0.370 NA 
ATOM     18  H   ALA A   1     -12.636   9.398  69.391  1.00  0.00     0.000 HD 
BRANCH  17  19
HETATM   19  C   UNK A   0     -10.949  10.552  69.714  1.00  0.00    -0.294 C  
BRANCH  19  20
HETATM   20  C   UNK A   0     -10.253  11.082  68.443  1.00  0.00    -0.198 C  
BRANCH  20  21
HETATM   21  C   UNK A   0     -10.448  10.176  67.215  1.00  0.00    -0.313 C  
BRANCH  21  22
HETATM   22  C   UNK A   0     -10.748  10.991  65.981  1.00  0.00    -0.242 A  
HETATM   23  C   UNK A   0     -10.159  10.670  64.752  1.00  0.00    -0.412 A  
HETATM   24  C   UNK A   0     -11.657  12.057  66.042  1.00  0.00    -0.371 A  
HETATM   25  C   UNK A   0     -10.460  11.411  63.609  1.00  0.00    -0.472 A  
HETATM   26  C   UNK A   0     -11.956  12.797  64.897  1.00  0.00    -0.451 A  
HETATM   27  C   UNK A   0     -11.358  12.476  63.681  1.00  0.00    -0.555 A  
ENDBRANCH  21  22
ENDBRANCH  20  21
ENDBRANCH  19  20
BRANCH  19  28
HETATM   28  C   UNK A   0     -11.988  11.591  70.186  1.00  0.00    -0.369 C  
HETATM   29  O   UNK A   0     -12.636  11.525  71.219  1.00  0.00    -0.383 OA 
BRANCH  28  30
HETATM   30  O   UNK A   0     -12.142  12.562  69.233  1.00  0.00    -0.256 OA 
BRANCH  30  31
HETATM   31  C   UNK A   0     -12.340  13.891  69.743  1.00  0.00    -0.275 C  
HETATM   32  C   UNK A   0     -11.859  14.878  68.693  1.00  0.00    -0.332 C  
ENDBRANCH  30  31
ENDBRANCH  28  30
ENDBRANCH  19  28
ENDBRANCH  17  19
ENDBRANCH  15  17
ENDBRANCH   8  15
TORSDOF 9
ENDMDL
MODEL      101
REMARK 921   NORMALIZED FREE ENERGY PREDICTED BY IDOCK:   -4.98 KCAL/MOL
REMARK 922        TOTAL FREE ENERGY PREDICTED BY IDOCK:   -9.55 KCAL/MOL
REMARK 923 INTER-LIGAND FREE ENERGY PREDICTED BY IDOCK:   -8.63 KCAL/MOL
REMARK 924 INTRA-LIGAND FREE ENERGY PREDICTED BY IDOCK:   -0.92 KCAL/MOL
REMARK 927      BINDING AFFINITY PREDICTED BY RF-SCORE:    0.00 PKD
ROOT
ATOM      1  C   ALA A   1      -9.105   8.041  68.549  1.00  0.00    -0.136 C  
ATOM      2  C   ALA A   1     -10.551   8.158  68.099  1.00  0.00    -0.168 C  
ATOM      3  CA  ALA A   1     -10.577   9.560  67.471  1.00  0.00    -0.275 C  
ATOM      4  N   ALA A   1      -9.185   9.794  66.997  1.00  0.00    -0.141 N  
ATOM      5  C   ALA A   1     -11.043  10.587  68.505  1.00  0.00    -0.275 C  
ATOM      6  C   ALA A   1      -8.351   8.644  67.359  1.00  0.00    -0.116 C  
ATOM      7  O   ALA A   1     -10.036  11.303  69.053  1.00  0.00    -0.198 OA 
ATOM      8  C   ALA A   1      -8.850  10.606  65.906  1.00  0.00    -0.174 C  
ATOM      9  OXT ALA A   1     -12.211  10.717  68.842  1.00  0.00    -0.447 OA 
ATOM     10  C   ALA A   1      -8.598   6.652  68.883  1.00  0.00    -0.126 C  
ATOM     11  O   ALA A   1      -7.728  10.559  65.397  1.00  0.00    -0.149 OA 
ATOM     12  C   ALA A   1      -6.889   8.837  67.760  1.00  0.00    -0.070 C  
ATOM     13  C   ALA A   1      -7.103   6.720  69.210  1.00  0.00    -0.087 C  
ATOM     14  C   ALA A   1      -6.288   7.471  68.147  1.00  0.00    -0.048 C  
ENDROOT
BRANCH   8  15
ATOM     15  CA  ALA A   1      -9.962  11.555  65.334  1.00  0.00    -0.248 C  
ATOM     16  CB  ALA A   1     -10.315  11.134  63.905  1.00  0.00    -0.441 C  
BRANCH  15  17
ATOM     17  N   ALA A   1      -9.511  12.959  65.406  1.00  0.00    -0.456 NA 
ATOM     18  H   ALA A   1      -9.978  13.514  64.689  1.00  0.00     0.000 HD 
BRANCH  17  19
HETATM   19  C   UNK A   0      -9.663  13.608  66.732  1.00  0.00    -0.275 C  
BRANCH  19  20
HETATM   20  C   UNK A   0      -8.800  14.879  66.867  1.00  0.00    -0.284 C  
BRANCH  20  21
HETATM   21  C   UNK A   0      -9.256  16.029  65.953  1.00  0.00    -0.321 C  
BRANCH  21  22
HETATM   22  C   UNK A   0      -9.433  17.307  66.734  1.00  0.00    -0.274 A  
HETATM   23  C   UNK A   0      -8.628  17.583  67.846  1.00  0.00    -0.239 A  
HETATM   24  C   UNK A   0     -10.381  18.258  66.328  1.00  0.00    -0.422 A  
HETATM   25  C   UNK A   0      -8.778  18.779  68.548  1.00  0.00    -0.380 A  
HETATM   26  C   UNK A   0     -10.532  19.452  67.034  1.00  0.00    -0.571 A  
HETATM   27  C   UNK A   0      -9.731  19.713  68.144  1.00  0.00    -0.503 A  
ENDBRANCH  21  22
ENDBRANCH  20  21
ENDBRANCH  19  20
BRANCH  19  28
HETATM   28  C   UNK A   0     -11.145  13.983  66.942  1.00  0.00    -0.304 C  
HETATM   29  O   UNK A   0     -11.570  14.725  67.814  1.00  0.00    -0.335 OA 
BRANCH  28  30
HETATM   30  O   UNK A   0     -11.931  13.294  66.057  1.00  0.00    -0.380 OA 
BRANCH  30  31
HETATM   31  C   UNK A   0     -12.884  14.094  65.338  1.00  0.00    -0.368 C  
HETATM   32  C   UNK A   0     -12.152  14.801  64.209  1.00  0.00    -0.415 C  
ENDBRANCH  30  31
ENDBRANCH  28  30
ENDBRANCH  19  28
ENDBRANCH  17  19
ENDBRANCH  15  17
ENDBRANCH   8  15
TORSDOF 9
ENDMDL
MODEL      102
REMARK 921   NORMALIZED FREE ENERGY PREDICTED BY IDOCK:   -4.97 KCAL/MOL
REMARK 922        TOTAL FREE ENERGY PREDICTED BY IDOCK:   -9.53 KCAL/MOL
REMARK 923 INTER-LIGAND FREE ENERGY PREDICTED BY IDOCK:   -8.06 KCAL/MOL
REMARK 924 INTRA-LIGAND FREE ENERGY PREDICTED BY IDOCK:   -1.47 KCAL/MOL
REMARK 927      BINDING AFFINITY PREDICTED BY RF-SCORE:    0.00 PKD
ROOT
ATOM      1  C   ALA A   1     -10.534  15.102  66.061  1.00  0.00    -0.330 C  
ATOM      2  C   ALA A   1     -11.999  14.726  66.207  1.00  0.00    -0.168 C  
ATOM      3  CA  ALA A   1     -11.918  13.207  66.421  1.00  0.00    -0.402 C  
ATOM      4  N   ALA A   1     -10.586  12.978  67.048  1.00  0.00    -0.256 N  
ATOM      5  C   ALA A   1     -12.089  12.481  65.086  1.00  0.00    -0.446 C  
ATOM      6  C   ALA A   1      -9.876  14.256  67.156  1.00  0.00    -0.252 C  
ATOM      7  O   ALA A   1     -10.927  12.050  64.547  1.00  0.00    -0.292 OA 
ATOM      8  C   ALA A   1     -10.296  11.922  67.921  1.00  0.00    -0.198 C  
ATOM      9  OXT ALA A   1     -13.170  12.344  64.531  1.00  0.00    -0.834 OA 
ATOM     10  C   ALA A   1     -10.182  16.570  66.204  1.00  0.00    -0.360 C  
ATOM     11  O   ALA A   1      -9.274  11.926  68.610  1.00  0.00    -0.160 OA 
ATOM     12  C   ALA A   1      -8.360  14.324  66.976  1.00  0.00    -0.156 C  
ATOM     13  C   ALA A   1      -8.661  16.738  66.133  1.00  0.00    -0.299 C  
ATOM     14  C   ALA A   1      -7.906  15.794  67.079  1.00  0.00    -0.271 C  
ENDROOT
BRANCH   8  15
ATOM     15  CA  ALA A   1     -11.335  10.749  68.018  1.00  0.00    -0.307 C  
ATOM     16  CB  ALA A   1     -11.582  10.397  69.488  1.00  0.00    -0.288 C  
BRANCH  15  17
ATOM     17  N   ALA A   1     -10.858   9.589  67.239  1.00  0.00    -0.323 NA 
ATOM     18  H   ALA A   1     -10.102   9.872  66.616  1.00  0.00     0.000 HD 
BRANCH  17  19
HETATM   19  C   UNK A   0     -10.443   8.413  68.042  1.00  0.00    -0.184 C  
BRANCH  19  20
HETATM   20  C   UNK A   0     -10.965   7.085  67.455  1.00  0.00    -0.336 C  
BRANCH  20  21
HETATM   21  C   UNK A   0     -10.720   5.873  68.369  1.00  0.00    -0.323 C  
BRANCH  21  22
HETATM   22  C   UNK A   0     -10.124   4.722  67.597  1.00  0.00    -0.142 A  
HETATM   23  C   UNK A   0     -10.273   4.640  66.206  1.00  0.00    -0.306 A  
HETATM   24  C   UNK A   0      -9.376   3.738  68.259  1.00  0.00    -0.225 A  
HETATM   25  C   UNK A   0      -9.698   3.587  65.495  1.00  0.00    -0.077 A  
HETATM   26  C   UNK A   0      -8.803   2.685  67.545  1.00  0.00    -0.165 A  
HETATM   27  C   UNK A   0      -8.964   2.608  66.164  1.00  0.00    -0.139 A  
ENDBRANCH  21  22
ENDBRANCH  20  21
ENDBRANCH  19  20
BRANCH  19  28
HETATM   28  C   UNK A   0      -8.902   8.362  68.101  1.00  0.00    -0.142 C  
HETATM   29  O   UNK A   0      -8.174   7.928  67.222  1.00  0.00    -0.119 OA 
BRANCH  28  30
HETATM   30  O   UNK A   0      -8.467   8.798  69.325  1.00  0.00    -0.119 OA 
BRANCH  30  31
HETATM   31  C   UNK A   0      -8.722   7.899  70.417  1.00  0.00    -0.137 C  
HETATM   32  C   UNK A   0      -8.942   8.728  71.671  1.00  0.00    -0.301 C  
ENDBRANCH  30  31
ENDBRANCH  28  30
ENDBRANCH  19  28
ENDBRANCH  17  19
ENDBRANCH  15  17
ENDBRANCH   8  15
TORSDOF 9
ENDMDL
MODEL      103
REMARK 921   NORMALIZED FREE ENERGY PREDICTED BY IDOCK:   -4.95 KCAL/MOL
REMARK 922        TOTAL FREE ENERGY PREDICTED BY IDOCK:   -9.50 KCAL/MOL
REMARK 923 INTER-LIGAND FREE ENERGY PREDICTED BY IDOCK:   -7.96 KCAL/MOL
REMARK 924 INTRA-LIGAND FREE ENERGY PREDICTED BY IDOCK:   -1.55 KCAL/MOL
REMARK 927      BINDING AFFINITY PREDICTED BY RF-SCORE:    0.00 PKD
ROOT
ATOM      1  C   ALA A   1      -7.244   4.792  66.845  1.00  0.00    -0.077 C  
ATOM      2  C   ALA A   1      -7.040   4.950  68.342  1.00  0.00    -0.061 C  
ATOM      3  CA  ALA A   1      -7.926   6.165  68.657  1.00  0.00    -0.101 C  
ATOM      4  N   ALA A   1      -8.996   6.140  67.622  1.00  0.00    -0.113 N  
ATOM      5  C   ALA A   1      -7.088   7.445  68.627  1.00  0.00    -0.084 C  
ATOM      6  C   ALA A   1      -8.752   5.024  66.702  1.00  0.00    -0.108 C  
ATOM      7  O   ALA A   1      -7.228   8.160  67.489  1.00  0.00    -0.087 OA 
ATOM      8  C   ALA A   1     -10.290   6.640  67.811  1.00  0.00    -0.196 C  
ATOM      9  OXT ALA A   1      -6.326   7.769  69.526  1.00  0.00    -0.033 OA 
ATOM     10  C   ALA A   1      -6.823   3.472  66.229  1.00  0.00    -0.053 C  
ATOM     11  O   ALA A   1     -11.203   6.361  67.032  1.00  0.00    -0.373 OA 
ATOM     12  C   ALA A   1      -9.083   5.152  65.215  1.00  0.00    -0.126 C  
ATOM     13  C   ALA A   1      -7.201   3.460  64.744  1.00  0.00    -0.066 C  
ATOM     14  C   ALA A   1      -8.663   3.857  64.492  1.00  0.00    -0.120 C  
ENDROOT
BRANCH   8  15
ATOM     15  CA  ALA A   1     -10.546   7.541  69.071  1.00  0.00    -0.180 C  
ATOM     16  CB  ALA A   1     -11.442   6.797  70.066  1.00  0.00    -0.390 C  
BRANCH  15  17
ATOM     17  N   ALA A   1     -11.127   8.833  68.656  1.00  0.00    -0.422 NA 
ATOM     18  H   ALA A   1     -12.118   8.865  68.897  1.00  0.00     0.000 HD 
BRANCH  17  19
HETATM   19  C   UNK A   0     -10.437  10.037  69.180  1.00  0.00    -0.219 C  
BRANCH  19  20
HETATM   20  C   UNK A   0      -9.914  10.952  68.053  1.00  0.00    -0.188 C  
BRANCH  20  21
HETATM   21  C   UNK A   0     -10.164  10.391  66.643  1.00  0.00    -0.292 C  
BRANCH  21  22
HETATM   22  C   UNK A   0     -10.876  11.399  65.775  1.00  0.00    -0.290 A  
HETATM   23  C   UNK A   0     -11.685  12.390  66.346  1.00  0.00    -0.453 A  
HETATM   24  C   UNK A   0     -10.700  11.383  64.384  1.00  0.00    -0.405 A  
HETATM   25  C   UNK A   0     -12.320  13.335  65.540  1.00  0.00    -0.533 A  
HETATM   26  C   UNK A   0     -11.337  12.329  63.579  1.00  0.00    -0.549 A  
HETATM   27  C   UNK A   0     -12.147  13.305  64.156  1.00  0.00    -0.494 A  
ENDBRANCH  21  22
ENDBRANCH  20  21
ENDBRANCH  19  20
BRANCH  19  28
HETATM   28  C   UNK A   0     -11.419  10.839  70.060  1.00  0.00    -0.331 C  
HETATM   29  O   UNK A   0     -11.828  11.964  69.818  1.00  0.00    -0.309 OA 
BRANCH  28  30
HETATM   30  O   UNK A   0     -11.702  10.137  71.201  1.00  0.00    -0.352 OA 
BRANCH  30  31
HETATM   31  C   UNK A   0     -13.001  10.386  71.763  1.00  0.00    -0.475 C  
HETATM   32  C   UNK A   0     -13.768   9.074  71.779  1.00  0.00    -0.474 C  
ENDBRANCH  30  31
ENDBRANCH  28  30
ENDBRANCH  19  28
ENDBRANCH  17  19
ENDBRANCH  15  17
ENDBRANCH   8  15
TORSDOF 9
ENDMDL
MODEL      104
REMARK 921   NORMALIZED FREE ENERGY PREDICTED BY IDOCK:   -4.95 KCAL/MOL
REMARK 922        TOTAL FREE ENERGY PREDICTED BY IDOCK:   -9.50 KCAL/MOL
REMARK 923 INTER-LIGAND FREE ENERGY PREDICTED BY IDOCK:   -8.67 KCAL/MOL
REMARK 924 INTRA-LIGAND FREE ENERGY PREDICTED BY IDOCK:   -0.83 KCAL/MOL
REMARK 927      BINDING AFFINITY PREDICTED BY RF-SCORE:    0.00 PKD
ROOT
ATOM      1  C   ALA A   1      -7.946   6.611  66.061  1.00  0.00    -0.112 C  
ATOM      2  C   ALA A   1      -7.120   7.791  66.542  1.00  0.00    -0.078 C  
ATOM      3  CA  ALA A   1      -8.207   8.785  66.978  1.00  0.00    -0.103 C  
ATOM      4  N   ALA A   1      -9.368   7.938  67.369  1.00  0.00    -0.139 N  
ATOM      5  C   ALA A   1      -8.524   9.750  65.833  1.00  0.00    -0.128 C  
ATOM      6  C   ALA A   1      -9.038   6.528  67.134  1.00  0.00    -0.120 C  
ATOM      7  O   ALA A   1      -9.655   9.444  65.160  1.00  0.00    -0.256 OA 
ATOM      8  C   ALA A   1     -10.321   8.299  68.329  1.00  0.00    -0.198 C  
ATOM      9  OXT ALA A   1      -7.796  10.683  65.522  1.00  0.00    -0.154 OA 
ATOM     10  C   ALA A   1      -7.226   5.287  65.898  1.00  0.00    -0.073 C  
ATOM     11  O   ALA A   1     -11.098   7.467  68.802  1.00  0.00    -0.024 OA 
ATOM     12  C   ALA A   1     -10.109   5.545  66.661  1.00  0.00    -0.245 C  
ATOM     13  C   ALA A   1      -8.236   4.201  65.513  1.00  0.00    -0.105 C  
ATOM     14  C   ALA A   1      -9.461   4.164  66.439  1.00  0.00    -0.199 C  
ENDROOT
BRANCH   8  15
ATOM     15  CA  ALA A   1     -10.343   9.794  68.808  1.00  0.00    -0.208 C  
ATOM     16  CB  ALA A   1      -9.741   9.896  70.213  1.00  0.00    -0.211 C  
BRANCH  15  17
ATOM     17  N   ALA A   1     -11.721  10.319  68.753  1.00  0.00    -0.581 NA 
ATOM     18  H   ALA A   1     -12.218  10.090  69.613  1.00  0.00     0.000 HD 
BRANCH  17  19
HETATM   19  C   UNK A   0     -11.836  11.771  68.471  1.00  0.00    -0.303 C  
BRANCH  19  20
HETATM   20  C   UNK A   0     -11.634  12.634  69.734  1.00  0.00    -0.285 C  
BRANCH  20  21
HETATM   21  C   UNK A   0     -11.976  14.119  69.522  1.00  0.00    -0.389 C  
BRANCH  21  22
HETATM   22  C   UNK A   0     -12.432  14.760  70.809  1.00  0.00    -0.402 A  
HETATM   23  C   UNK A   0     -11.539  15.499  71.596  1.00  0.00    -0.502 A  
HETATM   24  C   UNK A   0     -13.771  14.659  71.214  1.00  0.00    -0.439 A  
HETATM   25  C   UNK A   0     -11.972  16.111  72.771  1.00  0.00    -0.638 A  
HETATM   26  C   UNK A   0     -14.202  15.271  72.391  1.00  0.00    -0.579 A  
HETATM   27  C   UNK A   0     -13.304  15.997  73.171  1.00  0.00    -0.624 A  
ENDBRANCH  21  22
ENDBRANCH  20  21
ENDBRANCH  19  20
BRANCH  19  28
HETATM   28  C   UNK A   0     -10.777  12.166  67.420  1.00  0.00    -0.234 C  
HETATM   29  O   UNK A   0      -9.723  12.734  67.657  1.00  0.00    -0.196 OA 
BRANCH  28  30
HETATM   30  O   UNK A   0     -11.230  11.861  66.164  1.00  0.00    -0.319 OA 
BRANCH  30  31
HETATM   31  C   UNK A   0     -11.624  12.990  65.368  1.00  0.00    -0.341 C  
HETATM   32  C   UNK A   0     -12.585  12.502  64.296  1.00  0.00    -0.485 C  
ENDBRANCH  30  31
ENDBRANCH  28  30
ENDBRANCH  19  28
ENDBRANCH  17  19
ENDBRANCH  15  17
ENDBRANCH   8  15
TORSDOF 9
ENDMDL
MODEL      105
REMARK 921   NORMALIZED FREE ENERGY PREDICTED BY IDOCK:   -4.94 KCAL/MOL
REMARK 922        TOTAL FREE ENERGY PREDICTED BY IDOCK:   -9.48 KCAL/MOL
REMARK 923 INTER-LIGAND FREE ENERGY PREDICTED BY IDOCK:   -7.80 KCAL/MOL
REMARK 924 INTRA-LIGAND FREE ENERGY PREDICTED BY IDOCK:   -1.68 KCAL/MOL
REMARK 927      BINDING AFFINITY PREDICTED BY RF-SCORE:    0.00 PKD
ROOT
ATOM      1  C   ALA A   1      -9.402   8.603  66.602  1.00  0.00    -0.246 C  
ATOM      2  C   ALA A   1     -10.649   8.770  67.453  1.00  0.00    -0.304 C  
ATOM      3  CA  ALA A   1     -10.784  10.299  67.524  1.00  0.00    -0.294 C  
ATOM      4  N   ALA A   1     -10.150  10.799  66.273  1.00  0.00    -0.225 N  
ATOM      5  C   ALA A   1     -10.111  10.825  68.793  1.00  0.00    -0.191 C  
ATOM      6  C   ALA A   1      -9.612   9.664  65.516  1.00  0.00    -0.283 C  
ATOM      7  O   ALA A   1      -8.887  11.357  68.580  1.00  0.00    -0.156 OA 
ATOM      8  C   ALA A   1     -10.516  11.984  65.622  1.00  0.00    -0.256 C  
ATOM      9  OXT ALA A   1     -10.610  10.730  69.906  1.00  0.00    -0.205 OA 
ATOM     10  C   ALA A   1      -9.157   7.232  66.002  1.00  0.00    -0.117 C  
ATOM     11  O   ALA A   1     -10.152  12.216  64.467  1.00  0.00    -0.279 OA 
ATOM     12  C   ALA A   1      -8.317   9.803  64.718  1.00  0.00    -0.159 C  
ATOM     13  C   ALA A   1      -7.921   7.287  65.097  1.00  0.00    -0.128 C  
ATOM     14  C   ALA A   1      -7.967   8.441  64.085  1.00  0.00    -0.151 C  
ENDROOT
BRANCH   8  15
ATOM     15  CA  ALA A   1     -11.434  12.991  66.402  1.00  0.00    -0.341 C  
ATOM     16  CB  ALA A   1     -12.702  13.269  65.590  1.00  0.00    -0.373 C  
BRANCH  15  17
ATOM     17  N   ALA A   1     -10.683  14.226  66.703  1.00  0.00    -0.288 NA 
ATOM     18  H   ALA A   1     -11.184  15.037  66.342  1.00  0.00     0.000 HD 
BRANCH  17  19
HETATM   19  C   UNK A   0     -10.347  14.431  68.134  1.00  0.00    -0.231 C  
BRANCH  19  20
HETATM   20  C   UNK A   0      -8.835  14.636  68.359  1.00  0.00    -0.181 C  
BRANCH  20  21
HETATM   21  C   UNK A   0      -8.093  15.144  67.111  1.00  0.00    -0.245 C  
BRANCH  21  22
HETATM   22  C   UNK A   0      -7.461  16.491  67.366  1.00  0.00    -0.177 A  
HETATM   23  C   UNK A   0      -7.026  16.846  68.649  1.00  0.00    -0.191 A  
HETATM   24  C   UNK A   0      -7.262  17.389  66.307  1.00  0.00    -0.346 A  
HETATM   25  C   UNK A   0      -6.419  18.081  68.873  1.00  0.00    -0.229 A  
HETATM   26  C   UNK A   0      -6.656  18.625  66.534  1.00  0.00    -0.219 A  
HETATM   27  C   UNK A   0      -6.235  18.972  67.816  1.00  0.00    -0.217 A  
ENDBRANCH  21  22
ENDBRANCH  20  21
ENDBRANCH  19  20
BRANCH  19  28
HETATM   28  C   UNK A   0     -11.104  15.670  68.657  1.00  0.00    -0.317 C  
HETATM   29  O   UNK A   0     -11.698  15.738  69.721  1.00  0.00    -0.326 OA 
BRANCH  28  30
HETATM   30  O   UNK A   0     -11.084  16.661  67.712  1.00  0.00    -0.279 OA 
BRANCH  30  31
HETATM   31  C   UNK A   0     -10.573  17.925  68.166  1.00  0.00    -0.340 C  
HETATM   32  C   UNK A   0     -10.618  18.900  67.001  1.00  0.00    -0.510 C  
ENDBRANCH  30  31
ENDBRANCH  28  30
ENDBRANCH  19  28
ENDBRANCH  17  19
ENDBRANCH  15  17
ENDBRANCH   8  15
TORSDOF 9
ENDMDL
MODEL      106
REMARK 921   NORMALIZED FREE ENERGY PREDICTED BY IDOCK:   -4.93 KCAL/MOL
REMARK 922        TOTAL FREE ENERGY PREDICTED BY IDOCK:   -9.47 KCAL/MOL
REMARK 923 INTER-LIGAND FREE ENERGY PREDICTED BY IDOCK:   -8.34 KCAL/MOL
REMARK 924 INTRA-LIGAND FREE ENERGY PREDICTED BY IDOCK:   -1.13 KCAL/MOL
REMARK 927      BINDING AFFINITY PREDICTED BY RF-SCORE:    0.00 PKD
ROOT
ATOM      1  C   ALA A   1      -8.536  18.604  66.379  1.00  0.00    -0.286 C  
ATOM      2  C   ALA A   1     -10.048  18.658  66.251  1.00  0.00    -0.431 C  
ATOM      3  CA  ALA A   1     -10.448  17.213  66.585  1.00  0.00    -0.259 C  
ATOM      4  N   ALA A   1      -9.371  16.714  67.485  1.00  0.00    -0.218 N  
ATOM      5  C   ALA A   1     -10.585  16.396  65.298  1.00  0.00    -0.299 C  
ATOM      6  C   ALA A   1      -8.353  17.758  67.644  1.00  0.00    -0.228 C  
ATOM      7  O   ALA A   1      -9.521  15.604  65.041  1.00  0.00    -0.096 OA 
ATOM      8  C   ALA A   1      -9.556  15.739  68.473  1.00  0.00    -0.204 C  
ATOM      9  OXT ALA A   1     -11.544  16.487  64.546  1.00  0.00    -0.567 OA 
ATOM     10  C   ALA A   1      -7.806  19.929  66.486  1.00  0.00    -0.330 C  
ATOM     11  O   ALA A   1      -8.713  15.554  69.353  1.00  0.00    -0.246 OA 
ATOM     12  C   ALA A   1      -6.875  17.392  67.772  1.00  0.00    -0.176 C  
ATOM     13  C   ALA A   1      -6.313  19.671  66.714  1.00  0.00    -0.185 C  
ATOM     14  C   ALA A   1      -6.041  18.686  67.860  1.00  0.00    -0.191 C  
ENDROOT
BRANCH   8  15
ATOM     15  CA  ALA A   1     -10.889  14.911  68.439  1.00  0.00    -0.251 C  
ATOM     16  CB  ALA A   1     -11.983  15.660  69.207  1.00  0.00    -0.338 C  
BRANCH  15  17
ATOM     17  N   ALA A   1     -10.655  13.558  68.981  1.00  0.00    -0.404 NA 
ATOM     18  H   ALA A   1     -10.740  13.568  69.997  1.00  0.00     0.000 HD 
BRANCH  17  19
HETATM   19  C   UNK A   0     -11.510  12.489  68.409  1.00  0.00    -0.312 C  
BRANCH  19  20
HETATM   20  C   UNK A   0     -10.727  11.551  67.466  1.00  0.00    -0.267 C  
BRANCH  20  21
HETATM   21  C   UNK A   0      -9.440  10.989  68.092  1.00  0.00    -0.172 C  
BRANCH  21  22
HETATM   22  C   UNK A   0      -9.426   9.481  68.045  1.00  0.00    -0.147 A  
HETATM   23  C   UNK A   0     -10.382   8.780  67.299  1.00  0.00    -0.360 A  
HETATM   24  C   UNK A   0      -8.425   8.762  68.714  1.00  0.00    -0.129 A  
HETATM   25  C   UNK A   0     -10.349   7.387  67.238  1.00  0.00    -0.356 A  
HETATM   26  C   UNK A   0      -8.394   7.368  68.653  1.00  0.00    -0.129 A  
HETATM   27  C   UNK A   0      -9.356   6.680  67.915  1.00  0.00    -0.109 A  
ENDBRANCH  21  22
ENDBRANCH  20  21
ENDBRANCH  19  20
BRANCH  19  28
HETATM   28  C   UNK A   0     -12.110  11.654  69.560  1.00  0.00    -0.270 C  
HETATM   29  O   UNK A   0     -12.729  10.609  69.428  1.00  0.00    -0.224 OA 
BRANCH  28  30
HETATM   30  O   UNK A   0     -11.922  12.300  70.752  1.00  0.00    -0.266 OA 
BRANCH  30  31
HETATM   31  C   UNK A   0     -12.898  12.006  71.765  1.00  0.00    -0.272 C  
HETATM   32  C   UNK A   0     -13.351  13.320  72.381  1.00  0.00    -0.616 C  
ENDBRANCH  30  31
ENDBRANCH  28  30
ENDBRANCH  19  28
ENDBRANCH  17  19
ENDBRANCH  15  17
ENDBRANCH   8  15
TORSDOF 9
ENDMDL
MODEL      107
REMARK 921   NORMALIZED FREE ENERGY PREDICTED BY IDOCK:   -4.88 KCAL/MOL
REMARK 922        TOTAL FREE ENERGY PREDICTED BY IDOCK:   -9.40 KCAL/MOL
REMARK 923 INTER-LIGAND FREE ENERGY PREDICTED BY IDOCK:   -8.14 KCAL/MOL
REMARK 924 INTRA-LIGAND FREE ENERGY PREDICTED BY IDOCK:   -1.26 KCAL/MOL
REMARK 927      BINDING AFFINITY PREDICTED BY RF-SCORE:    0.00 PKD
ROOT
ATOM      1  C   ALA A   1      -8.546   4.509  67.147  1.00  0.00    -0.104 C  
ATOM      2  C   ALA A   1      -7.871   5.803  66.727  1.00  0.00    -0.101 C  
ATOM      3  CA  ALA A   1      -8.675   6.851  67.513  1.00  0.00    -0.120 C  
ATOM      4  N   ALA A   1      -9.168   6.130  68.720  1.00  0.00    -0.125 N  
ATOM      5  C   ALA A   1      -9.801   7.408  66.641  1.00  0.00    -0.193 C  
ATOM      6  C   ALA A   1      -8.748   4.727  68.650  1.00  0.00    -0.097 C  
ATOM      7  O   ALA A   1     -11.014   6.878  66.913  1.00  0.00    -0.377 OA 
ATOM      8  C   ALA A   1      -9.423   6.740  69.954  1.00  0.00    -0.156 C  
ATOM      9  OXT ALA A   1      -9.617   8.222  65.747  1.00  0.00    -0.080 OA 
ATOM     10  C   ALA A   1      -7.797   3.220  66.867  1.00  0.00    -0.080 C  
ATOM     11  O   ALA A   1      -9.573   6.070  70.978  1.00  0.00    -0.169 OA 
ATOM     12  C   ALA A   1      -9.651   3.615  69.184  1.00  0.00    -0.172 C  
ATOM     13  C   ALA A   1      -8.579   2.039  67.452  1.00  0.00    -0.111 C  
ATOM     14  C   ALA A   1      -8.981   2.252  68.919  1.00  0.00    -0.168 C  
ENDROOT
BRANCH   8  15
ATOM     15  CA  ALA A   1      -9.478   8.308  69.995  1.00  0.00    -0.167 C  
ATOM     16  CB  ALA A   1      -9.154   8.801  71.409  1.00  0.00    -0.313 C  
BRANCH  15  17
ATOM     17  N   ALA A   1     -10.798   8.778  69.531  1.00  0.00    -0.372 NA 
ATOM     18  H   ALA A   1     -11.530   8.436  70.153  1.00  0.00     0.000 HD 
BRANCH  17  19
HETATM   19  C   UNK A   0     -10.925  10.246  69.355  1.00  0.00    -0.247 C  
BRANCH  19  20
HETATM   20  C   UNK A   0     -11.345  10.633  67.922  1.00  0.00    -0.342 C  
BRANCH  20  21
HETATM   21  C   UNK A   0     -11.059  12.104  67.577  1.00  0.00    -0.328 C  
BRANCH  21  22
HETATM   22  C   UNK A   0     -11.332  12.383  66.119  1.00  0.00    -0.398 A  
HETATM   23  C   UNK A   0     -12.173  13.436  65.738  1.00  0.00    -0.507 A  
HETATM   24  C   UNK A   0     -10.711  11.614  65.124  1.00  0.00    -0.351 A  
HETATM   25  C   UNK A   0     -12.401  13.705  64.389  1.00  0.00    -0.387 A  
HETATM   26  C   UNK A   0     -10.942  11.885  63.775  1.00  0.00    -0.494 A  
HETATM   27  C   UNK A   0     -11.787  12.929  63.406  1.00  0.00    -0.576 A  
ENDBRANCH  21  22
ENDBRANCH  20  21
ENDBRANCH  19  20
BRANCH  19  28
HETATM   28  C   UNK A   0     -11.977  10.783  70.348  1.00  0.00    -0.357 C  
HETATM   29  O   UNK A   0     -12.078  11.945  70.711  1.00  0.00    -0.357 OA 
BRANCH  28  30
HETATM   30  O   UNK A   0     -12.733   9.749  70.832  1.00  0.00    -0.304 OA 
BRANCH  30  31
HETATM   31  C   UNK A   0     -12.909   9.739  72.258  1.00  0.00    -0.295 C  
HETATM   32  C   UNK A   0     -13.847   8.597  72.611  1.00  0.00    -0.295 C  
ENDBRANCH  30  31
ENDBRANCH  28  30
ENDBRANCH  19  28
ENDBRANCH  17  19
ENDBRANCH  15  17
ENDBRANCH   8  15
TORSDOF 9
ENDMDL
MODEL      108
REMARK 921   NORMALIZED FREE ENERGY PREDICTED BY IDOCK:   -4.87 KCAL/MOL
REMARK 922        TOTAL FREE ENERGY PREDICTED BY IDOCK:   -9.38 KCAL/MOL
REMARK 923 INTER-LIGAND FREE ENERGY PREDICTED BY IDOCK:   -8.24 KCAL/MOL
REMARK 924 INTRA-LIGAND FREE ENERGY PREDICTED BY IDOCK:   -1.14 KCAL/MOL
REMARK 927      BINDING AFFINITY PREDICTED BY RF-SCORE:    0.00 PKD
ROOT
ATOM      1  C   ALA A   1     -10.320  14.915  66.224  1.00  0.00    -0.302 C  
ATOM      2  C   ALA A   1     -11.817  14.707  66.377  1.00  0.00    -0.304 C  
ATOM      3  CA  ALA A   1     -11.903  13.196  66.643  1.00  0.00    -0.391 C  
ATOM      4  N   ALA A   1     -10.605  12.844  67.283  1.00  0.00    -0.233 N  
ATOM      5  C   ALA A   1     -12.151  12.447  65.332  1.00  0.00    -0.365 C  
ATOM      6  C   ALA A   1      -9.759  14.040  67.351  1.00  0.00    -0.233 C  
ATOM      7  O   ALA A   1     -11.043  11.874  64.814  1.00  0.00    -0.303 OA 
ATOM      8  C   ALA A   1     -10.433  11.794  68.193  1.00  0.00    -0.201 C  
ATOM      9  OXT ALA A   1     -13.240  12.411  64.777  1.00  0.00    -0.784 OA 
ATOM     10  C   ALA A   1      -9.809  16.340  66.319  1.00  0.00    -0.334 C  
ATOM     11  O   ALA A   1      -9.417  11.710  68.886  1.00  0.00    -0.110 OA 
ATOM     12  C   ALA A   1      -8.244  13.936  67.175  1.00  0.00    -0.128 C  
ATOM     13  C   ALA A   1      -8.278  16.338  66.249  1.00  0.00    -0.312 C  
ATOM     14  C   ALA A   1      -7.632  15.350  67.230  1.00  0.00    -0.246 C  
ENDROOT
BRANCH   8  15
ATOM     15  CA  ALA A   1     -11.594  10.746  68.325  1.00  0.00    -0.221 C  
ATOM     16  CB  ALA A   1     -12.186  10.804  69.737  1.00  0.00    -0.359 C  
BRANCH  15  17
ATOM     17  N   ALA A   1     -11.096   9.398  67.985  1.00  0.00    -0.513 NA 
ATOM     18  H   ALA A   1     -10.397   9.460  67.246  1.00  0.00     0.000 HD 
BRANCH  17  19
HETATM   19  C   UNK A   0     -10.565   8.611  69.125  1.00  0.00    -0.178 C  
BRANCH  19  20
HETATM   20  C   UNK A   0     -11.508   7.461  69.536  1.00  0.00     0.182 C  
BRANCH  20  21
HETATM   21  C   UNK A   0     -12.051   7.598  70.968  1.00  0.00    -0.282 C  
BRANCH  21  22
HETATM   22  C   UNK A   0     -11.133   6.932  71.964  1.00  0.00    -0.279 A  
HETATM   23  C   UNK A   0     -10.758   7.590  73.142  1.00  0.00    -0.452 A  
HETATM   24  C   UNK A   0     -10.676   5.625  71.740  1.00  0.00    -0.305 A  
HETATM   25  C   UNK A   0      -9.930   6.960  74.070  1.00  0.00    -0.371 A  
HETATM   26  C   UNK A   0      -9.846   4.997  72.670  1.00  0.00    -0.195 A  
HETATM   27  C   UNK A   0      -9.473   5.664  73.834  1.00  0.00    -0.137 A  
ENDBRANCH  21  22
ENDBRANCH  20  21
ENDBRANCH  19  20
BRANCH  19  28
HETATM   28  C   UNK A   0      -9.195   8.019  68.733  1.00  0.00    -0.143 C  
HETATM   29  O   UNK A   0      -8.144   8.641  68.681  1.00  0.00    -0.113 OA 
BRANCH  28  30
HETATM   30  O   UNK A   0      -9.340   6.708  68.367  1.00  0.00    -0.126 OA 
BRANCH  30  31
HETATM   31  C   UNK A   0      -9.357   6.469  66.950  1.00  0.00    -0.146 C  
HETATM   32  C   UNK A   0     -10.501   5.516  66.645  1.00  0.00    -0.355 C  
ENDBRANCH  30  31
ENDBRANCH  28  30
ENDBRANCH  19  28
ENDBRANCH  17  19
ENDBRANCH  15  17
ENDBRANCH   8  15
TORSDOF 9
ENDMDL
MODEL      109
REMARK 921   NORMALIZED FREE ENERGY PREDICTED BY IDOCK:   -4.87 KCAL/MOL
REMARK 922        TOTAL FREE ENERGY PREDICTED BY IDOCK:   -9.37 KCAL/MOL
REMARK 923 INTER-LIGAND FREE ENERGY PREDICTED BY IDOCK:   -7.99 KCAL/MOL
REMARK 924 INTRA-LIGAND FREE ENERGY PREDICTED BY IDOCK:   -1.38 KCAL/MOL
REMARK 927      BINDING AFFINITY PREDICTED BY RF-SCORE:    0.00 PKD
ROOT
ATOM      1  C   ALA A   1     -10.471  17.507  67.309  1.00  0.00    -0.327 C  
ATOM      2  C   ALA A   1     -11.288  16.430  68.003  1.00  0.00    -0.157 C  
ATOM      3  CA  ALA A   1     -10.679  15.145  67.423  1.00  0.00    -0.286 C  
ATOM      4  N   ALA A   1      -9.275  15.505  67.081  1.00  0.00    -0.207 N  
ATOM      5  C   ALA A   1     -11.493  14.679  66.214  1.00  0.00    -0.351 C  
ATOM      6  C   ALA A   1      -9.055  16.925  67.375  1.00  0.00    -0.217 C  
ATOM      7  O   ALA A   1     -10.930  14.990  65.026  1.00  0.00    -0.373 OA 
ATOM      8  C   ALA A   1      -8.205  14.601  67.080  1.00  0.00    -0.201 C  
ATOM      9  OXT ALA A   1     -12.577  14.121  66.311  1.00  0.00    -0.449 OA 
ATOM     10  C   ALA A   1     -10.528  18.902  67.900  1.00  0.00    -0.459 C  
ATOM     11  O   ALA A   1      -7.037  14.994  67.050  1.00  0.00    -0.184 OA 
ATOM     12  C   ALA A   1      -8.142  17.773  66.489  1.00  0.00    -0.305 C  
ATOM     13  C   ALA A   1      -9.565  19.818  67.137  1.00  0.00    -0.483 C  
ATOM     14  C   ALA A   1      -8.154  19.227  66.999  1.00  0.00    -0.284 C  
ENDROOT
BRANCH   8  15
ATOM     15  CA  ALA A   1      -8.545  13.070  67.153  1.00  0.00    -0.195 C  
ATOM     16  CB  ALA A   1      -7.313  12.289  67.621  1.00  0.00    -0.127 C  
BRANCH  15  17
ATOM     17  N   ALA A   1      -9.038  12.601  65.843  1.00  0.00    -0.427 NA 
ATOM     18  H   ALA A   1      -8.359  12.822  65.114  1.00  0.00     0.000 HD 
BRANCH  17  19
HETATM   19  C   UNK A   0      -9.403  11.165  65.780  1.00  0.00    -0.214 C  
BRANCH  19  20
HETATM   20  C   UNK A   0     -10.820  10.894  66.328  1.00  0.00    -0.191 C  
BRANCH  20  21
HETATM   21  C   UNK A   0     -10.828  10.382  67.778  1.00  0.00    -0.351 C  
BRANCH  21  22
HETATM   22  C   UNK A   0     -10.276   8.981  67.863  1.00  0.00    -0.272 A  
HETATM   23  C   UNK A   0     -10.702   7.989  66.971  1.00  0.00    -0.263 A  
HETATM   24  C   UNK A   0      -9.293   8.664  68.813  1.00  0.00    -0.142 A  
HETATM   25  C   UNK A   0     -10.169   6.701  67.038  1.00  0.00    -0.288 A  
HETATM   26  C   UNK A   0      -8.763   7.375  68.879  1.00  0.00    -0.132 A  
HETATM   27  C   UNK A   0      -9.200   6.394  67.993  1.00  0.00    -0.110 A  
ENDBRANCH  21  22
ENDBRANCH  20  21
ENDBRANCH  19  20
BRANCH  19  28
HETATM   28  C   UNK A   0      -9.336  10.691  64.313  1.00  0.00    -0.258 C  
HETATM   29  O   UNK A   0      -9.766  11.307  63.350  1.00  0.00    -0.289 OA 
BRANCH  28  30
HETATM   30  O   UNK A   0      -8.795   9.434  64.253  1.00  0.00    -0.208 OA 
BRANCH  30  31
HETATM   31  C   UNK A   0      -8.534   8.946  62.926  1.00  0.00    -0.178 C  
HETATM   32  C   UNK A   0      -8.123   7.487  63.032  1.00  0.00    -0.061 C  
ENDBRANCH  30  31
ENDBRANCH  28  30
ENDBRANCH  19  28
ENDBRANCH  17  19
ENDBRANCH  15  17
ENDBRANCH   8  15
TORSDOF 9
ENDMDL
MODEL      110
REMARK 921   NORMALIZED FREE ENERGY PREDICTED BY IDOCK:   -4.86 KCAL/MOL
REMARK 922        TOTAL FREE ENERGY PREDICTED BY IDOCK:   -9.36 KCAL/MOL
REMARK 923 INTER-LIGAND FREE ENERGY PREDICTED BY IDOCK:   -7.85 KCAL/MOL
REMARK 924 INTRA-LIGAND FREE ENERGY PREDICTED BY IDOCK:   -1.51 KCAL/MOL
REMARK 927      BINDING AFFINITY PREDICTED BY RF-SCORE:    0.00 PKD
ROOT
ATOM      1  C   ALA A   1      -8.477   8.063  64.865  1.00  0.00    -0.066 C  
ATOM      2  C   ALA A   1      -7.813   9.220  64.138  1.00  0.00    -0.125 C  
ATOM      3  CA  ALA A   1      -8.361  10.433  64.904  1.00  0.00    -0.165 C  
ATOM      4  N   ALA A   1      -8.645   9.926  66.275  1.00  0.00    -0.127 N  
ATOM      5  C   ALA A   1      -9.601  10.983  64.196  1.00  0.00    -0.266 C  
ATOM      6  C   ALA A   1      -8.349   8.490  66.331  1.00  0.00    -0.114 C  
ATOM      7  O   ALA A   1     -10.766  10.615  64.773  1.00  0.00    -0.225 OA 
ATOM      8  C   ALA A   1      -8.596  10.711  67.434  1.00  0.00    -0.122 C  
ATOM      9  OXT ALA A   1      -9.547  11.653  63.175  1.00  0.00    -0.375 OA 
ATOM     10  C   ALA A   1      -7.896   6.681  64.635  1.00  0.00    -0.116 C  
ATOM     11  O   ALA A   1      -8.579  10.197  68.554  1.00  0.00    -0.111 OA 
ATOM     12  C   ALA A   1      -9.199   7.551  67.185  1.00  0.00    -0.161 C  
ATOM     13  C   ALA A   1      -8.623   5.668  65.526  1.00  0.00    -0.151 C  
ATOM     14  C   ALA A   1      -8.698   6.106  66.996  1.00  0.00    -0.107 C  
ENDROOT
BRANCH   8  15
ATOM     15  CA  ALA A   1      -8.529  12.270  67.256  1.00  0.00    -0.181 C  
ATOM     16  CB  ALA A   1      -7.703  12.885  68.390  1.00  0.00    -0.133 C  
BRANCH  15  17
ATOM     17  N   ALA A   1      -9.895  12.828  67.195  1.00  0.00    -0.213 NA 
ATOM     18  H   ALA A   1     -10.513  12.187  66.697  1.00  0.00     0.000 HD 
BRANCH  17  19
HETATM   19  C   UNK A   0     -10.489  13.196  68.503  1.00  0.00    -0.251 C  
BRANCH  19  20
HETATM   20  C   UNK A   0     -11.111  14.608  68.491  1.00  0.00    -0.273 C  
BRANCH  20  21
HETATM   21  C   UNK A   0     -10.149  15.704  68.978  1.00  0.00    -0.227 C  
BRANCH  21  22
HETATM   22  C   UNK A   0     -10.261  16.944  68.125  1.00  0.00    -0.311 A  
HETATM   23  C   UNK A   0     -10.507  16.846  66.750  1.00  0.00    -0.260 A  
HETATM   24  C   UNK A   0     -10.160  18.215  68.709  1.00  0.00    -0.392 A  
HETATM   25  C   UNK A   0     -10.635  17.995  65.971  1.00  0.00    -0.258 A  
HETATM   26  C   UNK A   0     -10.288  19.364  67.927  1.00  0.00    -0.542 A  
HETATM   27  C   UNK A   0     -10.524  19.255  66.558  1.00  0.00    -0.552 A  
ENDBRANCH  21  22
ENDBRANCH  20  21
ENDBRANCH  19  20
BRANCH  19  28
HETATM   28  C   UNK A   0     -11.584  12.170  68.865  1.00  0.00    -0.324 C  
HETATM   29  O   UNK A   0     -12.234  11.516  68.064  1.00  0.00    -0.582 OA 
BRANCH  28  30
HETATM   30  O   UNK A   0     -11.783  12.160  70.220  1.00  0.00    -0.279 OA 
BRANCH  30  31
HETATM   31  C   UNK A   0     -12.556  11.054  70.714  1.00  0.00    -0.369 C  
HETATM   32  C   UNK A   0     -11.605   9.905  71.008  1.00  0.00    -0.470 C  
ENDBRANCH  30  31
ENDBRANCH  28  30
ENDBRANCH  19  28
ENDBRANCH  17  19
ENDBRANCH  15  17
ENDBRANCH   8  15
TORSDOF 9
ENDMDL
MODEL      111
REMARK 921   NORMALIZED FREE ENERGY PREDICTED BY IDOCK:   -4.85 KCAL/MOL
REMARK 922        TOTAL FREE ENERGY PREDICTED BY IDOCK:   -9.34 KCAL/MOL
REMARK 923 INTER-LIGAND FREE ENERGY PREDICTED BY IDOCK:   -7.84 KCAL/MOL
REMARK 924 INTRA-LIGAND FREE ENERGY PREDICTED BY IDOCK:   -1.51 KCAL/MOL
REMARK 927      BINDING AFFINITY PREDICTED BY RF-SCORE:    0.00 PKD
ROOT
ATOM      1  C   ALA A   1     -10.203  18.046  67.610  1.00  0.00    -0.376 C  
ATOM      2  C   ALA A   1     -10.702  17.320  68.847  1.00  0.00    -0.197 C  
ATOM      3  CA  ALA A   1     -10.075  15.928  68.673  1.00  0.00    -0.216 C  
ATOM      4  N   ALA A   1      -8.839  16.160  67.876  1.00  0.00    -0.181 N  
ATOM      5  C   ALA A   1     -11.069  14.989  67.986  1.00  0.00    -0.300 C  
ATOM      6  C   ALA A   1      -8.744  17.583  67.534  1.00  0.00    -0.225 C  
ATOM      7  O   ALA A   1     -10.825  14.808  66.669  1.00  0.00    -0.307 OA 
ATOM      8  C   ALA A   1      -7.689  15.365  67.954  1.00  0.00    -0.133 C  
ATOM      9  OXT ALA A   1     -12.024  14.487  68.560  1.00  0.00    -0.327 OA 
ATOM     10  C   ALA A   1     -10.307  19.559  67.611  1.00  0.00    -0.574 C  
ATOM     11  O   ALA A   1      -6.616  15.746  67.481  1.00  0.00    -0.157 OA 
ATOM     12  C   ALA A   1      -8.164  18.025  66.191  1.00  0.00    -0.180 C  
ATOM     13  C   ALA A   1      -9.661  20.115  66.337  1.00  0.00    -0.538 C  
ATOM     14  C   ALA A   1      -8.251  19.561  66.086  1.00  0.00    -0.336 C  
ENDROOT
BRANCH   8  15
ATOM     15  CA  ALA A   1      -7.805  13.985  68.695  1.00  0.00    -0.130 C  
ATOM     16  CB  ALA A   1      -6.597  13.790  69.617  1.00  0.00    -0.061 C  
BRANCH  15  17
ATOM     17  N   ALA A   1      -7.936  12.894  67.710  1.00  0.00    -0.148 NA 
ATOM     18  H   ALA A   1      -7.246  13.008  66.967  1.00  0.00     0.000 HD 
BRANCH  17  19
HETATM   19  C   UNK A   0      -7.861  11.522  68.268  1.00  0.00    -0.138 C  
BRANCH  19  20
HETATM   20  C   UNK A   0      -9.106  10.678  67.924  1.00  0.00    -0.145 C  
BRANCH  20  21
HETATM   21  C   UNK A   0     -10.433  11.379  68.261  1.00  0.00    -0.221 C  
BRANCH  21  22
HETATM   22  C   UNK A   0     -11.066  10.779  69.492  1.00  0.00    -0.334 A  
HETATM   23  C   UNK A   0     -10.612   9.559  70.009  1.00  0.00    -0.280 A  
HETATM   24  C   UNK A   0     -12.094  11.460  70.161  1.00  0.00    -0.439 A  
HETATM   25  C   UNK A   0     -11.185   9.022  71.162  1.00  0.00    -0.375 A  
HETATM   26  C   UNK A   0     -12.666  10.920  71.314  1.00  0.00    -0.542 A  
HETATM   27  C   UNK A   0     -12.213   9.702  71.814  1.00  0.00    -0.464 A  
ENDBRANCH  21  22
ENDBRANCH  20  21
ENDBRANCH  19  20
BRANCH  19  28
HETATM   28  C   UNK A   0      -6.608  10.817  67.707  1.00  0.00    -0.064 C  
HETATM   29  O   UNK A   0      -6.008   9.902  68.249  1.00  0.00    -0.043 OA 
BRANCH  28  30
HETATM   30  O   UNK A   0      -6.211  11.426  66.546  1.00  0.00    -0.142 OA 
BRANCH  30  31
HETATM   31  C   UNK A   0      -5.774  10.533  65.509  1.00  0.00    -0.132 C  
HETATM   32  C   UNK A   0      -7.002  10.024  64.773  1.00  0.00    -0.137 C  
ENDBRANCH  30  31
ENDBRANCH  28  30
ENDBRANCH  19  28
ENDBRANCH  17  19
ENDBRANCH  15  17
ENDBRANCH   8  15
TORSDOF 9
ENDMDL
MODEL      112
REMARK 921   NORMALIZED FREE ENERGY PREDICTED BY IDOCK:   -4.83 KCAL/MOL
REMARK 922        TOTAL FREE ENERGY PREDICTED BY IDOCK:   -9.31 KCAL/MOL
REMARK 923 INTER-LIGAND FREE ENERGY PREDICTED BY IDOCK:   -8.30 KCAL/MOL
REMARK 924 INTRA-LIGAND FREE ENERGY PREDICTED BY IDOCK:   -1.01 KCAL/MOL
REMARK 927      BINDING AFFINITY PREDICTED BY RF-SCORE:    0.00 PKD
ROOT
ATOM      1  C   ALA A   1      -8.365  17.362  67.440  1.00  0.00    -0.215 C  
ATOM      2  C   ALA A   1      -7.946  16.306  66.431  1.00  0.00    -0.299 C  
ATOM      3  CA  ALA A   1      -8.493  15.020  67.070  1.00  0.00    -0.229 C  
ATOM      4  N   ALA A   1      -9.662  15.461  67.880  1.00  0.00    -0.207 N  
ATOM      5  C   ALA A   1      -7.402  14.345  67.904  1.00  0.00    -0.154 C  
ATOM      6  C   ALA A   1      -9.789  16.919  67.792  1.00  0.00    -0.252 C  
ATOM      7  O   ALA A   1      -7.519  14.563  69.232  1.00  0.00    -0.141 OA 
ATOM      8  C   ALA A   1     -10.779  14.662  68.155  1.00  0.00    -0.242 C  
ATOM      9  OXT ALA A   1      -6.481  13.709  67.413  1.00  0.00    -0.278 OA 
ATOM     10  C   ALA A   1      -8.328  18.806  66.980  1.00  0.00    -0.280 C  
ATOM     11  O   ALA A   1     -11.821  15.150  68.597  1.00  0.00    -0.339 OA 
ATOM     12  C   ALA A   1     -10.266  17.734  68.994  1.00  0.00    -0.290 C  
ATOM     13  C   ALA A   1      -8.881  19.708  68.089  1.00  0.00    -0.370 C  
ATOM     14  C   ALA A   1     -10.237  19.232  68.630  1.00  0.00    -0.438 C  
ENDROOT
BRANCH   8  15
ATOM     15  CA  ALA A   1     -10.669  13.126  67.848  1.00  0.00    -0.235 C  
ATOM     16  CB  ALA A   1     -11.823  12.696  66.938  1.00  0.00    -0.425 C  
BRANCH  15  17
ATOM     17  N   ALA A   1     -10.641  12.361  69.111  1.00  0.00    -0.427 NA 
ATOM     18  H   ALA A   1     -11.256  12.797  69.797  1.00  0.00     0.000 HD 
BRANCH  17  19
HETATM   19  C   UNK A   0     -10.957  10.917  68.986  1.00  0.00    -0.235 C  
BRANCH  19  20
HETATM   20  C   UNK A   0      -9.904  10.154  68.156  1.00  0.00    -0.164 C  
BRANCH  20  21
HETATM   21  C   UNK A   0     -10.517   9.187  67.130  1.00  0.00    -0.325 C  
BRANCH  21  22
HETATM   22  C   UNK A   0     -10.041   7.774  67.363  1.00  0.00    -0.288 A  
HETATM   23  C   UNK A   0      -8.699   7.429  67.159  1.00  0.00    -0.121 A  
HETATM   24  C   UNK A   0     -10.931   6.796  67.828  1.00  0.00    -0.321 A  
HETATM   25  C   UNK A   0      -8.259   6.128  67.400  1.00  0.00    -0.109 A  
HETATM   26  C   UNK A   0     -10.489   5.494  68.068  1.00  0.00    -0.240 A  
HETATM   27  C   UNK A   0      -9.154   5.159  67.854  1.00  0.00    -0.121 A  
ENDBRANCH  21  22
ENDBRANCH  20  21
ENDBRANCH  19  20
BRANCH  19  28
HETATM   28  C   UNK A   0     -11.031  10.294  70.396  1.00  0.00    -0.296 C  
HETATM   29  O   UNK A   0     -10.117   9.713  70.961  1.00  0.00    -0.268 OA 
BRANCH  28  30
HETATM   30  O   UNK A   0     -12.301  10.412  70.892  1.00  0.00    -0.317 OA 
BRANCH  30  31
HETATM   31  C   UNK A   0     -12.996   9.169  71.089  1.00  0.00    -0.177 C  
HETATM   32  C   UNK A   0     -13.623   9.192  72.473  1.00  0.00    -0.497 C  
ENDBRANCH  30  31
ENDBRANCH  28  30
ENDBRANCH  19  28
ENDBRANCH  17  19
ENDBRANCH  15  17
ENDBRANCH   8  15
TORSDOF 9
ENDMDL
MODEL      113
REMARK 921   NORMALIZED FREE ENERGY PREDICTED BY IDOCK:   -4.82 KCAL/MOL
REMARK 922        TOTAL FREE ENERGY PREDICTED BY IDOCK:   -9.31 KCAL/MOL
REMARK 923 INTER-LIGAND FREE ENERGY PREDICTED BY IDOCK:   -7.70 KCAL/MOL
REMARK 924 INTRA-LIGAND FREE ENERGY PREDICTED BY IDOCK:   -1.61 KCAL/MOL
REMARK 927      BINDING AFFINITY PREDICTED BY RF-SCORE:    0.00 PKD
ROOT
ATOM      1  C   ALA A   1      -7.972  18.777  68.507  1.00  0.00    -0.377 C  
ATOM      2  C   ALA A   1      -9.443  18.452  68.311  1.00  0.00    -0.342 C  
ATOM      3  CA  ALA A   1      -9.377  17.056  67.673  1.00  0.00    -0.241 C  
ATOM      4  N   ALA A   1      -8.109  16.461  68.178  1.00  0.00    -0.161 N  
ATOM      5  C   ALA A   1      -9.423  17.175  66.148  1.00  0.00    -0.201 C  
ATOM      6  C   ALA A   1      -7.415  17.443  69.018  1.00  0.00    -0.185 C  
ATOM      7  O   ALA A   1      -8.215  17.048  65.556  1.00  0.00    -0.208 OA 
ATOM      8  C   ALA A   1      -7.897  15.089  68.359  1.00  0.00    -0.125 C  
ATOM      9  OXT ALA A   1     -10.447  17.411  65.524  1.00  0.00    -0.624 OA 
ATOM     10  C   ALA A   1      -7.639  19.917  69.451  1.00  0.00    -0.011 C  
ATOM     11  O   ALA A   1      -6.943  14.672  69.018  1.00  0.00    -0.104 OA 
ATOM     12  C   ALA A   1      -5.889  17.526  69.023  1.00  0.00    -0.194 C  
ATOM     13  C   ALA A   1      -6.118  20.024  69.603  1.00  0.00    -0.377 C  
ATOM     14  C   ALA A   1      -5.451  18.683  69.943  1.00  0.00    -0.226 C  
ENDROOT
BRANCH   8  15
ATOM     15  CA  ALA A   1      -8.937  14.101  67.722  1.00  0.00    -0.187 C  
ATOM     16  CB  ALA A   1      -9.547  13.216  68.814  1.00  0.00     0.073 C  
BRANCH  15  17
ATOM     17  N   ALA A   1      -8.291  13.307  66.658  1.00  0.00    -0.405 NA 
ATOM     18  H   ALA A   1      -7.393  13.721  66.408  1.00  0.00     0.000 HD 
BRANCH  17  19
HETATM   19  C   UNK A   0      -8.119  11.864  66.958  1.00  0.00    -0.167 C  
BRANCH  19  20
HETATM   20  C   UNK A   0      -8.703  10.960  65.853  1.00  0.00    -0.190 C  
BRANCH  20  21
HETATM   21  C   UNK A   0     -10.205  10.675  66.024  1.00  0.00    -0.309 C  
BRANCH  21  22
HETATM   22  C   UNK A   0     -11.039  11.735  65.348  1.00  0.00    -0.336 A  
HETATM   23  C   UNK A   0     -11.085  11.826  63.951  1.00  0.00    -0.482 A  
HETATM   24  C   UNK A   0     -11.815  12.618  66.113  1.00  0.00    -0.477 A  
HETATM   25  C   UNK A   0     -11.879  12.791  63.331  1.00  0.00    -0.591 A  
HETATM   26  C   UNK A   0     -12.607  13.584  65.491  1.00  0.00    -0.531 A  
HETATM   27  C   UNK A   0     -12.639  13.672  64.100  1.00  0.00    -0.169 A  
ENDBRANCH  21  22
ENDBRANCH  20  21
ENDBRANCH  19  20
BRANCH  19  28
HETATM   28  C   UNK A   0      -6.615  11.557  67.113  1.00  0.00    -0.124 C  
HETATM   29  O   UNK A   0      -5.705  12.329  66.856  1.00  0.00    -0.292 OA 
BRANCH  28  30
HETATM   30  O   UNK A   0      -6.443  10.255  67.502  1.00  0.00    -0.064 OA 
BRANCH  30  31
HETATM   31  C   UNK A   0      -5.293  10.014  68.330  1.00  0.00    -0.035 C  
HETATM   32  C   UNK A   0      -5.681   9.005  69.398  1.00  0.00    -0.035 C  
ENDBRANCH  30  31
ENDBRANCH  28  30
ENDBRANCH  19  28
ENDBRANCH  17  19
ENDBRANCH  15  17
ENDBRANCH   8  15
TORSDOF 9
ENDMDL
MODEL      114
REMARK 921   NORMALIZED FREE ENERGY PREDICTED BY IDOCK:   -4.82 KCAL/MOL
REMARK 922        TOTAL FREE ENERGY PREDICTED BY IDOCK:   -9.30 KCAL/MOL
REMARK 923 INTER-LIGAND FREE ENERGY PREDICTED BY IDOCK:   -7.76 KCAL/MOL
REMARK 924 INTRA-LIGAND FREE ENERGY PREDICTED BY IDOCK:   -1.53 KCAL/MOL
REMARK 927      BINDING AFFINITY PREDICTED BY RF-SCORE:    0.00 PKD
ROOT
ATOM      1  C   ALA A   1      -8.233  17.556  67.165  1.00  0.00    -0.229 C  
ATOM      2  C   ALA A   1      -7.817  16.487  66.168  1.00  0.00    -0.134 C  
ATOM      3  CA  ALA A   1      -8.414  15.218  66.794  1.00  0.00    -0.255 C  
ATOM      4  N   ALA A   1      -9.592  15.691  67.573  1.00  0.00    -0.223 N  
ATOM      5  C   ALA A   1      -7.363  14.516  67.657  1.00  0.00    -0.183 C  
ATOM      6  C   ALA A   1      -9.677  17.152  67.481  1.00  0.00    -0.256 C  
ATOM      7  O   ALA A   1      -7.508  14.739  68.981  1.00  0.00    -0.126 OA 
ATOM      8  C   ALA A   1     -10.735  14.921  67.820  1.00  0.00    -0.271 C  
ATOM      9  OXT ALA A   1      -6.446  13.855  67.190  1.00  0.00    -0.188 OA 
ATOM     10  C   ALA A   1      -8.147  18.998  66.704  1.00  0.00    -0.285 C  
ATOM     11  O   ALA A   1     -11.775  15.438  68.235  1.00  0.00    -0.360 OA 
ATOM     12  C   ALA A   1     -10.163  17.981  68.669  1.00  0.00    -0.385 C  
ATOM     13  C   ALA A   1      -8.704  19.916  67.797  1.00  0.00    -0.377 C  
ATOM     14  C   ALA A   1     -10.086  19.477  68.304  1.00  0.00    -0.542 C  
ENDROOT
BRANCH   8  15
ATOM     15  CA  ALA A   1     -10.658  13.382  67.518  1.00  0.00    -0.250 C  
ATOM     16  CB  ALA A   1     -12.069  12.826  67.306  1.00  0.00    -0.228 C  
BRANCH  15  17
ATOM     17  N   ALA A   1      -9.944  12.691  68.610  1.00  0.00    -0.393 NA 
ATOM     18  H   ALA A   1     -10.473  12.768  69.478  1.00  0.00     0.000 HD 
BRANCH  17  19
HETATM   19  C   UNK A   0      -9.603  11.272  68.346  1.00  0.00    -0.195 C  
BRANCH  19  20
HETATM   20  C   UNK A   0      -9.117  11.043  66.899  1.00  0.00    -0.165 C  
BRANCH  20  21
HETATM   21  C   UNK A   0     -10.080  10.187  66.059  1.00  0.00    -0.317 C  
BRANCH  21  22
HETATM   22  C   UNK A   0      -9.774   8.717  66.210  1.00  0.00    -0.342 A  
HETATM   23  C   UNK A   0      -8.636   8.159  65.614  1.00  0.00    -0.181 A  
HETATM   24  C   UNK A   0     -10.606   7.899  66.987  1.00  0.00    -0.381 A  
HETATM   25  C   UNK A   0      -8.345   6.805  65.778  1.00  0.00    -0.143 A  
HETATM   26  C   UNK A   0     -10.313   6.544  67.149  1.00  0.00    -0.311 A  
HETATM   27  C   UNK A   0      -9.184   5.996  66.545  1.00  0.00    -0.158 A  
ENDBRANCH  21  22
ENDBRANCH  20  21
ENDBRANCH  19  20
BRANCH  19  28
HETATM   28  C   UNK A   0      -8.492  10.830  69.322  1.00  0.00    -0.047 C  
HETATM   29  O   UNK A   0      -7.371  11.311  69.383  1.00  0.00    -0.105 OA 
BRANCH  28  30
HETATM   30  O   UNK A   0      -8.918   9.757  70.059  1.00  0.00    -0.217 OA 
BRANCH  30  31
HETATM   31  C   UNK A   0     -10.336   9.698  70.286  1.00  0.00    -0.280 C  
HETATM   32  C   UNK A   0     -10.696   8.271  70.663  1.00  0.00    -0.240 C  
ENDBRANCH  30  31
ENDBRANCH  28  30
ENDBRANCH  19  28
ENDBRANCH  17  19
ENDBRANCH  15  17
ENDBRANCH   8  15
TORSDOF 9
ENDMDL
MODEL      115
REMARK 921   NORMALIZED FREE ENERGY PREDICTED BY IDOCK:   -4.82 KCAL/MOL
REMARK 922        TOTAL FREE ENERGY PREDICTED BY IDOCK:   -9.30 KCAL/MOL
REMARK 923 INTER-LIGAND FREE ENERGY PREDICTED BY IDOCK:   -7.95 KCAL/MOL
REMARK 924 INTRA-LIGAND FREE ENERGY PREDICTED BY IDOCK:   -1.35 KCAL/MOL
REMARK 927      BINDING AFFINITY PREDICTED BY RF-SCORE:    0.00 PKD
ROOT
ATOM      1  C   ALA A   1      -9.050   5.235  71.314  1.00  0.00    -0.169 C  
ATOM      2  C   ALA A   1      -8.647   5.304  69.850  1.00  0.00    -0.106 C  
ATOM      3  CA  ALA A   1      -9.380   6.568  69.377  1.00  0.00    -0.143 C  
ATOM      4  N   ALA A   1      -9.506   7.418  70.594  1.00  0.00    -0.164 N  
ATOM      5  C   ALA A   1     -10.730   6.191  68.764  1.00  0.00    -0.308 C  
ATOM      6  C   ALA A   1      -8.943   6.702  71.744  1.00  0.00    -0.140 C  
ATOM      7  O   ALA A   1     -11.780   6.393  69.591  1.00  0.00    -0.389 OA 
ATOM      8  C   ALA A   1      -9.556   8.817  70.578  1.00  0.00    -0.191 C  
ATOM      9  OXT ALA A   1     -10.847   5.706  67.647  1.00  0.00    -0.225 OA 
ATOM     10  C   ALA A   1      -8.229   4.330  72.212  1.00  0.00    -0.103 C  
ATOM     11  O   ALA A   1      -9.395   9.474  71.608  1.00  0.00    -0.158 OA 
ATOM     12  C   ALA A   1      -9.564   6.846  73.132  1.00  0.00    -0.183 C  
ATOM     13  C   ALA A   1      -8.714   4.474  73.658  1.00  0.00    -0.106 C  
ATOM     14  C   ALA A   1      -8.808   5.935  74.120  1.00  0.00    -0.123 C  
ENDROOT
BRANCH   8  15
ATOM     15  CA  ALA A   1      -9.792   9.522  69.195  1.00  0.00    -0.176 C  
ATOM     16  CB  ALA A   1      -8.791  10.668  69.022  1.00  0.00    -0.154 C  
BRANCH  15  17
ATOM     17  N   ALA A   1     -11.191   9.985  69.098  1.00  0.00    -0.387 NA 
ATOM     18  H   ALA A   1     -11.818   9.288  69.499  1.00  0.00     0.000 HD 
BRANCH  17  19
HETATM   19  C   UNK A   0     -11.462  11.316  69.692  1.00  0.00    -0.309 C  
BRANCH  19  20
HETATM   20  C   UNK A   0     -11.884  12.358  68.635  1.00  0.00    -0.348 C  
BRANCH  20  21
HETATM   21  C   UNK A   0     -11.554  13.805  69.035  1.00  0.00    -0.356 C  
BRANCH  21  22
HETATM   22  C   UNK A   0     -10.755  14.499  67.959  1.00  0.00    -0.243 A  
HETATM   23  C   UNK A   0      -9.358  14.402  67.931  1.00  0.00    -0.203 A  
HETATM   24  C   UNK A   0     -11.408  15.216  66.946  1.00  0.00    -0.264 A  
HETATM   25  C   UNK A   0      -8.627  15.023  66.919  1.00  0.00    -0.280 A  
HETATM   26  C   UNK A   0     -10.674  15.839  65.935  1.00  0.00    -0.320 A  
HETATM   27  C   UNK A   0      -9.284  15.743  65.921  1.00  0.00    -0.337 A  
ENDBRANCH  21  22
ENDBRANCH  20  21
ENDBRANCH  19  20
BRANCH  19  28
HETATM   28  C   UNK A   0     -12.588  11.182  70.739  1.00  0.00    -0.352 C  
HETATM   29  O   UNK A   0     -12.988  12.077  71.467  1.00  0.00    -0.397 OA 
BRANCH  28  30
HETATM   30  O   UNK A   0     -13.019   9.884  70.795  1.00  0.00    -0.301 OA 
BRANCH  30  31
HETATM   31  C   UNK A   0     -13.255   9.377  72.119  1.00  0.00    -0.460 C  
HETATM   32  C   UNK A   0     -14.394   8.374  72.046  1.00  0.00    -0.555 C  
ENDBRANCH  30  31
ENDBRANCH  28  30
ENDBRANCH  19  28
ENDBRANCH  17  19
ENDBRANCH  15  17
ENDBRANCH   8  15
TORSDOF 9
ENDMDL
MODEL      116
REMARK 921   NORMALIZED FREE ENERGY PREDICTED BY IDOCK:   -4.82 KCAL/MOL
REMARK 922        TOTAL FREE ENERGY PREDICTED BY IDOCK:   -9.29 KCAL/MOL
REMARK 923 INTER-LIGAND FREE ENERGY PREDICTED BY IDOCK:   -9.52 KCAL/MOL
REMARK 924 INTRA-LIGAND FREE ENERGY PREDICTED BY IDOCK:    0.22 KCAL/MOL
REMARK 927      BINDING AFFINITY PREDICTED BY RF-SCORE:    0.00 PKD
ROOT
ATOM      1  C   ALA A   1     -10.074   5.694  70.301  1.00  0.00    -0.287 C  
ATOM      2  C   ALA A   1     -11.389   6.059  69.635  1.00  0.00    -0.328 C  
ATOM      3  CA  ALA A   1     -11.656   7.461  70.205  1.00  0.00    -0.128 C  
ATOM      4  N   ALA A   1     -10.307   8.016  70.506  1.00  0.00    -0.200 N  
ATOM      5  C   ALA A   1     -12.556   7.362  71.438  1.00  0.00    -0.370 C  
ATOM      6  C   ALA A   1      -9.289   7.006  70.200  1.00  0.00    -0.162 C  
ATOM      7  O   ALA A   1     -11.890   7.465  72.609  1.00  0.00    -0.237 OA 
ATOM      8  C   ALA A   1      -9.991   9.380  70.482  1.00  0.00    -0.267 C  
ATOM      9  OXT ALA A   1     -13.761   7.160  71.374  1.00  0.00    -0.367 OA 
ATOM     10  C   ALA A   1      -9.299   4.534  69.705  1.00  0.00    -0.223 C  
ATOM     11  O   ALA A   1      -8.820   9.764  70.478  1.00  0.00    -0.182 OA 
ATOM     12  C   ALA A   1      -8.028   6.884  71.056  1.00  0.00    -0.102 C  
ATOM     13  C   ALA A   1      -7.961   4.386  70.437  1.00  0.00    -0.056 C  
ATOM     14  C   ALA A   1      -7.181   5.704  70.539  1.00  0.00    -0.074 C  
ENDROOT
BRANCH   8  15
ATOM     15  CA  ALA A   1     -11.181  10.403  70.426  1.00  0.00    -0.321 C  
ATOM     16  CB  ALA A   1     -12.125  10.164  71.608  1.00  0.00    -0.373 C  
BRANCH  15  17
ATOM     17  N   ALA A   1     -11.876  10.296  69.128  1.00  0.00    -0.508 NA 
ATOM     18  H   ALA A   1     -12.871  10.126  69.276  1.00  0.00     0.000 HD 
BRANCH  17  19
HETATM   19  C   UNK A   0     -11.687  11.445  68.209  1.00  0.00    -0.288 C  
BRANCH  19  20
HETATM   20  C   UNK A   0     -11.069  12.669  68.918  1.00  0.00    -0.307 C  
BRANCH  20  21
HETATM   21  C   UNK A   0     -12.028  13.866  69.020  1.00  0.00    -0.402 C  
BRANCH  21  22
HETATM   22  C   UNK A   0     -12.240  14.272  70.458  1.00  0.00    -0.427 A  
HETATM   23  C   UNK A   0     -11.504  15.322  71.021  1.00  0.00    -0.396 A  
HETATM   24  C   UNK A   0     -13.210  13.627  71.238  1.00  0.00    -0.308 A  
HETATM   25  C   UNK A   0     -11.723  15.709  72.343  1.00  0.00    -0.574 A  
HETATM   26  C   UNK A   0     -13.426  14.015  72.562  1.00  0.00    -0.661 A  
HETATM   27  C   UNK A   0     -12.683  15.055  73.114  1.00  0.00    -0.595 A  
ENDBRANCH  21  22
ENDBRANCH  20  21
ENDBRANCH  19  20
BRANCH  19  28
HETATM   28  C   UNK A   0     -10.763  11.018  67.050  1.00  0.00    -0.270 C  
HETATM   29  O   UNK A   0     -10.521   9.866  66.726  1.00  0.00    -0.230 OA 
BRANCH  28  30
HETATM   30  O   UNK A   0     -10.180  12.122  66.487  1.00  0.00    -0.203 OA 
BRANCH  30  31
HETATM   31  C   UNK A   0     -10.414  12.282  65.078  1.00  0.00    -0.290 C  
HETATM   32  C   UNK A   0     -11.750  12.984  64.897  1.00  0.00    -0.381 C  
ENDBRANCH  30  31
ENDBRANCH  28  30
ENDBRANCH  19  28
ENDBRANCH  17  19
ENDBRANCH  15  17
ENDBRANCH   8  15
TORSDOF 9
ENDMDL
MODEL      117
REMARK 921   NORMALIZED FREE ENERGY PREDICTED BY IDOCK:   -4.81 KCAL/MOL
REMARK 922        TOTAL FREE ENERGY PREDICTED BY IDOCK:   -9.28 KCAL/MOL
REMARK 923 INTER-LIGAND FREE ENERGY PREDICTED BY IDOCK:   -8.86 KCAL/MOL
REMARK 924 INTRA-LIGAND FREE ENERGY PREDICTED BY IDOCK:   -0.42 KCAL/MOL
REMARK 927      BINDING AFFINITY PREDICTED BY RF-SCORE:    0.00 PKD
ROOT
ATOM      1  C   ALA A   1     -12.582  13.909  70.412  1.00  0.00    -0.350 C  
ATOM      2  C   ALA A   1     -12.191  12.593  69.761  1.00  0.00    -0.209 C  
ATOM      3  CA  ALA A   1     -11.190  13.053  68.690  1.00  0.00    -0.277 C  
ATOM      4  N   ALA A   1     -10.598  14.308  69.231  1.00  0.00    -0.191 N  
ATOM      5  C   ALA A   1     -11.908  13.252  67.353  1.00  0.00    -0.366 C  
ATOM      6  C   ALA A   1     -11.232  14.628  70.513  1.00  0.00    -0.099 C  
ATOM      7  O   ALA A   1     -12.176  14.545  67.066  1.00  0.00    -0.362 OA 
ATOM      8  C   ALA A   1      -9.305  14.760  68.940  1.00  0.00    -0.184 C  
ATOM      9  OXT ALA A   1     -12.252  12.325  66.633  1.00  0.00    -0.574 OA 
ATOM     10  C   ALA A   1     -13.275  13.832  71.758  1.00  0.00    -0.467 C  
ATOM     11  O   ALA A   1      -8.774  15.649  69.608  1.00  0.00    -0.245 OA 
ATOM     12  C   ALA A   1     -11.486  16.080  70.917  1.00  0.00    -0.451 C  
ATOM     13  C   ALA A   1     -13.492  15.248  72.301  1.00  0.00    -0.552 C  
ATOM     14  C   ALA A   1     -12.218  16.105  72.274  1.00  0.00    -0.577 C  
ENDROOT
BRANCH   8  15
ATOM     15  CA  ALA A   1      -8.542  14.071  67.753  1.00  0.00    -0.183 C  
ATOM     16  CB  ALA A   1      -9.064  14.612  66.419  1.00  0.00    -0.242 C  
BRANCH  15  17
ATOM     17  N   ALA A   1      -8.677  12.605  67.851  1.00  0.00    -0.172 NA 
ATOM     18  H   ALA A   1      -9.037  12.227  66.975  1.00  0.00     0.000 HD 
BRANCH  17  19
HETATM   19  C   UNK A   0      -7.446  11.879  68.250  1.00  0.00    -0.104 C  
BRANCH  19  20
HETATM   20  C   UNK A   0      -7.748  10.642  69.121  1.00  0.00    -0.138 C  
BRANCH  20  21
HETATM   21  C   UNK A   0      -9.236  10.254  69.138  1.00  0.00    -0.203 C  
BRANCH  21  22
HETATM   22  C   UNK A   0      -9.589   9.508  70.401  1.00  0.00    -0.326 A  
HETATM   23  C   UNK A   0     -10.924   9.374  70.803  1.00  0.00    -0.371 A  
HETATM   24  C   UNK A   0      -8.583   8.901  71.167  1.00  0.00    -0.263 A  
HETATM   25  C   UNK A   0     -11.245   8.661  71.958  1.00  0.00    -0.434 A  
HETATM   26  C   UNK A   0      -8.907   8.189  72.323  1.00  0.00    -0.248 A  
HETATM   27  C   UNK A   0     -10.238   8.070  72.719  1.00  0.00    -0.389 A  
ENDBRANCH  21  22
ENDBRANCH  20  21
ENDBRANCH  19  20
BRANCH  19  28
HETATM   28  C   UNK A   0      -6.694  11.426  66.980  1.00  0.00    -0.131 C  
HETATM   29  O   UNK A   0      -5.785  12.037  66.441  1.00  0.00    -0.225 OA 
BRANCH  28  30
HETATM   30  O   UNK A   0      -7.253  10.275  66.493  1.00  0.00    -0.099 OA 
BRANCH  30  31
HETATM   31  C   UNK A   0      -7.901  10.405  65.217  1.00  0.00    -0.137 C  
HETATM   32  C   UNK A   0      -9.280   9.774  65.320  1.00  0.00    -0.294 C  
ENDBRANCH  30  31
ENDBRANCH  28  30
ENDBRANCH  19  28
ENDBRANCH  17  19
ENDBRANCH  15  17
ENDBRANCH   8  15
TORSDOF 9
ENDMDL
MODEL      118
REMARK 921   NORMALIZED FREE ENERGY PREDICTED BY IDOCK:   -4.74 KCAL/MOL
REMARK 922        TOTAL FREE ENERGY PREDICTED BY IDOCK:   -9.17 KCAL/MOL
REMARK 923 INTER-LIGAND FREE ENERGY PREDICTED BY IDOCK:   -7.27 KCAL/MOL
REMARK 924 INTRA-LIGAND FREE ENERGY PREDICTED BY IDOCK:   -1.90 KCAL/MOL
REMARK 927      BINDING AFFINITY PREDICTED BY RF-SCORE:    0.00 PKD
ROOT
ATOM      1  C   ALA A   1     -11.705  13.242  65.865  1.00  0.00    -0.403 C  
ATOM      2  C   ALA A   1     -11.440  14.079  67.105  1.00  0.00    -0.373 C  
ATOM      3  CA  ALA A   1     -10.755  13.063  68.033  1.00  0.00    -0.232 C  
ATOM      4  N   ALA A   1     -10.095  12.091  67.119  1.00  0.00    -0.201 N  
ATOM      5  C   ALA A   1     -11.791  12.416  68.956  1.00  0.00    -0.300 C  
ATOM      6  C   ALA A   1     -10.401  12.449  65.730  1.00  0.00    -0.263 C  
ATOM      7  O   ALA A   1     -12.171  11.180  68.565  1.00  0.00    -0.600 OA 
ATOM      8  C   ALA A   1      -8.934  11.374  67.433  1.00  0.00    -0.154 C  
ATOM      9  OXT ALA A   1     -12.269  12.983  69.929  1.00  0.00    -0.277 OA 
ATOM     10  C   ALA A   1     -12.037  13.990  64.589  1.00  0.00    -0.462 C  
ATOM     11  O   ALA A   1      -8.287  10.792  66.561  1.00  0.00    -0.135 OA 
ATOM     12  C   ALA A   1     -10.602  11.365  64.671  1.00  0.00    -0.380 C  
ATOM     13  C   ALA A   1     -12.166  12.993  63.433  1.00  0.00    -0.552 C  
ATOM     14  C   ALA A   1     -10.972  12.032  63.332  1.00  0.00    -0.475 C  
ENDROOT
BRANCH   8  15
ATOM     15  CA  ALA A   1      -8.465  11.367  68.932  1.00  0.00    -0.024 C  
ATOM     16  CB  ALA A   1      -6.954  11.126  68.999  1.00  0.00    -0.101 C  
BRANCH  15  17
ATOM     17  N   ALA A   1      -9.225  10.356  69.692  1.00  0.00    -0.401 NA 
ATOM     18  H   ALA A   1     -10.225  10.543  69.620  1.00  0.00     0.000 HD 
BRANCH  17  19
HETATM   19  C   UNK A   0      -8.944   8.945  69.329  1.00  0.00    -0.144 C  
BRANCH  19  20
HETATM   20  C   UNK A   0      -8.126   8.211  70.412  1.00  0.00    -0.108 C  
BRANCH  20  21
HETATM   21  C   UNK A   0      -7.295   7.040  69.863  1.00  0.00    -0.085 C  
BRANCH  21  22
HETATM   22  C   UNK A   0      -7.813   5.718  70.375  1.00  0.00    -0.104 A  
HETATM   23  C   UNK A   0      -7.563   4.532  69.673  1.00  0.00    -0.054 A  
HETATM   24  C   UNK A   0      -8.517   5.657  71.585  1.00  0.00    -0.131 A  
HETATM   25  C   UNK A   0      -8.022   3.310  70.165  1.00  0.00    -0.053 A  
HETATM   26  C   UNK A   0      -8.977   4.433  72.075  1.00  0.00    -0.147 A  
HETATM   27  C   UNK A   0      -8.730   3.260  71.365  1.00  0.00    -0.117 A  
ENDBRANCH  21  22
ENDBRANCH  20  21
ENDBRANCH  19  20
BRANCH  19  28
HETATM   28  C   UNK A   0     -10.280   8.202  69.122  1.00  0.00    -0.214 C  
HETATM   29  O   UNK A   0     -10.953   7.696  70.007  1.00  0.00    -0.255 OA 
BRANCH  28  30
HETATM   30  O   UNK A   0     -10.564   8.116  67.785  1.00  0.00    -0.222 OA 
BRANCH  30  31
HETATM   31  C   UNK A   0      -9.493   7.616  66.967  1.00  0.00    -0.163 C  
HETATM   32  C   UNK A   0      -9.535   6.098  67.007  1.00  0.00    -0.141 C  
ENDBRANCH  30  31
ENDBRANCH  28  30
ENDBRANCH  19  28
ENDBRANCH  17  19
ENDBRANCH  15  17
ENDBRANCH   8  15
TORSDOF 9
ENDMDL
MODEL      119
REMARK 921   NORMALIZED FREE ENERGY PREDICTED BY IDOCK:   -4.73 KCAL/MOL
REMARK 922        TOTAL FREE ENERGY PREDICTED BY IDOCK:   -9.16 KCAL/MOL
REMARK 923 INTER-LIGAND FREE ENERGY PREDICTED BY IDOCK:   -7.05 KCAL/MOL
REMARK 924 INTRA-LIGAND FREE ENERGY PREDICTED BY IDOCK:   -2.11 KCAL/MOL
REMARK 927      BINDING AFFINITY PREDICTED BY RF-SCORE:    0.00 PKD
ROOT
ATOM      1  C   ALA A   1     -11.504  12.847  67.105  1.00  0.00    -0.388 C  
ATOM      2  C   ALA A   1     -10.914  12.862  68.505  1.00  0.00    -0.288 C  
ATOM      3  CA  ALA A   1     -10.100  11.559  68.522  1.00  0.00    -0.207 C  
ATOM      4  N   ALA A   1      -9.725  11.322  67.100  1.00  0.00    -0.180 N  
ATOM      5  C   ALA A   1     -10.937  10.426  69.120  1.00  0.00    -0.241 C  
ATOM      6  C   ALA A   1     -10.315  12.372  66.263  1.00  0.00    -0.244 C  
ATOM      7  O   ALA A   1     -11.470   9.596  68.197  1.00  0.00     0.069 OA 
ATOM      8  C   ALA A   1      -8.568  10.648  66.691  1.00  0.00    -0.139 C  
ATOM      9  OXT ALA A   1     -11.147  10.310  70.319  1.00  0.00    -0.282 OA 
ATOM     10  C   ALA A   1     -12.070  14.153  66.583  1.00  0.00    -0.480 C  
ATOM     11  O   ALA A   1      -8.172  10.708  65.525  1.00  0.00    -0.160 OA 
ATOM     12  C   ALA A   1     -10.815  12.056  64.854  1.00  0.00    -0.349 C  
ATOM     13  C   ALA A   1     -12.517  13.969  65.129  1.00  0.00    -0.472 C  
ATOM     14  C   ALA A   1     -11.438  13.328  64.244  1.00  0.00    -0.435 C  
ENDROOT
BRANCH   8  15
ATOM     15  CA  ALA A   1      -7.773   9.838  67.777  1.00  0.00    -0.091 C  
ATOM     16  CB  ALA A   1      -6.291   9.779  67.395  1.00  0.00    -0.068 C  
BRANCH  15  17
ATOM     17  N   ALA A   1      -8.363   8.494  67.934  1.00  0.00    -0.125 NA 
ATOM     18  H   ALA A   1      -8.950   8.273  67.130  1.00  0.00     0.000 HD 
BRANCH  17  19
HETATM   19  C   UNK A   0      -7.391   7.399  68.172  1.00  0.00    -0.100 C  
BRANCH  19  20
HETATM   20  C   UNK A   0      -7.694   6.615  69.467  1.00  0.00    -0.104 C  
BRANCH  20  21
HETATM   21  C   UNK A   0      -8.008   7.519  70.670  1.00  0.00    -0.100 C  
BRANCH  21  22
HETATM   22  C   UNK A   0      -9.438   7.346  71.121  1.00  0.00    -0.157 A  
HETATM   23  C   UNK A   0      -9.863   7.846  72.358  1.00  0.00    -0.287 A  
HETATM   24  C   UNK A   0     -10.371   6.717  70.285  1.00  0.00    -0.235 A  
HETATM   25  C   UNK A   0     -11.192   7.706  72.759  1.00  0.00    -0.431 A  
HETATM   26  C   UNK A   0     -11.700   6.576  70.688  1.00  0.00    -0.436 A  
HETATM   27  C   UNK A   0     -12.111   7.070  71.925  1.00  0.00    -0.358 A  
ENDBRANCH  21  22
ENDBRANCH  20  21
ENDBRANCH  19  20
BRANCH  19  28
HETATM   28  C   UNK A   0      -7.428   6.424  66.977  1.00  0.00    -0.084 C  
HETATM   29  O   UNK A   0      -6.763   6.529  65.958  1.00  0.00    -0.046 OA 
BRANCH  28  30
HETATM   30  O   UNK A   0      -8.381   5.464  67.187  1.00  0.00    -0.108 OA 
BRANCH  30  31
HETATM   31  C   UNK A   0      -9.386   5.370  66.164  1.00  0.00    -0.157 C  
HETATM   32  C   UNK A   0     -10.684   5.929  66.723  1.00  0.00    -0.371 C  
ENDBRANCH  30  31
ENDBRANCH  28  30
ENDBRANCH  19  28
ENDBRANCH  17  19
ENDBRANCH  15  17
ENDBRANCH   8  15
TORSDOF 9
ENDMDL
MODEL      120
REMARK 921   NORMALIZED FREE ENERGY PREDICTED BY IDOCK:   -4.73 KCAL/MOL
REMARK 922        TOTAL FREE ENERGY PREDICTED BY IDOCK:   -9.16 KCAL/MOL
REMARK 923 INTER-LIGAND FREE ENERGY PREDICTED BY IDOCK:   -8.02 KCAL/MOL
REMARK 924 INTRA-LIGAND FREE ENERGY PREDICTED BY IDOCK:   -1.14 KCAL/MOL
REMARK 927      BINDING AFFINITY PREDICTED BY RF-SCORE:    0.00 PKD
ROOT
ATOM      1  C   ALA A   1     -10.064  11.586  64.319  1.00  0.00    -0.338 C  
ATOM      2  C   ALA A   1      -9.299  10.414  63.729  1.00  0.00    -0.329 C  
ATOM      3  CA  ALA A   1      -8.762   9.717  64.988  1.00  0.00    -0.174 C  
ATOM      4  N   ALA A   1      -9.742  10.050  66.059  1.00  0.00    -0.222 N  
ATOM      5  C   ALA A   1      -7.345  10.208  65.294  1.00  0.00    -0.141 C  
ATOM      6  C   ALA A   1     -10.775  10.935  65.511  1.00  0.00    -0.112 C  
ATOM      7  O   ALA A   1      -7.290  11.128  66.282  1.00  0.00    -0.127 OA 
ATOM      8  C   ALA A   1     -10.014   9.231  67.162  1.00  0.00    -0.216 C  
ATOM      9  OXT ALA A   1      -6.360   9.841  64.671  1.00  0.00    -0.092 OA 
ATOM     10  C   ALA A   1     -11.044  12.298  63.407  1.00  0.00    -0.487 C  
ATOM     11  O   ALA A   1     -11.007   9.420  67.868  1.00  0.00    -0.198 OA 
ATOM     12  C   ALA A   1     -11.391  12.040  66.369  1.00  0.00    -0.411 C  
ATOM     13  C   ALA A   1     -11.792  13.373  64.203  1.00  0.00    -0.492 C  
ATOM     14  C   ALA A   1     -12.391  12.843  65.514  1.00  0.00    -0.517 C  
ENDROOT
BRANCH   8  15
ATOM     15  CA  ALA A   1      -9.028   8.044  67.450  1.00  0.00    -0.134 C  
ATOM     16  CB  ALA A   1      -9.091   7.030  66.303  1.00  0.00    -0.178 C  
BRANCH  15  17
ATOM     17  N   ALA A   1      -9.347   7.430  68.754  1.00  0.00    -0.144 NA 
ATOM     18  H   ALA A   1      -9.542   6.436  68.635  1.00  0.00     0.000 HD 
BRANCH  17  19
HETATM   19  C   UNK A   0      -8.327   7.625  69.813  1.00  0.00    -0.133 C  
BRANCH  19  20
HETATM   20  C   UNK A   0      -8.957   7.940  71.186  1.00  0.00    -0.153 C  
BRANCH  20  21
HETATM   21  C   UNK A   0      -9.839   9.199  71.180  1.00  0.00    -0.371 C  
BRANCH  21  22
HETATM   22  C   UNK A   0     -11.290   8.848  71.402  1.00  0.00    -0.380 A  
HETATM   23  C   UNK A   0     -11.722   7.517  71.332  1.00  0.00    -0.310 A  
HETATM   24  C   UNK A   0     -12.218   9.848  71.723  1.00  0.00    -0.425 A  
HETATM   25  C   UNK A   0     -13.060   7.196  71.563  1.00  0.00    -0.427 A  
HETATM   26  C   UNK A   0     -13.556   9.524  71.952  1.00  0.00    -0.468 A  
HETATM   27  C   UNK A   0     -13.978   8.199  71.872  1.00  0.00    -0.451 A  
ENDBRANCH  21  22
ENDBRANCH  20  21
ENDBRANCH  19  20
BRANCH  19  28
HETATM   28  C   UNK A   0      -7.475   6.344  69.935  1.00  0.00    -0.088 C  
HETATM   29  O   UNK A   0      -6.707   5.922  69.085  1.00  0.00    -0.055 OA 
BRANCH  28  30
HETATM   30  O   UNK A   0      -7.770   5.698  71.106  1.00  0.00    -0.099 OA 
BRANCH  30  31
HETATM   31  C   UNK A   0      -8.184   4.330  70.960  1.00  0.00    -0.076 C  
HETATM   32  C   UNK A   0      -9.662   4.319  70.605  1.00  0.00    -0.274 C  
ENDBRANCH  30  31
ENDBRANCH  28  30
ENDBRANCH  19  28
ENDBRANCH  17  19
ENDBRANCH  15  17
ENDBRANCH   8  15
TORSDOF 9
ENDMDL
MODEL      121
REMARK 921   NORMALIZED FREE ENERGY PREDICTED BY IDOCK:   -4.71 KCAL/MOL
REMARK 922        TOTAL FREE ENERGY PREDICTED BY IDOCK:   -9.14 KCAL/MOL
REMARK 923 INTER-LIGAND FREE ENERGY PREDICTED BY IDOCK:  -10.15 KCAL/MOL
REMARK 924 INTRA-LIGAND FREE ENERGY PREDICTED BY IDOCK:    1.02 KCAL/MOL
REMARK 927      BINDING AFFINITY PREDICTED BY RF-SCORE:    0.00 PKD
ROOT
ATOM      1  C   ALA A   1      -9.895  10.638  64.239  1.00  0.00    -0.391 C  
ATOM      2  C   ALA A   1      -9.820  12.040  63.658  1.00  0.00    -0.308 C  
ATOM      3  CA  ALA A   1     -10.877  12.786  64.487  1.00  0.00    -0.347 C  
ATOM      4  N   ALA A   1     -10.923  12.063  65.789  1.00  0.00    -0.297 N  
ATOM      5  C   ALA A   1     -12.217  12.785  63.749  1.00  0.00    -0.489 C  
ATOM      6  C   ALA A   1     -10.005  10.921  65.741  1.00  0.00    -0.247 C  
ATOM      7  O   ALA A   1     -13.095  11.871  64.216  1.00  0.00    -0.578 OA 
ATOM      8  C   ALA A   1     -11.261  12.659  67.010  1.00  0.00    -0.300 C  
ATOM      9  OXT ALA A   1     -12.456  13.510  62.793  1.00  0.00    -0.431 OA 
ATOM     10  C   ALA A   1      -8.742   9.703  63.931  1.00  0.00    -0.241 C  
ATOM     11  O   ALA A   1     -11.032  12.094  68.081  1.00  0.00    -0.207 OA 
ATOM     12  C   ALA A   1     -10.348   9.615  66.456  1.00  0.00    -0.264 C  
ATOM     13  C   ALA A   1      -8.942   8.383  64.685  1.00  0.00     0.271 C  
ATOM     14  C   ALA A   1      -9.237   8.582  66.179  1.00  0.00    -0.269 C  
ENDROOT
BRANCH   8  15
ATOM     15  CA  ALA A   1     -11.911  14.088  66.969  1.00  0.00    -0.438 C  
ATOM     16  CB  ALA A   1     -13.145  14.068  66.062  1.00  0.00     0.143 C  
BRANCH  15  17
ATOM     17  N   ALA A   1     -10.913  15.083  66.531  1.00  0.00    -0.325 NA 
ATOM     18  H   ALA A   1     -11.167  15.455  65.617  1.00  0.00     0.000 HD 
BRANCH  17  19
HETATM   19  C   UNK A   0     -10.665  16.195  67.482  1.00  0.00    -0.304 C  
BRANCH  19  20
HETATM   20  C   UNK A   0     -10.319  15.691  68.899  1.00  0.00    -0.218 C  
BRANCH  20  21
HETATM   21  C   UNK A   0     -10.959  16.528  70.019  1.00  0.00    -0.245 C  
BRANCH  21  22
HETATM   22  C   UNK A   0     -11.793  15.666  70.934  1.00  0.00    -0.428 A  
HETATM   23  C   UNK A   0     -11.793  15.883  72.318  1.00  0.00    -0.617 A  
HETATM   24  C   UNK A   0     -12.613  14.660  70.403  1.00  0.00    -0.399 A  
HETATM   25  C   UNK A   0     -12.586  15.099  73.156  1.00  0.00    -0.585 A  
HETATM   26  C   UNK A   0     -13.405  13.876  71.244  1.00  0.00    -0.314 A  
HETATM   27  C   UNK A   0     -13.391  14.094  72.620  1.00  0.00    -0.638 A  
ENDBRANCH  21  22
ENDBRANCH  20  21
ENDBRANCH  19  20
BRANCH  19  28
HETATM   28  C   UNK A   0      -9.497  17.056  66.958  1.00  0.00    -0.250 C  
HETATM   29  O   UNK A   0      -8.932  16.904  65.886  1.00  0.00    -0.509 OA 
BRANCH  28  30
HETATM   30  O   UNK A   0      -9.126  17.967  67.910  1.00  0.00    -0.259 OA 
BRANCH  30  31
HETATM   31  C   UNK A   0      -7.742  17.918  68.293  1.00  0.00    -0.279 C  
HETATM   32  C   UNK A   0      -7.384  19.244  68.945  1.00  0.00    -0.392 C  
ENDBRANCH  30  31
ENDBRANCH  28  30
ENDBRANCH  19  28
ENDBRANCH  17  19
ENDBRANCH  15  17
ENDBRANCH   8  15
TORSDOF 9
ENDMDL
MODEL      122
REMARK 921   NORMALIZED FREE ENERGY PREDICTED BY IDOCK:   -4.71 KCAL/MOL
REMARK 922        TOTAL FREE ENERGY PREDICTED BY IDOCK:   -9.14 KCAL/MOL
REMARK 923 INTER-LIGAND FREE ENERGY PREDICTED BY IDOCK:   -8.09 KCAL/MOL
REMARK 924 INTRA-LIGAND FREE ENERGY PREDICTED BY IDOCK:   -1.05 KCAL/MOL
REMARK 927      BINDING AFFINITY PREDICTED BY RF-SCORE:    0.00 PKD
ROOT
ATOM      1  C   ALA A   1      -8.904  19.290  66.910  1.00  0.00    -0.334 C  
ATOM      2  C   ALA A   1     -10.381  19.089  66.618  1.00  0.00    -0.501 C  
ATOM      3  CA  ALA A   1     -10.537  17.571  66.797  1.00  0.00    -0.201 C  
ATOM      4  N   ALA A   1      -9.478  17.188  67.772  1.00  0.00    -0.250 N  
ATOM      5  C   ALA A   1     -10.396  16.867  65.446  1.00  0.00    -0.104 C  
ATOM      6  C   ALA A   1      -8.690  18.375  68.120  1.00  0.00    -0.302 C  
ATOM      7  O   ALA A   1      -9.184  16.302  65.250  1.00  0.00    -0.175 OA 
ATOM      8  C   ALA A   1      -9.573  16.108  68.657  1.00  0.00    -0.226 C  
ATOM      9  OXT ALA A   1     -11.279  16.858  64.600  1.00  0.00    -0.915 OA 
ATOM     10  C   ALA A   1      -8.445  20.707  67.195  1.00  0.00    -0.292 C  
ATOM     11  O   ALA A   1      -8.799  15.993  69.610  1.00  0.00    -0.147 OA 
ATOM     12  C   ALA A   1      -7.189  18.265  68.385  1.00  0.00    -0.276 C  
ATOM     13  C   ALA A   1      -6.959  20.696  67.569  1.00  0.00    -0.395 C  
ATOM     14  C   ALA A   1      -6.621  19.671  68.661  1.00  0.00    -0.322 C  
ENDROOT
BRANCH   8  15
ATOM     15  CA  ALA A   1     -10.721  15.064  68.414  1.00  0.00    -0.245 C  
ATOM     16  CB  ALA A   1     -12.030  15.587  69.013  1.00  0.00    -0.323 C  
BRANCH  15  17
ATOM     17  N   ALA A   1     -10.336  13.754  68.973  1.00  0.00    -0.420 NA 
ATOM     18  H   ALA A   1     -11.055  13.423  69.616  1.00  0.00     0.000 HD 
BRANCH  17  19
HETATM   19  C   UNK A   0     -10.026  12.703  67.972  1.00  0.00    -0.220 C  
BRANCH  19  20
HETATM   20  C   UNK A   0      -8.615  12.108  68.161  1.00  0.00    -0.177 C  
BRANCH  20  21
HETATM   21  C   UNK A   0      -7.758  12.149  66.886  1.00  0.00    -0.049 C  
BRANCH  21  22
HETATM   22  C   UNK A   0      -7.937  10.893  66.069  1.00  0.00    -0.132 A  
HETATM   23  C   UNK A   0      -7.249   9.719  66.402  1.00  0.00    -0.095 A  
HETATM   24  C   UNK A   0      -8.832  10.874  64.990  1.00  0.00    -0.151 A  
HETATM   25  C   UNK A   0      -7.439   8.554  65.660  1.00  0.00    -0.085 A  
HETATM   26  C   UNK A   0      -9.019   9.707  64.247  1.00  0.00    -0.269 A  
HETATM   27  C   UNK A   0      -8.323   8.547  64.581  1.00  0.00    -0.156 A  
ENDBRANCH  21  22
ENDBRANCH  20  21
ENDBRANCH  19  20
BRANCH  19  28
HETATM   28  C   UNK A   0     -11.067  11.570  68.092  1.00  0.00    -0.246 C  
HETATM   29  O   UNK A   0     -12.166  11.671  68.615  1.00  0.00    -0.455 OA 
BRANCH  28  30
HETATM   30  O   UNK A   0     -10.545  10.403  67.601  1.00  0.00    -0.218 OA 
BRANCH  30  31
HETATM   31  C   UNK A   0     -10.821   9.233  68.388  1.00  0.00    -0.076 C  
HETATM   32  C   UNK A   0     -10.491   8.010  67.550  1.00  0.00    -0.331 C  
ENDBRANCH  30  31
ENDBRANCH  28  30
ENDBRANCH  19  28
ENDBRANCH  17  19
ENDBRANCH  15  17
ENDBRANCH   8  15
TORSDOF 9
ENDMDL
MODEL      123
REMARK 921   NORMALIZED FREE ENERGY PREDICTED BY IDOCK:   -4.71 KCAL/MOL
REMARK 922        TOTAL FREE ENERGY PREDICTED BY IDOCK:   -9.13 KCAL/MOL
REMARK 923 INTER-LIGAND FREE ENERGY PREDICTED BY IDOCK:   -7.72 KCAL/MOL
REMARK 924 INTRA-LIGAND FREE ENERGY PREDICTED BY IDOCK:   -1.41 KCAL/MOL
REMARK 927      BINDING AFFINITY PREDICTED BY RF-SCORE:    0.00 PKD
ROOT
ATOM      1  C   ALA A   1      -7.327  18.089  67.486  1.00  0.00    -0.213 C  
ATOM      2  C   ALA A   1      -6.370  17.006  67.017  1.00  0.00    -0.231 C  
ATOM      3  CA  ALA A   1      -7.264  15.757  67.048  1.00  0.00    -0.173 C  
ATOM      4  N   ALA A   1      -8.646  16.267  66.829  1.00  0.00    -0.211 N  
ATOM      5  C   ALA A   1      -7.096  15.026  68.382  1.00  0.00    -0.108 C  
ATOM      6  C   ALA A   1      -8.611  17.730  66.729  1.00  0.00    -0.252 C  
ATOM      7  O   ALA A   1      -8.097  15.257  69.259  1.00  0.00    -0.207 OA 
ATOM      8  C   ALA A   1      -9.670  15.533  66.219  1.00  0.00    -0.302 C  
ATOM      9  OXT ALA A   1      -6.122  14.336  68.650  1.00  0.00    -0.081 OA 
ATOM     10  C   ALA A   1      -6.917  19.527  67.233  1.00  0.00    -0.225 C  
ATOM     11  O   ALA A   1     -10.702  16.082  65.827  1.00  0.00    -0.333 OA 
ATOM     12  C   ALA A   1      -9.755  18.577  67.287  1.00  0.00    -0.313 C  
ATOM     13  C   ALA A   1      -8.046  20.464  67.673  1.00  0.00    -0.283 C  
ATOM     14  C   ALA A   1      -9.414  20.069  67.099  1.00  0.00    -0.514 C  
ENDROOT
BRANCH   8  15
ATOM     15  CA  ALA A   1      -9.446  13.992  66.022  1.00  0.00    -0.136 C  
ATOM     16  CB  ALA A   1     -10.315  13.486  64.867  1.00  0.00    -0.395 C  
BRANCH  15  17
ATOM     17  N   ALA A   1      -9.724  13.277  67.283  1.00  0.00    -0.226 NA 
ATOM     18  H   ALA A   1     -10.193  13.899  67.942  1.00  0.00     0.000 HD 
BRANCH  17  19
HETATM   19  C   UNK A   0     -10.490  12.015  67.142  1.00  0.00    -0.220 C  
BRANCH  19  20
HETATM   20  C   UNK A   0      -9.668  10.778  67.559  1.00  0.00    -0.188 C  
BRANCH  20  21
HETATM   21  C   UNK A   0      -8.959  10.943  68.914  1.00  0.00    -0.146 C  
BRANCH  21  22
HETATM   22  C   UNK A   0      -8.870   9.626  69.645  1.00  0.00    -0.212 A  
HETATM   23  C   UNK A   0      -9.430   9.475  70.919  1.00  0.00    -0.186 A  
HETATM   24  C   UNK A   0      -8.258   8.520  69.036  1.00  0.00    -0.116 A  
HETATM   25  C   UNK A   0      -9.367   8.248  71.579  1.00  0.00    -0.236 A  
HETATM   26  C   UNK A   0      -8.195   7.293  69.698  1.00  0.00    -0.131 A  
HETATM   27  C   UNK A   0      -8.748   7.157  70.969  1.00  0.00    -0.141 A  
ENDBRANCH  21  22
ENDBRANCH  20  21
ENDBRANCH  19  20
BRANCH  19  28
HETATM   28  C   UNK A   0     -11.757  12.093  68.019  1.00  0.00    -0.344 C  
HETATM   29  O   UNK A   0     -12.385  11.135  68.442  1.00  0.00    -0.556 OA 
BRANCH  28  30
HETATM   30  O   UNK A   0     -12.129  13.400  68.186  1.00  0.00    -0.335 OA 
BRANCH  30  31
HETATM   31  C   UNK A   0     -12.041  13.891  69.534  1.00  0.00    -0.342 C  
HETATM   32  C   UNK A   0     -11.694  15.370  69.477  1.00  0.00    -0.364 C  
ENDBRANCH  30  31
ENDBRANCH  28  30
ENDBRANCH  19  28
ENDBRANCH  17  19
ENDBRANCH  15  17
ENDBRANCH   8  15
TORSDOF 9
ENDMDL
MODEL      124
REMARK 921   NORMALIZED FREE ENERGY PREDICTED BY IDOCK:   -4.70 KCAL/MOL
REMARK 922        TOTAL FREE ENERGY PREDICTED BY IDOCK:   -9.12 KCAL/MOL
REMARK 923 INTER-LIGAND FREE ENERGY PREDICTED BY IDOCK:   -7.00 KCAL/MOL
REMARK 924 INTRA-LIGAND FREE ENERGY PREDICTED BY IDOCK:   -2.12 KCAL/MOL
REMARK 927      BINDING AFFINITY PREDICTED BY RF-SCORE:    0.00 PKD
ROOT
ATOM      1  C   ALA A   1     -10.636  11.973  64.487  1.00  0.00    -0.356 C  
ATOM      2  C   ALA A   1     -10.024  10.617  64.179  1.00  0.00    -0.406 C  
ATOM      3  CA  ALA A   1      -9.561  10.154  65.568  1.00  0.00    -0.250 C  
ATOM      4  N   ALA A   1     -10.483  10.827  66.525  1.00  0.00    -0.247 N  
ATOM      5  C   ALA A   1      -8.092  10.527  65.782  1.00  0.00    -0.158 C  
ATOM      6  C   ALA A   1     -11.407  11.688  65.780  1.00  0.00    -0.182 C  
ATOM      7  O   ALA A   1      -7.916  11.628  66.546  1.00  0.00    -0.141 OA 
ATOM      8  C   ALA A   1     -10.839  10.308  67.775  1.00  0.00    -0.292 C  
ATOM      9  OXT ALA A   1      -7.164   9.917  65.270  1.00  0.00    -0.117 OA 
ATOM     10  C   ALA A   1     -11.534  12.580  63.426  1.00  0.00    -0.523 C  
ATOM     11  O   ALA A   1     -11.794  10.764  68.407  1.00  0.00    -0.478 OA 
ATOM     12  C   ALA A   1     -11.878  13.019  66.367  1.00  0.00    -0.465 C  
ATOM     13  C   ALA A   1     -12.139  13.884  63.956  1.00  0.00    -0.437 C  
ATOM     14  C   ALA A   1     -12.783  13.729  65.341  1.00  0.00    -0.513 C  
ENDROOT
BRANCH   8  15
ATOM     15  CA  ALA A   1     -10.000   9.103  68.331  1.00  0.00    -0.181 C  
ATOM     16  CB  ALA A   1     -10.886   8.220  69.215  1.00  0.00    -0.063 C  
BRANCH  15  17
ATOM     17  N   ALA A   1      -8.815   9.606  69.054  1.00  0.00    -0.140 NA 
ATOM     18  H   ALA A   1      -9.104  10.219  69.816  1.00  0.00     0.000 HD 
BRANCH  17  19
HETATM   19  C   UNK A   0      -7.892   8.562  69.563  1.00  0.00    -0.097 C  
BRANCH  19  20
HETATM   20  C   UNK A   0      -6.785   8.210  68.548  1.00  0.00    -0.063 C  
BRANCH  20  21
HETATM   21  C   UNK A   0      -6.614   6.698  68.327  1.00  0.00    -0.059 C  
BRANCH  21  22
HETATM   22  C   UNK A   0      -7.869   6.088  67.752  1.00  0.00    -0.105 A  
HETATM   23  C   UNK A   0      -8.589   5.124  68.469  1.00  0.00    -0.094 A  
HETATM   24  C   UNK A   0      -8.353   6.512  66.506  1.00  0.00    -0.116 A  
HETATM   25  C   UNK A   0      -9.762   4.582  67.943  1.00  0.00    -0.195 A  
HETATM   26  C   UNK A   0      -9.527   5.968  65.982  1.00  0.00    -0.068 A  
HETATM   27  C   UNK A   0     -10.231   5.003  66.699  1.00  0.00    -0.299 A  
ENDBRANCH  21  22
ENDBRANCH  20  21
ENDBRANCH  19  20
BRANCH  19  28
HETATM   28  C   UNK A   0      -7.235   9.062  70.867  1.00  0.00    -0.103 C  
HETATM   29  O   UNK A   0      -6.041   9.265  71.025  1.00  0.00    -0.055 OA 
BRANCH  28  30
HETATM   30  O   UNK A   0      -8.178   9.166  71.854  1.00  0.00    -0.336 OA 
BRANCH  30  31
HETATM   31  C   UNK A   0      -8.430   7.955  72.586  1.00  0.00    -0.150 C  
HETATM   32  C   UNK A   0      -8.066   8.196  74.041  1.00  0.00    -0.312 C  
ENDBRANCH  30  31
ENDBRANCH  28  30
ENDBRANCH  19  28
ENDBRANCH  17  19
ENDBRANCH  15  17
ENDBRANCH   8  15
TORSDOF 9
ENDMDL
MODEL      125
REMARK 921   NORMALIZED FREE ENERGY PREDICTED BY IDOCK:   -4.70 KCAL/MOL
REMARK 922        TOTAL FREE ENERGY PREDICTED BY IDOCK:   -9.12 KCAL/MOL
REMARK 923 INTER-LIGAND FREE ENERGY PREDICTED BY IDOCK:   -7.65 KCAL/MOL
REMARK 924 INTRA-LIGAND FREE ENERGY PREDICTED BY IDOCK:   -1.48 KCAL/MOL
REMARK 927      BINDING AFFINITY PREDICTED BY RF-SCORE:    0.00 PKD
ROOT
ATOM      1  C   ALA A   1     -12.103  14.984  70.185  1.00  0.00    -0.378 C  
ATOM      2  C   ALA A   1     -11.971  15.816  68.922  1.00  0.00    -0.268 C  
ATOM      3  CA  ALA A   1     -11.231  14.853  67.981  1.00  0.00    -0.308 C  
ATOM      4  N   ALA A   1     -11.615  13.491  68.446  1.00  0.00    -0.319 N  
ATOM      5  C   ALA A   1      -9.724  15.111  68.049  1.00  0.00    -0.209 C  
ATOM      6  C   ALA A   1     -12.481  13.609  69.624  1.00  0.00    -0.093 C  
ATOM      7  O   ALA A   1      -9.054  14.221  68.814  1.00  0.00    -0.179 OA 
ATOM      8  C   ALA A   1     -11.684  12.365  67.617  1.00  0.00    -0.346 C  
ATOM      9  OXT ALA A   1      -9.182  16.060  67.502  1.00  0.00    -0.208 OA 
ATOM     10  C   ALA A   1     -13.105  15.457  71.221  1.00  0.00    -0.564 C  
ATOM     11  O   ALA A   1     -12.253  11.335  67.985  1.00  0.00    -0.621 OA 
ATOM     12  C   ALA A   1     -12.402  12.585  70.755  1.00  0.00    -0.376 C  
ATOM     13  C   ALA A   1     -13.174  14.440  72.365  1.00  0.00    -0.528 C  
ATOM     14  C   ALA A   1     -13.375  12.998  71.878  1.00  0.00    -0.539 C  
ENDROOT
BRANCH   8  15
ATOM     15  CA  ALA A   1     -11.040  12.469  66.189  1.00  0.00    -0.298 C  
ATOM     16  CB  ALA A   1     -12.118  12.820  65.160  1.00  0.00    -0.498 C  
BRANCH  15  17
ATOM     17  N   ALA A   1     -10.342  11.212  65.859  1.00  0.00    -0.253 NA 
ATOM     18  H   ALA A   1     -10.728  10.811  65.005  1.00  0.00     0.000 HD 
BRANCH  17  19
HETATM   19  C   UNK A   0      -8.866  11.314  65.750  1.00  0.00    -0.148 C  
BRANCH  19  20
HETATM   20  C   UNK A   0      -8.172  11.309  67.128  1.00  0.00    -0.149 C  
BRANCH  20  21
HETATM   21  C   UNK A   0      -6.647  11.491  67.047  1.00  0.00    -0.138 C  
BRANCH  21  22
HETATM   22  C   UNK A   0      -6.168  12.512  68.049  1.00  0.00    -0.088 A  
HETATM   23  C   UNK A   0      -5.711  13.767  67.628  1.00  0.00    -0.024 A  
HETATM   24  C   UNK A   0      -6.215  12.231  69.422  1.00  0.00    -0.110 A  
HETATM   25  C   UNK A   0      -5.293  14.716  68.561  1.00  0.00    -0.103 A  
HETATM   26  C   UNK A   0      -5.795  13.181  70.354  1.00  0.00    -0.156 A  
HETATM   27  C   UNK A   0      -5.334  14.424  69.924  1.00  0.00    -0.095 A  
ENDBRANCH  21  22
ENDBRANCH  20  21
ENDBRANCH  19  20
BRANCH  19  28
HETATM   28  C   UNK A   0      -8.337  10.126  64.919  1.00  0.00    -0.164 C  
HETATM   29  O   UNK A   0      -7.781  10.212  63.835  1.00  0.00    -0.150 OA 
BRANCH  28  30
HETATM   30  O   UNK A   0      -8.660   8.946  65.536  1.00  0.00    -0.148 OA 
BRANCH  30  31
HETATM   31  C   UNK A   0      -8.397   7.764  64.762  1.00  0.00    -0.043 C  
HETATM   32  C   UNK A   0      -8.494   6.562  65.688  1.00  0.00    -0.146 C  
ENDBRANCH  30  31
ENDBRANCH  28  30
ENDBRANCH  19  28
ENDBRANCH  17  19
ENDBRANCH  15  17
ENDBRANCH   8  15
TORSDOF 9
ENDMDL
MODEL      126
REMARK 921   NORMALIZED FREE ENERGY PREDICTED BY IDOCK:   -4.70 KCAL/MOL
REMARK 922        TOTAL FREE ENERGY PREDICTED BY IDOCK:   -9.12 KCAL/MOL
REMARK 923 INTER-LIGAND FREE ENERGY PREDICTED BY IDOCK:   -7.79 KCAL/MOL
REMARK 924 INTRA-LIGAND FREE ENERGY PREDICTED BY IDOCK:   -1.33 KCAL/MOL
REMARK 927      BINDING AFFINITY PREDICTED BY RF-SCORE:    0.00 PKD
ROOT
ATOM      1  C   ALA A   1     -11.357  13.067  66.238  1.00  0.00    -0.354 C  
ATOM      2  C   ALA A   1     -10.722  13.462  67.560  1.00  0.00    -0.263 C  
ATOM      3  CA  ALA A   1     -10.378  12.093  68.168  1.00  0.00    -0.207 C  
ATOM      4  N   ALA A   1     -10.176  11.193  67.000  1.00  0.00    -0.207 N  
ATOM      5  C   ALA A   1     -11.506  11.635  69.095  1.00  0.00    -0.300 C  
ATOM      6  C   ALA A   1     -10.435  11.939  65.764  1.00  0.00    -0.256 C  
ATOM      7  O   ALA A   1     -12.328  10.718  68.540  1.00  0.00    -0.417 OA 
ATOM      8  C   ALA A   1      -9.326  10.080  66.998  1.00  0.00    -0.154 C  
ATOM      9  OXT ALA A   1     -11.678  12.090  70.217  1.00  0.00    -0.292 OA 
ATOM     10  C   ALA A   1     -11.493  14.153  65.188  1.00  0.00    -0.336 C  
ATOM     11  O   ALA A   1      -8.995   9.531  65.946  1.00  0.00    -0.153 OA 
ATOM     12  C   ALA A   1     -11.085  11.255  64.562  1.00  0.00    -0.245 C  
ATOM     13  C   ALA A   1     -12.052  13.547  63.897  1.00  0.00    -0.493 C  
ATOM     14  C   ALA A   1     -11.290  12.294  63.441  1.00  0.00    -0.508 C  
ENDROOT
BRANCH   8  15
ATOM     15  CA  ALA A   1      -8.783   9.576  68.382  1.00  0.00    -0.124 C  
ATOM     16  CB  ALA A   1      -7.279   9.849  68.478  1.00  0.00    -0.076 C  
BRANCH  15  17
ATOM     17  N   ALA A   1      -9.101   8.145  68.557  1.00  0.00    -0.137 NA 
ATOM     18  H   ALA A   1      -8.766   7.820  69.463  1.00  0.00     0.000 HD 
BRANCH  17  19
HETATM   19  C   UNK A   0     -10.531   7.788  68.385  1.00  0.00    -0.166 C  
BRANCH  19  20
HETATM   20  C   UNK A   0     -10.735   6.657  67.356  1.00  0.00    -0.409 C  
BRANCH  20  21
HETATM   21  C   UNK A   0      -9.420   6.130  66.757  1.00  0.00    -0.164 C  
BRANCH  21  22
HETATM   22  C   UNK A   0      -9.254   4.654  67.024  1.00  0.00    -0.137 A  
HETATM   23  C   UNK A   0      -9.290   4.155  68.332  1.00  0.00    -0.213 A  
HETATM   24  C   UNK A   0      -9.104   3.756  65.957  1.00  0.00    -0.152 A  
HETATM   25  C   UNK A   0      -9.162   2.787  68.570  1.00  0.00    -0.241 A  
HETATM   26  C   UNK A   0      -8.974   2.387  66.198  1.00  0.00    -0.117 A  
HETATM   27  C   UNK A   0      -9.003   1.902  67.504  1.00  0.00    -0.170 A  
ENDBRANCH  21  22
ENDBRANCH  20  21
ENDBRANCH  19  20
BRANCH  19  28
HETATM   28  C   UNK A   0     -11.105   7.336  69.745  1.00  0.00    -0.182 C  
HETATM   29  O   UNK A   0     -11.224   6.178  70.113  1.00  0.00    -0.351 OA 
BRANCH  28  30
HETATM   30  O   UNK A   0     -11.543   8.425  70.450  1.00  0.00    -0.201 OA 
BRANCH  30  31
HETATM   31  C   UNK A   0     -10.709   8.811  71.555  1.00  0.00    -0.301 C  
HETATM   32  C   UNK A   0     -11.039   7.911  72.734  1.00  0.00    -0.462 C  
ENDBRANCH  30  31
ENDBRANCH  28  30
ENDBRANCH  19  28
ENDBRANCH  17  19
ENDBRANCH  15  17
ENDBRANCH   8  15
TORSDOF 9
ENDMDL
MODEL      127
REMARK 921   NORMALIZED FREE ENERGY PREDICTED BY IDOCK:   -4.70 KCAL/MOL
REMARK 922        TOTAL FREE ENERGY PREDICTED BY IDOCK:   -9.12 KCAL/MOL
REMARK 923 INTER-LIGAND FREE ENERGY PREDICTED BY IDOCK:   -7.72 KCAL/MOL
REMARK 924 INTRA-LIGAND FREE ENERGY PREDICTED BY IDOCK:   -1.40 KCAL/MOL
REMARK 927      BINDING AFFINITY PREDICTED BY RF-SCORE:    0.00 PKD
ROOT
ATOM      1  C   ALA A   1     -10.410  14.716  65.772  1.00  0.00    -0.349 C  
ATOM      2  C   ALA A   1      -8.999  15.188  66.083  1.00  0.00    -0.201 C  
ATOM      3  CA  ALA A   1      -8.441  14.008  66.895  1.00  0.00    -0.078 C  
ATOM      4  N   ALA A   1      -9.193  12.818  66.410  1.00  0.00    -0.192 N  
ATOM      5  C   ALA A   1      -8.626  14.269  68.391  1.00  0.00    -0.175 C  
ATOM      6  C   ALA A   1     -10.182  13.243  65.414  1.00  0.00    -0.293 C  
ATOM      7  O   ALA A   1      -9.673  13.610  68.934  1.00  0.00    -0.090 OA 
ATOM      8  C   ALA A   1      -8.684  11.513  66.399  1.00  0.00    -0.179 C  
ATOM      9  OXT ALA A   1      -7.923  15.040  69.029  1.00  0.00    -0.157 OA 
ATOM     10  C   ALA A   1     -11.153  15.448  64.672  1.00  0.00    -0.361 C  
ATOM     11  O   ALA A   1      -9.233  10.619  65.754  1.00  0.00    -0.174 OA 
ATOM     12  C   ALA A   1     -11.542  12.552  65.322  1.00  0.00    -0.406 C  
ATOM     13  C   ALA A   1     -12.505  14.768  64.432  1.00  0.00    -0.274 C  
ATOM     14  C   ALA A   1     -12.389  13.249  64.238  1.00  0.00    -0.406 C  
ENDROOT
BRANCH   8  15
ATOM     15  CA  ALA A   1      -7.369  11.237  67.212  1.00  0.00    -0.122 C  
ATOM     16  CB  ALA A   1      -6.201  11.017  66.246  1.00  0.00    -0.126 C  
BRANCH  15  17
ATOM     17  N   ALA A   1      -7.569  10.088  68.117  1.00  0.00    -0.084 NA 
ATOM     18  H   ALA A   1      -6.767   9.460  68.067  1.00  0.00     0.000 HD 
BRANCH  17  19
HETATM   19  C   UNK A   0      -7.856  10.436  69.530  1.00  0.00    -0.155 C  
BRANCH  19  20
HETATM   20  C   UNK A   0      -9.047   9.639  70.102  1.00  0.00    -0.280 C  
BRANCH  20  21
HETATM   21  C   UNK A   0     -10.415  10.156  69.625  1.00  0.00    -0.282 C  
BRANCH  21  22
HETATM   22  C   UNK A   0     -11.510   9.763  70.586  1.00  0.00    -0.397 A  
HETATM   23  C   UNK A   0     -12.488  10.688  70.971  1.00  0.00    -0.515 A  
HETATM   24  C   UNK A   0     -11.585   8.450  71.073  1.00  0.00    -0.307 A  
HETATM   25  C   UNK A   0     -13.513  10.312  71.840  1.00  0.00    -0.403 A  
HETATM   26  C   UNK A   0     -12.610   8.077  71.943  1.00  0.00    -0.359 A  
HETATM   27  C   UNK A   0     -13.573   9.007  72.327  1.00  0.00    -0.540 A  
ENDBRANCH  21  22
ENDBRANCH  20  21
ENDBRANCH  19  20
BRANCH  19  28
HETATM   28  C   UNK A   0      -6.604  10.147  70.385  1.00  0.00    -0.132 C  
HETATM   29  O   UNK A   0      -6.103   9.046  70.556  1.00  0.00    -0.034 OA 
BRANCH  28  30
HETATM   30  O   UNK A   0      -6.182  11.296  70.998  1.00  0.00    -0.319 OA 
BRANCH  30  31
HETATM   31  C   UNK A   0      -5.813  12.361  70.106  1.00  0.00    -0.163 C  
HETATM   32  C   UNK A   0      -5.360  13.545  70.944  1.00  0.00    -0.165 C  
ENDBRANCH  30  31
ENDBRANCH  28  30
ENDBRANCH  19  28
ENDBRANCH  17  19
ENDBRANCH  15  17
ENDBRANCH   8  15
TORSDOF 9
ENDMDL
MODEL      128
REMARK 921   NORMALIZED FREE ENERGY PREDICTED BY IDOCK:   -4.69 KCAL/MOL
REMARK 922        TOTAL FREE ENERGY PREDICTED BY IDOCK:   -9.11 KCAL/MOL
REMARK 923 INTER-LIGAND FREE ENERGY PREDICTED BY IDOCK:   -7.40 KCAL/MOL
REMARK 924 INTRA-LIGAND FREE ENERGY PREDICTED BY IDOCK:   -1.71 KCAL/MOL
REMARK 927      BINDING AFFINITY PREDICTED BY RF-SCORE:    0.00 PKD
ROOT
ATOM      1  C   ALA A   1      -8.751   9.499  64.763  1.00  0.00    -0.225 C  
ATOM      2  C   ALA A   1      -8.318   8.111  65.205  1.00  0.00    -0.152 C  
ATOM      3  CA  ALA A   1      -8.507   8.188  66.728  1.00  0.00    -0.123 C  
ATOM      4  N   ALA A   1      -9.588   9.193  66.931  1.00  0.00    -0.165 N  
ATOM      5  C   ALA A   1      -7.188   8.577  67.400  1.00  0.00    -0.084 C  
ATOM      6  C   ALA A   1      -9.992   9.737  65.630  1.00  0.00    -0.282 C  
ATOM      7  O   ALA A   1      -7.123   9.878  67.758  1.00  0.00    -0.085 OA 
ATOM      8  C   ALA A   1     -10.478   9.187  68.011  1.00  0.00    -0.224 C  
ATOM      9  OXT ALA A   1      -6.260   7.797  67.555  1.00  0.00    -0.047 OA 
ATOM     10  C   ALA A   1      -9.056   9.689  63.290  1.00  0.00    -0.223 C  
ATOM     11  O   ALA A   1     -11.504   9.870  67.997  1.00  0.00    -0.104 OA 
ATOM     12  C   ALA A   1     -10.405  11.202  65.492  1.00  0.00    -0.326 C  
ATOM     13  C   ALA A   1      -9.575  11.111  63.057  1.00  0.00    -0.389 C  
ATOM     14  C   ALA A   1     -10.712  11.501  64.011  1.00  0.00    -0.445 C  
ENDROOT
BRANCH   8  15
ATOM     15  CA  ALA A   1     -10.140   8.256  69.229  1.00  0.00    -0.199 C  
ATOM     16  CB  ALA A   1     -10.911   6.938  69.102  1.00  0.00    -0.262 C  
BRANCH  15  17
ATOM     17  N   ALA A   1     -10.436   8.955  70.495  1.00  0.00    -0.203 NA 
ATOM     18  H   ALA A   1     -10.612   9.943  70.317  1.00  0.00     0.000 HD 
BRANCH  17  19
HETATM   19  C   UNK A   0     -11.545   8.378  71.295  1.00  0.00    -0.283 C  
BRANCH  19  20
HETATM   20  C   UNK A   0     -11.104   7.997  72.723  1.00  0.00    -0.448 C  
BRANCH  20  21
HETATM   21  C   UNK A   0      -9.745   7.278  72.773  1.00  0.00    -0.203 C  
BRANCH  21  22
HETATM   22  C   UNK A   0      -9.919   5.782  72.680  1.00  0.00    -0.198 A  
HETATM   23  C   UNK A   0      -9.116   5.021  71.821  1.00  0.00    -0.160 A  
HETATM   24  C   UNK A   0     -10.861   5.128  73.487  1.00  0.00    -0.360 A  
HETATM   25  C   UNK A   0      -9.263   3.636  71.758  1.00  0.00    -0.181 A  
HETATM   26  C   UNK A   0     -11.008   3.742  73.422  1.00  0.00    -0.317 A  
HETATM   27  C   UNK A   0     -10.210   2.995  72.557  1.00  0.00    -0.219 A  
ENDBRANCH  21  22
ENDBRANCH  20  21
ENDBRANCH  19  20
BRANCH  19  28
HETATM   28  C   UNK A   0     -12.692   9.406  71.383  1.00  0.00    -0.345 C  
HETATM   29  O   UNK A   0     -13.857   9.193  71.087  1.00  0.00    -0.269 OA 
BRANCH  28  30
HETATM   30  O   UNK A   0     -12.197  10.626  71.762  1.00  0.00    -0.244 OA 
BRANCH  30  31
HETATM   31  C   UNK A   0     -12.935  11.760  71.278  1.00  0.00    -0.254 C  
HETATM   32  C   UNK A   0     -12.038  12.539  70.331  1.00  0.00    -0.380 C  
ENDBRANCH  30  31
ENDBRANCH  28  30
ENDBRANCH  19  28
ENDBRANCH  17  19
ENDBRANCH  15  17
ENDBRANCH   8  15
TORSDOF 9
ENDMDL
MODEL      129
REMARK 921   NORMALIZED FREE ENERGY PREDICTED BY IDOCK:   -4.69 KCAL/MOL
REMARK 922        TOTAL FREE ENERGY PREDICTED BY IDOCK:   -9.10 KCAL/MOL
REMARK 923 INTER-LIGAND FREE ENERGY PREDICTED BY IDOCK:   -7.66 KCAL/MOL
REMARK 924 INTRA-LIGAND FREE ENERGY PREDICTED BY IDOCK:   -1.44 KCAL/MOL
REMARK 927      BINDING AFFINITY PREDICTED BY RF-SCORE:    0.00 PKD
ROOT
ATOM      1  C   ALA A   1     -10.830  13.897  65.190  1.00  0.00    -0.364 C  
ATOM      2  C   ALA A   1     -11.540  12.615  64.789  1.00  0.00    -0.377 C  
ATOM      3  CA  ALA A   1     -11.007  11.617  65.829  1.00  0.00    -0.274 C  
ATOM      4  N   ALA A   1     -10.679  12.445  67.023  1.00  0.00    -0.235 N  
ATOM      5  C   ALA A   1      -9.799  10.868  65.264  1.00  0.00    -0.265 C  
ATOM      6  C   ALA A   1     -10.936  13.856  66.718  1.00  0.00    -0.299 C  
ATOM      7  O   ALA A   1      -8.612  11.334  65.712  1.00  0.00    -0.160 OA 
ATOM      8  C   ALA A   1     -10.723  11.979  68.343  1.00  0.00    -0.229 C  
ATOM      9  OXT ALA A   1      -9.893   9.964  64.446  1.00  0.00    -0.236 OA 
ATOM     10  C   ALA A   1     -11.380  15.193  64.627  1.00  0.00    -0.362 C  
ATOM     11  O   ALA A   1     -10.702  12.760  69.296  1.00  0.00    -0.079 OA 
ATOM     12  C   ALA A   1     -10.043  14.954  67.295  1.00  0.00    -0.235 C  
ATOM     13  C   ALA A   1     -10.607  16.375  65.223  1.00  0.00    -0.320 C  
ATOM     14  C   ALA A   1     -10.511  16.320  66.755  1.00  0.00    -0.287 C  
ENDROOT
BRANCH   8  15
ATOM     15  CA  ALA A   1     -10.834  10.429  68.565  1.00  0.00    -0.237 C  
ATOM     16  CB  ALA A   1     -11.746  10.142  69.762  1.00  0.00    -0.205 C  
BRANCH  15  17
ATOM     17  N   ALA A   1      -9.488   9.848  68.739  1.00  0.00    -0.152 NA 
ATOM     18  H   ALA A   1      -9.196   9.927  69.712  1.00  0.00     0.000 HD 
BRANCH  17  19
HETATM   19  C   UNK A   0      -9.337   8.447  68.274  1.00  0.00    -0.134 C  
BRANCH  19  20
HETATM   20  C   UNK A   0     -10.604   7.922  67.566  1.00  0.00    -0.312 C  
BRANCH  20  21
HETATM   21  C   UNK A   0     -10.877   6.431  67.827  1.00  0.00    -0.418 C  
BRANCH  21  22
HETATM   22  C   UNK A   0     -10.862   6.126  69.305  1.00  0.00    -0.418 A  
HETATM   23  C   UNK A   0      -9.917   5.244  69.844  1.00  0.00    -0.309 A  
HETATM   24  C   UNK A   0     -11.771   6.758  70.166  1.00  0.00    -0.370 A  
HETATM   25  C   UNK A   0      -9.892   4.986  71.214  1.00  0.00    -0.246 A  
HETATM   26  C   UNK A   0     -11.745   6.498  71.537  1.00  0.00    -0.376 A  
HETATM   27  C   UNK A   0     -10.806   5.612  72.061  1.00  0.00    -0.300 A  
ENDBRANCH  21  22
ENDBRANCH  20  21
ENDBRANCH  19  20
BRANCH  19  28
HETATM   28  C   UNK A   0      -8.147   8.367  67.294  1.00  0.00    -0.105 C  
HETATM   29  O   UNK A   0      -7.116   9.016  67.378  1.00  0.00    -0.078 OA 
BRANCH  28  30
HETATM   30  O   UNK A   0      -8.450   7.520  66.261  1.00  0.00    -0.125 OA 
BRANCH  30  31
HETATM   31  C   UNK A   0      -7.460   6.515  65.988  1.00  0.00    -0.081 C  
HETATM   32  C   UNK A   0      -7.268   5.684  67.246  1.00  0.00    -0.075 C  
ENDBRANCH  30  31
ENDBRANCH  28  30
ENDBRANCH  19  28
ENDBRANCH  17  19
ENDBRANCH  15  17
ENDBRANCH   8  15
TORSDOF 9
ENDMDL
MODEL      130
REMARK 921   NORMALIZED FREE ENERGY PREDICTED BY IDOCK:   -4.66 KCAL/MOL
REMARK 922        TOTAL FREE ENERGY PREDICTED BY IDOCK:   -9.06 KCAL/MOL
REMARK 923 INTER-LIGAND FREE ENERGY PREDICTED BY IDOCK:   -6.83 KCAL/MOL
REMARK 924 INTRA-LIGAND FREE ENERGY PREDICTED BY IDOCK:   -2.23 KCAL/MOL
REMARK 927      BINDING AFFINITY PREDICTED BY RF-SCORE:    0.00 PKD
ROOT
ATOM      1  C   ALA A   1     -12.174  10.236  70.459  1.00  0.00    -0.390 C  
ATOM      2  C   ALA A   1     -12.833   9.823  71.764  1.00  0.00    -0.530 C  
ATOM      3  CA  ALA A   1     -12.110   8.506  72.084  1.00  0.00    -0.383 C  
ATOM      4  N   ALA A   1     -10.772   8.638  71.443  1.00  0.00    -0.246 N  
ATOM      5  C   ALA A   1     -12.919   7.322  71.551  1.00  0.00    -0.389 C  
ATOM      6  C   ALA A   1     -10.700   9.918  70.731  1.00  0.00    -0.280 C  
ATOM      7  O   ALA A   1     -12.447   6.818  70.390  1.00  0.00    -0.215 OA 
ATOM      8  C   ALA A   1      -9.609   8.013  71.910  1.00  0.00    -0.183 C  
ATOM      9  OXT ALA A   1     -13.928   6.900  72.098  1.00  0.00    -0.143 OA 
ATOM     10  C   ALA A   1     -12.360  11.675  70.017  1.00  0.00    -0.261 C  
ATOM     11  O   ALA A   1      -8.495   8.357  71.511  1.00  0.00    -0.128 OA 
ATOM     12  C   ALA A   1      -9.927  10.037  69.418  1.00  0.00    -0.239 C  
ATOM     13  C   ALA A   1     -11.541  11.928  68.748  1.00  0.00    -0.366 C  
ATOM     14  C   ALA A   1     -10.081  11.471  68.873  1.00  0.00    -0.144 C  
ENDROOT
BRANCH   8  15
ATOM     15  CA  ALA A   1      -9.771   6.879  72.985  1.00  0.00    -0.166 C  
ATOM     16  CB  ALA A   1      -9.049   7.283  74.274  1.00  0.00    -0.245 C  
BRANCH  15  17
ATOM     17  N   ALA A   1      -9.274   5.599  72.445  1.00  0.00    -0.144 NA 
ATOM     18  H   ALA A   1      -8.797   5.072  73.176  1.00  0.00     0.000 HD 
BRANCH  17  19
HETATM   19  C   UNK A   0     -10.296   4.747  71.788  1.00  0.00    -0.160 C  
BRANCH  19  20
HETATM   20  C   UNK A   0      -9.902   4.360  70.348  1.00  0.00    -0.286 C  
BRANCH  20  21
HETATM   21  C   UNK A   0      -8.681   5.131  69.819  1.00  0.00    -0.115 C  
BRANCH  21  22
HETATM   22  C   UNK A   0      -9.056   6.010  68.651  1.00  0.00    -0.116 A  
HETATM   23  C   UNK A   0     -10.307   5.883  68.034  1.00  0.00    -0.257 A  
HETATM   24  C   UNK A   0      -8.171   6.997  68.196  1.00  0.00    -0.120 A  
HETATM   25  C   UNK A   0     -10.659   6.715  66.972  1.00  0.00    -0.404 A  
HETATM   26  C   UNK A   0      -8.524   7.828  67.132  1.00  0.00    -0.124 A  
HETATM   27  C   UNK A   0      -9.767   7.687  66.519  1.00  0.00    -0.251 A  
ENDBRANCH  21  22
ENDBRANCH  20  21
ENDBRANCH  19  20
BRANCH  19  28
HETATM   28  C   UNK A   0     -10.487   3.460  72.618  1.00  0.00    -0.097 C  
HETATM   29  O   UNK A   0     -11.122   3.376  73.658  1.00  0.00    -0.224 OA 
BRANCH  28  30
HETATM   30  O   UNK A   0      -9.768   2.436  72.062  1.00  0.00    -0.119 OA 
BRANCH  30  31
HETATM   31  C   UNK A   0      -8.747   1.880  72.906  1.00  0.00    -0.062 C  
HETATM   32  C   UNK A   0      -7.399   2.152  72.260  1.00  0.00    -0.039 C  
ENDBRANCH  30  31
ENDBRANCH  28  30
ENDBRANCH  19  28
ENDBRANCH  17  19
ENDBRANCH  15  17
ENDBRANCH   8  15
TORSDOF 9
ENDMDL
MODEL      131
REMARK 921   NORMALIZED FREE ENERGY PREDICTED BY IDOCK:   -4.65 KCAL/MOL
REMARK 922        TOTAL FREE ENERGY PREDICTED BY IDOCK:   -9.04 KCAL/MOL
REMARK 923 INTER-LIGAND FREE ENERGY PREDICTED BY IDOCK:   -7.44 KCAL/MOL
REMARK 924 INTRA-LIGAND FREE ENERGY PREDICTED BY IDOCK:   -1.60 KCAL/MOL
REMARK 927      BINDING AFFINITY PREDICTED BY RF-SCORE:    0.00 PKD
ROOT
ATOM      1  C   ALA A   1      -5.927  16.912  67.576  1.00  0.00    -0.165 C  
ATOM      2  C   ALA A   1      -5.156  15.673  67.998  1.00  0.00    -0.130 C  
ATOM      3  CA  ALA A   1      -6.289  14.688  68.325  1.00  0.00    -0.123 C  
ATOM      4  N   ALA A   1      -7.430  15.117  67.469  1.00  0.00    -0.181 N  
ATOM      5  C   ALA A   1      -6.606  14.735  69.821  1.00  0.00    -0.169 C  
ATOM      6  C   ALA A   1      -7.045  16.315  66.715  1.00  0.00    -0.165 C  
ATOM      7  O   ALA A   1      -7.707  15.459  70.122  1.00  0.00     0.039 OA 
ATOM      8  C   ALA A   1      -8.422  14.255  66.986  1.00  0.00    -0.166 C  
ATOM      9  OXT ALA A   1      -5.904  14.208  70.672  1.00  0.00    -0.157 OA 
ATOM     10  C   ALA A   1      -5.156  17.980  66.825  1.00  0.00    -0.158 C  
ATOM     11  O   ALA A   1      -9.183  14.602  66.080  1.00  0.00    -0.234 OA 
ATOM     12  C   ALA A   1      -8.067  17.412  66.418  1.00  0.00    -0.315 C  
ATOM     13  C   ALA A   1      -6.117  19.093  66.395  1.00  0.00    -0.182 C  
ATOM     14  C   ALA A   1      -7.365  18.565  65.673  1.00  0.00    -0.090 C  
ENDROOT
BRANCH   8  15
ATOM     15  CA  ALA A   1      -8.510  12.819  67.614  1.00  0.00    -0.178 C  
ATOM     16  CB  ALA A   1      -8.510  11.767  66.501  1.00  0.00    -0.125 C  
BRANCH  15  17
ATOM     17  N   ALA A   1      -9.704  12.719  68.476  1.00  0.00    -0.370 NA 
ATOM     18  H   ALA A   1      -9.963  13.643  68.823  1.00  0.00     0.000 HD 
BRANCH  17  19
HETATM   19  C   UNK A   0     -10.879  12.058  67.859  1.00  0.00    -0.215 C  
BRANCH  19  20
HETATM   20  C   UNK A   0     -11.570  11.068  68.820  1.00  0.00    -0.386 C  
BRANCH  20  21
HETATM   21  C   UNK A   0     -11.009   9.639  68.735  1.00  0.00    -0.153 C  
BRANCH  21  22
HETATM   22  C   UNK A   0     -10.271   9.268  69.997  1.00  0.00    -0.244 A  
HETATM   23  C   UNK A   0     -10.971   8.926  71.161  1.00  0.00    -0.356 A  
HETATM   24  C   UNK A   0      -8.869   9.221  70.008  1.00  0.00    -0.212 A  
HETATM   25  C   UNK A   0     -10.283   8.559  72.317  1.00  0.00    -0.395 A  
HETATM   26  C   UNK A   0      -8.183   8.855  71.167  1.00  0.00    -0.218 A  
HETATM   27  C   UNK A   0      -8.889   8.525  72.322  1.00  0.00    -0.279 A  
ENDBRANCH  21  22
ENDBRANCH  20  21
ENDBRANCH  19  20
BRANCH  19  28
HETATM   28  C   UNK A   0     -11.898  13.136  67.433  1.00  0.00    -0.361 C  
HETATM   29  O   UNK A   0     -12.241  14.092  68.110  1.00  0.00    -0.325 OA 
BRANCH  28  30
HETATM   30  O   UNK A   0     -12.429  12.818  66.211  1.00  0.00    -0.477 OA 
BRANCH  30  31
HETATM   31  C   UNK A   0     -12.573  13.923  65.304  1.00  0.00    -0.478 C  
HETATM   32  C   UNK A   0     -11.825  13.585  64.024  1.00  0.00    -0.476 C  
ENDBRANCH  30  31
ENDBRANCH  28  30
ENDBRANCH  19  28
ENDBRANCH  17  19
ENDBRANCH  15  17
ENDBRANCH   8  15
TORSDOF 9
ENDMDL
MODEL      132
REMARK 921   NORMALIZED FREE ENERGY PREDICTED BY IDOCK:   -4.65 KCAL/MOL
REMARK 922        TOTAL FREE ENERGY PREDICTED BY IDOCK:   -9.04 KCAL/MOL
REMARK 923 INTER-LIGAND FREE ENERGY PREDICTED BY IDOCK:   -8.41 KCAL/MOL
REMARK 924 INTRA-LIGAND FREE ENERGY PREDICTED BY IDOCK:   -0.62 KCAL/MOL
REMARK 927      BINDING AFFINITY PREDICTED BY RF-SCORE:    0.00 PKD
ROOT
ATOM      1  C   ALA A   1     -10.300  11.489  66.971  1.00  0.00    -0.254 C  
ATOM      2  C   ALA A   1     -11.335  10.473  67.424  1.00  0.00    -0.120 C  
ATOM      3  CA  ALA A   1     -10.465   9.434  68.148  1.00  0.00    -0.220 C  
ATOM      4  N   ALA A   1      -9.286  10.197  68.642  1.00  0.00    -0.150 N  
ATOM      5  C   ALA A   1     -10.092   8.303  67.187  1.00  0.00    -0.264 C  
ATOM      6  C   ALA A   1      -9.394  11.592  68.202  1.00  0.00    -0.185 C  
ATOM      7  O   ALA A   1      -8.838   8.399  66.693  1.00  0.00    -0.130 OA 
ATOM      8  C   ALA A   1      -8.553   9.863  69.787  1.00  0.00    -0.203 C  
ATOM      9  OXT ALA A   1     -10.871   7.420  66.856  1.00  0.00    -0.357 OA 
ATOM     10  C   ALA A   1     -10.813  12.850  66.542  1.00  0.00    -0.290 C  
ATOM     11  O   ALA A   1      -7.763  10.661  70.296  1.00  0.00     0.014 OA 
ATOM     12  C   ALA A   1      -8.146  12.388  67.820  1.00  0.00    -0.162 C  
ATOM     13  C   ALA A   1      -9.626  13.765  66.225  1.00  0.00    -0.265 C  
ATOM     14  C   ALA A   1      -8.571  13.790  67.341  1.00  0.00    -0.208 C  
ENDROOT
BRANCH   8  15
ATOM     15  CA  ALA A   1      -8.795   8.447  70.421  1.00  0.00    -0.146 C  
ATOM     16  CB  ALA A   1      -7.950   7.400  69.688  1.00  0.00    -0.126 C  
BRANCH  15  17
ATOM     17  N   ALA A   1     -10.235   8.122  70.390  1.00  0.00    -0.198 NA 
ATOM     18  H   ALA A   1     -10.365   7.112  70.327  1.00  0.00     0.000 HD 
BRANCH  17  19
HETATM   19  C   UNK A   0     -11.033   8.668  71.514  1.00  0.00    -0.290 C  
BRANCH  19  20
HETATM   20  C   UNK A   0     -12.440   9.121  71.071  1.00  0.00    -0.238 C  
BRANCH  20  21
HETATM   21  C   UNK A   0     -13.109  10.095  72.056  1.00  0.00    -0.538 C  
BRANCH  21  22
HETATM   22  C   UNK A   0     -12.989  11.521  71.577  1.00  0.00    -0.485 A  
HETATM   23  C   UNK A   0     -13.660  12.557  72.239  1.00  0.00    -0.443 A  
HETATM   24  C   UNK A   0     -12.167  11.832  70.484  1.00  0.00    -0.438 A  
HETATM   25  C   UNK A   0     -13.525  13.876  71.807  1.00  0.00    -0.464 A  
HETATM   26  C   UNK A   0     -12.035  13.153  70.052  1.00  0.00    -0.391 A  
HETATM   27  C   UNK A   0     -12.713  14.174  70.712  1.00  0.00    -0.414 A  
ENDBRANCH  21  22
ENDBRANCH  20  21
ENDBRANCH  19  20
BRANCH  19  28
HETATM   28  C   UNK A   0     -11.177   7.586  72.604  1.00  0.00    -0.348 C  
HETATM   29  O   UNK A   0     -10.818   7.699  73.766  1.00  0.00    -0.268 OA 
BRANCH  28  30
HETATM   30  O   UNK A   0     -11.691   6.440  72.058  1.00  0.00    -0.304 OA 
BRANCH  30  31
HETATM   31  C   UNK A   0     -11.350   5.228  72.753  1.00  0.00    -0.276 C  
HETATM   32  C   UNK A   0     -10.197   4.568  72.016  1.00  0.00    -0.251 C  
ENDBRANCH  30  31
ENDBRANCH  28  30
ENDBRANCH  19  28
ENDBRANCH  17  19
ENDBRANCH  15  17
ENDBRANCH   8  15
TORSDOF 9
ENDMDL
MODEL      133
REMARK 921   NORMALIZED FREE ENERGY PREDICTED BY IDOCK:   -4.64 KCAL/MOL
REMARK 922        TOTAL FREE ENERGY PREDICTED BY IDOCK:   -9.03 KCAL/MOL
REMARK 923 INTER-LIGAND FREE ENERGY PREDICTED BY IDOCK:   -7.64 KCAL/MOL
REMARK 924 INTRA-LIGAND FREE ENERGY PREDICTED BY IDOCK:   -1.39 KCAL/MOL
REMARK 927      BINDING AFFINITY PREDICTED BY RF-SCORE:    0.00 PKD
ROOT
ATOM      1  C   ALA A   1     -10.129   7.886  69.269  1.00  0.00    -0.197 C  
ATOM      2  C   ALA A   1      -8.863   7.395  68.589  1.00  0.00    -0.126 C  
ATOM      3  CA  ALA A   1      -8.509   8.581  67.679  1.00  0.00    -0.129 C  
ATOM      4  N   ALA A   1      -9.076   9.774  68.366  1.00  0.00    -0.123 N  
ATOM      5  C   ALA A   1      -9.088   8.358  66.281  1.00  0.00    -0.194 C  
ATOM      6  C   ALA A   1      -9.779   9.346  69.579  1.00  0.00    -0.183 C  
ATOM      7  O   ALA A   1     -10.224   9.050  66.045  1.00  0.00    -0.225 OA 
ATOM      8  C   ALA A   1      -8.550  11.068  68.263  1.00  0.00    -0.143 C  
ATOM      9  OXT ALA A   1      -8.597   7.588  65.467  1.00  0.00    -0.141 OA 
ATOM     10  C   ALA A   1     -10.575   7.144  70.514  1.00  0.00    -0.243 C  
ATOM     11  O   ALA A   1      -8.888  11.959  69.046  1.00  0.00     0.095 OA 
ATOM     12  C   ALA A   1     -11.049  10.062  70.039  1.00  0.00    -0.350 C  
ATOM     13  C   ALA A   1     -11.798   7.845  71.115  1.00  0.00    -0.307 C  
ATOM     14  C   ALA A   1     -11.597   9.357  71.296  1.00  0.00    -0.434 C  
ENDROOT
BRANCH   8  15
ATOM     15  CA  ALA A   1      -7.490  11.337  67.137  1.00  0.00    -0.130 C  
ATOM     16  CB  ALA A   1      -6.459  12.357  67.630  1.00  0.00    -0.130 C  
BRANCH  15  17
ATOM     17  N   ALA A   1      -8.167  11.781  65.903  1.00  0.00    -0.348 NA 
ATOM     18  H   ALA A   1      -8.296  10.992  65.271  1.00  0.00     0.000 HD 
BRANCH  17  19
HETATM   19  C   UNK A   0      -9.456  12.487  66.106  1.00  0.00    -0.184 C  
BRANCH  19  20
HETATM   20  C   UNK A   0      -9.276  14.014  66.237  1.00  0.00    -0.130 C  
BRANCH  20  21
HETATM   21  C   UNK A   0     -10.066  14.625  67.406  1.00  0.00    -0.232 C  
BRANCH  21  22
HETATM   22  C   UNK A   0     -10.108  16.130  67.306  1.00  0.00    -0.265 A  
HETATM   23  C   UNK A   0     -10.123  16.764  66.057  1.00  0.00    -0.350 A  
HETATM   24  C   UNK A   0     -10.174  16.914  68.467  1.00  0.00    -0.310 A  
HETATM   25  C   UNK A   0     -10.187  18.155  65.971  1.00  0.00    -0.325 A  
HETATM   26  C   UNK A   0     -10.237  18.305  68.379  1.00  0.00    -0.402 A  
HETATM   27  C   UNK A   0     -10.243  18.926  67.132  1.00  0.00    -0.445 A  
ENDBRANCH  21  22
ENDBRANCH  20  21
ENDBRANCH  19  20
BRANCH  19  28
HETATM   28  C   UNK A   0     -10.385  12.194  64.909  1.00  0.00    -0.289 C  
HETATM   29  O   UNK A   0     -10.081  12.310  63.732  1.00  0.00    -0.385 OA 
BRANCH  28  30
HETATM   30  O   UNK A   0     -11.635  11.864  65.360  1.00  0.00    -0.316 OA 
BRANCH  30  31
HETATM   31  C   UNK A   0     -12.715  12.581  64.740  1.00  0.00    -0.330 C  
HETATM   32  C   UNK A   0     -12.971  13.843  65.549  1.00  0.00    -0.375 C  
ENDBRANCH  30  31
ENDBRANCH  28  30
ENDBRANCH  19  28
ENDBRANCH  17  19
ENDBRANCH  15  17
ENDBRANCH   8  15
TORSDOF 9
ENDMDL
MODEL      134
REMARK 921   NORMALIZED FREE ENERGY PREDICTED BY IDOCK:   -4.63 KCAL/MOL
REMARK 922        TOTAL FREE ENERGY PREDICTED BY IDOCK:   -9.01 KCAL/MOL
REMARK 923 INTER-LIGAND FREE ENERGY PREDICTED BY IDOCK:   -7.55 KCAL/MOL
REMARK 924 INTRA-LIGAND FREE ENERGY PREDICTED BY IDOCK:   -1.46 KCAL/MOL
REMARK 927      BINDING AFFINITY PREDICTED BY RF-SCORE:    0.00 PKD
ROOT
ATOM      1  C   ALA A   1      -9.665   7.584  69.298  1.00  0.00    -0.163 C  
ATOM      2  C   ALA A   1      -9.567   8.499  70.507  1.00  0.00    -0.194 C  
ATOM      3  CA  ALA A   1      -9.195   9.842  69.861  1.00  0.00    -0.212 C  
ATOM      4  N   ALA A   1      -9.770   9.781  68.489  1.00  0.00    -0.151 N  
ATOM      5  C   ALA A   1      -7.676  10.025  69.871  1.00  0.00    -0.175 C  
ATOM      6  C   ALA A   1     -10.398   8.471  68.285  1.00  0.00    -0.201 C  
ATOM      7  O   ALA A   1      -7.088   9.762  68.683  1.00  0.00    -0.069 OA 
ATOM      8  C   ALA A   1     -10.195  10.898  67.760  1.00  0.00    -0.180 C  
ATOM      9  OXT ALA A   1      -7.045  10.332  70.872  1.00  0.00    -0.278 OA 
ATOM     10  C   ALA A   1     -10.374   6.258  69.493  1.00  0.00    -0.263 C  
ATOM     11  O   ALA A   1     -10.896  10.776  66.754  1.00  0.00    -0.249 OA 
ATOM     12  C   ALA A   1     -10.351   7.788  66.919  1.00  0.00    -0.396 C  
ATOM     13  C   ALA A   1     -10.467   5.528  68.149  1.00  0.00    -0.231 C  
ATOM     14  C   ALA A   1     -11.031   6.408  67.024  1.00  0.00    -0.463 C  
ENDROOT
BRANCH   8  15
ATOM     15  CA  ALA A   1      -9.776  12.316  68.289  1.00  0.00    -0.219 C  
ATOM     16  CB  ALA A   1     -10.989  13.016  68.910  1.00  0.00    -0.271 C  
BRANCH  15  17
ATOM     17  N   ALA A   1      -9.177  13.105  67.194  1.00  0.00    -0.219 NA 
ATOM     18  H   ALA A   1      -9.488  12.744  66.293  1.00  0.00     0.000 HD 
BRANCH  17  19
HETATM   19  C   UNK A   0      -9.410  14.568  67.265  1.00  0.00    -0.210 C  
BRANCH  19  20
HETATM   20  C   UNK A   0      -8.094  15.373  67.300  1.00  0.00    -0.228 C  
BRANCH  20  21
HETATM   21  C   UNK A   0      -8.058  16.439  68.408  1.00  0.00    -0.188 C  
BRANCH  21  22
HETATM   22  C   UNK A   0      -7.517  17.747  67.886  1.00  0.00    -0.210 A  
HETATM   23  C   UNK A   0      -7.628  18.920  68.644  1.00  0.00    -0.366 A  
HETATM   24  C   UNK A   0      -6.857  17.796  66.650  1.00  0.00    -0.242 A  
HETATM   25  C   UNK A   0      -7.104  20.121  68.167  1.00  0.00    -0.310 A  
HETATM   26  C   UNK A   0      -6.334  18.999  66.175  1.00  0.00    -0.216 A  
HETATM   27  C   UNK A   0      -6.458  20.162  66.932  1.00  0.00    -0.230 A  
ENDBRANCH  21  22
ENDBRANCH  20  21
ENDBRANCH  19  20
BRANCH  19  28
HETATM   28  C   UNK A   0     -10.233  15.008  66.036  1.00  0.00    -0.301 C  
HETATM   29  O   UNK A   0     -10.218  14.463  64.943  1.00  0.00    -0.417 OA 
BRANCH  28  30
HETATM   30  O   UNK A   0     -10.923  16.155  66.322  1.00  0.00    -0.190 OA 
BRANCH  30  31
HETATM   31  C   UNK A   0     -10.687  17.249  65.421  1.00  0.00    -0.066 C  
HETATM   32  C   UNK A   0     -10.529  18.516  66.246  1.00  0.00    -0.441 C  
ENDBRANCH  30  31
ENDBRANCH  28  30
ENDBRANCH  19  28
ENDBRANCH  17  19
ENDBRANCH  15  17
ENDBRANCH   8  15
TORSDOF 9
ENDMDL
MODEL      135
REMARK 921   NORMALIZED FREE ENERGY PREDICTED BY IDOCK:   -4.62 KCAL/MOL
REMARK 922        TOTAL FREE ENERGY PREDICTED BY IDOCK:   -8.99 KCAL/MOL
REMARK 923 INTER-LIGAND FREE ENERGY PREDICTED BY IDOCK:   -7.66 KCAL/MOL
REMARK 924 INTRA-LIGAND FREE ENERGY PREDICTED BY IDOCK:   -1.33 KCAL/MOL
REMARK 927      BINDING AFFINITY PREDICTED BY RF-SCORE:    0.00 PKD
ROOT
ATOM      1  C   ALA A   1      -6.008  13.029  67.933  1.00  0.00    -0.130 C  
ATOM      2  C   ALA A   1      -5.604  11.650  67.442  1.00  0.00    -0.086 C  
ATOM      3  CA  ALA A   1      -6.875  10.831  67.712  1.00  0.00    -0.073 C  
ATOM      4  N   ALA A   1      -7.990  11.815  67.638  1.00  0.00    -0.134 N  
ATOM      5  C   ALA A   1      -6.772  10.139  69.073  1.00  0.00    -0.054 C  
ATOM      6  C   ALA A   1      -7.438  13.153  67.398  1.00  0.00    -0.124 C  
ATOM      7  O   ALA A   1      -7.462  10.761  70.054  1.00  0.00    -0.062 OA 
ATOM      8  C   ALA A   1      -9.297  11.500  67.246  1.00  0.00    -0.166 C  
ATOM      9  OXT ALA A   1      -6.090   9.143  69.269  1.00  0.00    -0.040 OA 
ATOM     10  C   ALA A   1      -5.146  14.197  67.493  1.00  0.00     0.230 C  
ATOM     11  O   ALA A   1     -10.105  12.382  66.950  1.00  0.00    -0.216 OA 
ATOM     12  C   ALA A   1      -8.086  14.387  68.025  1.00  0.00    -0.142 C  
ATOM     13  C   ALA A   1      -5.766  15.505  67.994  1.00  0.00    -0.147 C  
ATOM     14  C   ALA A   1      -7.258  15.634  67.653  1.00  0.00    -0.197 C  
ENDROOT
BRANCH   8  15
ATOM     15  CA  ALA A   1      -9.688   9.981  67.166  1.00  0.00    -0.174 C  
ATOM     16  CB  ALA A   1      -9.962   9.595  65.710  1.00  0.00    -0.342 C  
BRANCH  15  17
ATOM     17  N   ALA A   1     -10.845   9.712  68.042  1.00  0.00    -0.415 NA 
ATOM     18  H   ALA A   1     -11.056   8.715  68.047  1.00  0.00     0.000 HD 
BRANCH  17  19
HETATM   19  C   UNK A   0     -10.719  10.214  69.432  1.00  0.00    -0.238 C  
BRANCH  19  20
HETATM   20  C   UNK A   0     -11.916  11.092  69.852  1.00  0.00    -0.439 C  
BRANCH  20  21
HETATM   21  C   UNK A   0     -11.705  12.589  69.570  1.00  0.00    -0.375 C  
BRANCH  21  22
HETATM   22  C   UNK A   0     -12.438  13.440  70.578  1.00  0.00    -0.350 A  
HETATM   23  C   UNK A   0     -12.472  14.834  70.446  1.00  0.00    -0.405 A  
HETATM   24  C   UNK A   0     -13.132  12.840  71.638  1.00  0.00    -0.428 A  
HETATM   25  C   UNK A   0     -13.172  15.614  71.366  1.00  0.00    -0.540 A  
HETATM   26  C   UNK A   0     -13.831  13.623  72.558  1.00  0.00    -0.620 A  
HETATM   27  C   UNK A   0     -13.851  15.009  72.424  1.00  0.00    -0.596 A  
ENDBRANCH  21  22
ENDBRANCH  20  21
ENDBRANCH  19  20
BRANCH  19  28
HETATM   28  C   UNK A   0     -10.619   9.011  70.395  1.00  0.00    -0.218 C  
HETATM   29  O   UNK A   0      -9.583   8.561  70.858  1.00  0.00    -0.167 OA 
BRANCH  28  30
HETATM   30  O   UNK A   0     -11.859   8.465  70.589  1.00  0.00    -0.224 OA 
BRANCH  30  31
HETATM   31  C   UNK A   0     -12.148   8.076  71.941  1.00  0.00    -0.317 C  
HETATM   32  C   UNK A   0     -13.205   9.020  72.490  1.00  0.00    -0.467 C  
ENDBRANCH  30  31
ENDBRANCH  28  30
ENDBRANCH  19  28
ENDBRANCH  17  19
ENDBRANCH  15  17
ENDBRANCH   8  15
TORSDOF 9
ENDMDL
MODEL      136
REMARK 921   NORMALIZED FREE ENERGY PREDICTED BY IDOCK:   -4.61 KCAL/MOL
REMARK 922        TOTAL FREE ENERGY PREDICTED BY IDOCK:   -8.99 KCAL/MOL
REMARK 923 INTER-LIGAND FREE ENERGY PREDICTED BY IDOCK:   -7.58 KCAL/MOL
REMARK 924 INTRA-LIGAND FREE ENERGY PREDICTED BY IDOCK:   -1.41 KCAL/MOL
REMARK 927      BINDING AFFINITY PREDICTED BY RF-SCORE:    0.00 PKD
ROOT
ATOM      1  C   ALA A   1      -9.124   7.938  65.820  1.00  0.00    -0.084 C  
ATOM      2  C   ALA A   1      -7.958   8.640  65.145  1.00  0.00    -0.127 C  
ATOM      3  CA  ALA A   1      -8.285  10.119  65.401  1.00  0.00    -0.151 C  
ATOM      4  N   ALA A   1      -9.079  10.125  66.661  1.00  0.00    -0.143 N  
ATOM      5  C   ALA A   1      -9.045  10.700  64.206  1.00  0.00    -0.220 C  
ATOM      6  C   ALA A   1      -9.276   8.744  67.115  1.00  0.00    -0.136 C  
ATOM      7  O   ALA A   1     -10.378  10.799  64.405  1.00  0.00    -0.353 OA 
ATOM      8  C   ALA A   1      -9.106  11.188  67.572  1.00  0.00    -0.146 C  
ATOM      9  OXT ALA A   1      -8.506  11.002  63.151  1.00  0.00    -0.087 OA 
ATOM     10  C   ALA A   1      -8.967   6.457  66.102  1.00  0.00    -0.162 C  
ATOM     11  O   ALA A   1      -9.559  11.043  68.709  1.00  0.00    -0.189 OA 
ATOM     12  C   ALA A   1     -10.578   8.326  67.797  1.00  0.00    -0.236 C  
ATOM     13  C   ALA A   1     -10.190   5.953  66.876  1.00  0.00    -0.262 C  
ATOM     14  C   ALA A   1     -10.524   6.816  68.102  1.00  0.00    -0.251 C  
ENDROOT
BRANCH   8  15
ATOM     15  CA  ALA A   1      -8.507  12.563  67.106  1.00  0.00    -0.186 C  
ATOM     16  CB  ALA A   1      -7.626  13.146  68.215  1.00  0.00    -0.139 C  
BRANCH  15  17
ATOM     17  N   ALA A   1      -9.597  13.481  66.720  1.00  0.00    -0.260 NA 
ATOM     18  H   ALA A   1     -10.373  12.954  66.320  1.00  0.00     0.000 HD 
BRANCH  17  19
HETATM   19  C   UNK A   0     -10.088  14.373  67.798  1.00  0.00    -0.226 C  
BRANCH  19  20
HETATM   20  C   UNK A   0     -10.260  15.831  67.324  1.00  0.00    -0.268 C  
BRANCH  20  21
HETATM   21  C   UNK A   0      -9.250  16.245  66.241  1.00  0.00    -0.363 C  
BRANCH  21  22
HETATM   22  C   UNK A   0      -8.807  17.675  66.430  1.00  0.00    -0.263 A  
HETATM   23  C   UNK A   0      -9.738  18.721  66.414  1.00  0.00    -0.378 A  
HETATM   24  C   UNK A   0      -7.457  17.971  66.668  1.00  0.00    -0.256 A  
HETATM   25  C   UNK A   0      -9.326  20.038  66.615  1.00  0.00    -0.505 A  
HETATM   26  C   UNK A   0      -7.046  19.290  66.867  1.00  0.00    -0.214 A  
HETATM   27  C   UNK A   0      -7.980  20.324  66.840  1.00  0.00    -0.349 A  
ENDBRANCH  21  22
ENDBRANCH  20  21
ENDBRANCH  19  20
BRANCH  19  28
HETATM   28  C   UNK A   0     -11.447  13.848  68.307  1.00  0.00    -0.311 C  
HETATM   29  O   UNK A   0     -12.402  13.559  67.603  1.00  0.00    -0.248 OA 
BRANCH  28  30
HETATM   30  O   UNK A   0     -11.459  13.834  69.676  1.00  0.00    -0.264 OA 
BRANCH  30  31
HETATM   31  C   UNK A   0     -12.515  14.596  70.284  1.00  0.00    -0.346 C  
HETATM   32  C   UNK A   0     -11.911  15.864  70.864  1.00  0.00    -0.453 C  
ENDBRANCH  30  31
ENDBRANCH  28  30
ENDBRANCH  19  28
ENDBRANCH  17  19
ENDBRANCH  15  17
ENDBRANCH   8  15
TORSDOF 9
ENDMDL
MODEL      137
REMARK 921   NORMALIZED FREE ENERGY PREDICTED BY IDOCK:   -4.61 KCAL/MOL
REMARK 922        TOTAL FREE ENERGY PREDICTED BY IDOCK:   -8.98 KCAL/MOL
REMARK 923 INTER-LIGAND FREE ENERGY PREDICTED BY IDOCK:   -8.85 KCAL/MOL
REMARK 924 INTRA-LIGAND FREE ENERGY PREDICTED BY IDOCK:   -0.13 KCAL/MOL
REMARK 927      BINDING AFFINITY PREDICTED BY RF-SCORE:    0.00 PKD
ROOT
ATOM      1  C   ALA A   1     -12.527  13.876  70.474  1.00  0.00    -0.422 C  
ATOM      2  C   ALA A   1     -12.022  12.598  69.827  1.00  0.00    -0.365 C  
ATOM      3  CA  ALA A   1     -11.084  13.142  68.738  1.00  0.00    -0.269 C  
ATOM      4  N   ALA A   1     -10.607  14.453  69.261  1.00  0.00    -0.214 N  
ATOM      5  C   ALA A   1     -11.836  13.260  67.411  1.00  0.00    -0.366 C  
ATOM      6  C   ALA A   1     -11.251  14.722  70.551  1.00  0.00    -0.148 C  
ATOM      7  O   ALA A   1     -12.231  14.519  67.119  1.00  0.00    -0.355 OA 
ATOM      8  C   ALA A   1      -9.368  15.024  68.948  1.00  0.00    -0.208 C  
ATOM      9  OXT ALA A   1     -12.101  12.299  66.702  1.00  0.00    -0.612 OA 
ATOM     10  C   ALA A   1     -13.190  13.744  71.832  1.00  0.00    -0.486 C  
ATOM     11  O   ALA A   1      -8.915  15.965  69.602  1.00  0.00    -0.204 OA 
ATOM     12  C   ALA A   1     -11.637  16.146  70.948  1.00  0.00    -0.406 C  
ATOM     13  C   ALA A   1     -13.534  15.138  72.367  1.00  0.00    -0.551 C  
ATOM     14  C   ALA A   1     -12.349  16.112  72.315  1.00  0.00    -0.538 C  
ENDROOT
BRANCH   8  15
ATOM     15  CA  ALA A   1      -8.559  14.401  67.754  1.00  0.00    -0.171 C  
ATOM     16  CB  ALA A   1      -8.940  15.105  66.449  1.00  0.00    -0.314 C  
BRANCH  15  17
ATOM     17  N   ALA A   1      -8.794  12.945  67.692  1.00  0.00    -0.175 NA 
ATOM     18  H   ALA A   1      -8.900  12.649  66.722  1.00  0.00     0.000 HD 
BRANCH  17  19
HETATM   19  C   UNK A   0      -7.776  12.108  68.372  1.00  0.00    -0.134 C  
BRANCH  19  20
HETATM   20  C   UNK A   0      -8.019  10.599  68.162  1.00  0.00    -0.113 C  
BRANCH  20  21
HETATM   21  C   UNK A   0      -7.556   9.734  69.346  1.00  0.00    -0.104 C  
BRANCH  21  22
HETATM   22  C   UNK A   0      -8.713   9.384  70.249  1.00  0.00    -0.261 A  
HETATM   23  C   UNK A   0      -8.500   8.702  71.454  1.00  0.00    -0.240 A  
HETATM   24  C   UNK A   0     -10.016   9.777  69.912  1.00  0.00    -0.282 A  
HETATM   25  C   UNK A   0      -9.570   8.403  72.296  1.00  0.00    -0.374 A  
HETATM   26  C   UNK A   0     -11.086   9.476  70.756  1.00  0.00    -0.390 A  
HETATM   27  C   UNK A   0     -10.864   8.789  71.948  1.00  0.00    -0.431 A  
ENDBRANCH  21  22
ENDBRANCH  20  21
ENDBRANCH  19  20
BRANCH  19  28
HETATM   28  C   UNK A   0      -6.379  12.470  67.824  1.00  0.00    -0.121 C  
HETATM   29  O   UNK A   0      -5.899  12.055  66.781  1.00  0.00    -0.232 OA 
BRANCH  28  30
HETATM   30  O   UNK A   0      -5.716  13.261  68.724  1.00  0.00    -0.070 OA 
BRANCH  30  31
HETATM   31  C   UNK A   0      -5.953  12.943  70.106  1.00  0.00    -0.136 C  
HETATM   32  C   UNK A   0      -6.081  14.247  70.876  1.00  0.00    -0.155 C  
ENDBRANCH  30  31
ENDBRANCH  28  30
ENDBRANCH  19  28
ENDBRANCH  17  19
ENDBRANCH  15  17
ENDBRANCH   8  15
TORSDOF 9
ENDMDL
MODEL      138
REMARK 921   NORMALIZED FREE ENERGY PREDICTED BY IDOCK:   -4.61 KCAL/MOL
REMARK 922        TOTAL FREE ENERGY PREDICTED BY IDOCK:   -8.98 KCAL/MOL
REMARK 923 INTER-LIGAND FREE ENERGY PREDICTED BY IDOCK:   -7.32 KCAL/MOL
REMARK 924 INTRA-LIGAND FREE ENERGY PREDICTED BY IDOCK:   -1.65 KCAL/MOL
REMARK 927      BINDING AFFINITY PREDICTED BY RF-SCORE:    0.00 PKD
ROOT
ATOM      1  C   ALA A   1     -10.413  16.452  67.498  1.00  0.00    -0.304 C  
ATOM      2  C   ALA A   1     -11.636  15.637  67.881  1.00  0.00    -0.195 C  
ATOM      3  CA  ALA A   1     -11.326  14.277  67.236  1.00  0.00    -0.334 C  
ATOM      4  N   ALA A   1      -9.840  14.201  67.195  1.00  0.00    -0.248 N  
ATOM      5  C   ALA A   1     -11.973  14.194  65.852  1.00  0.00    -0.409 C  
ATOM      6  C   ALA A   1      -9.277  15.449  67.722  1.00  0.00    -0.183 C  
ATOM      7  O   ALA A   1     -11.110  14.407  64.834  1.00  0.00    -0.359 OA 
ATOM      8  C   ALA A   1      -9.108  13.008  67.250  1.00  0.00    -0.209 C  
ATOM      9  OXT ALA A   1     -13.168  14.003  65.681  1.00  0.00    -0.634 OA 
ATOM     10  C   ALA A   1     -10.177  17.740  68.263  1.00  0.00    -0.382 C  
ATOM     11  O   ALA A   1      -7.897  13.011  67.476  1.00  0.00    -0.156 OA 
ATOM     12  C   ALA A   1      -7.992  16.033  67.136  1.00  0.00    -0.234 C  
ATOM     13  C   ALA A   1      -8.851  18.363  67.814  1.00  0.00    -0.289 C  
ATOM     14  C   ALA A   1      -7.680  17.370  67.838  1.00  0.00    -0.201 C  
ENDROOT
BRANCH   8  15
ATOM     15  CA  ALA A   1      -9.892  11.662  67.045  1.00  0.00    -0.193 C  
ATOM     16  CB  ALA A   1     -10.490  11.204  68.378  1.00  0.00    -0.211 C  
BRANCH  15  17
ATOM     17  N   ALA A   1      -8.999  10.645  66.455  1.00  0.00    -0.153 NA 
ATOM     18  H   ALA A   1      -8.069  11.037  66.311  1.00  0.00     0.000 HD 
BRANCH  17  19
HETATM   19  C   UNK A   0      -8.903   9.371  67.210  1.00  0.00    -0.128 C  
BRANCH  19  20
HETATM   20  C   UNK A   0      -9.567   8.195  66.464  1.00  0.00    -0.303 C  
BRANCH  20  21
HETATM   21  C   UNK A   0     -10.869   7.709  67.124  1.00  0.00    -0.258 C  
BRANCH  21  22
HETATM   22  C   UNK A   0     -10.586   6.695  68.204  1.00  0.00    -0.294 A  
HETATM   23  C   UNK A   0     -10.093   5.425  67.881  1.00  0.00    -0.215 A  
HETATM   24  C   UNK A   0     -10.773   7.030  69.553  1.00  0.00    -0.263 A  
HETATM   25  C   UNK A   0      -9.809   4.500  68.886  1.00  0.00    -0.190 A  
HETATM   26  C   UNK A   0     -10.489   6.103  70.557  1.00  0.00    -0.291 A  
HETATM   27  C   UNK A   0     -10.008   4.838  70.225  1.00  0.00    -0.320 A  
ENDBRANCH  21  22
ENDBRANCH  20  21
ENDBRANCH  19  20
BRANCH  19  28
HETATM   28  C   UNK A   0      -7.416   9.037  67.447  1.00  0.00    -0.085 C  
HETATM   29  O   UNK A   0      -6.530   9.115  66.610  1.00  0.00    -0.065 OA 
BRANCH  28  30
HETATM   30  O   UNK A   0      -7.243   8.556  68.718  1.00  0.00    -0.075 OA 
BRANCH  30  31
HETATM   31  C   UNK A   0      -6.950   7.151  68.802  1.00  0.00    -0.082 C  
HETATM   32  C   UNK A   0      -6.852   6.776  70.272  1.00  0.00    -0.061 C  
ENDBRANCH  30  31
ENDBRANCH  28  30
ENDBRANCH  19  28
ENDBRANCH  17  19
ENDBRANCH  15  17
ENDBRANCH   8  15
TORSDOF 9
ENDMDL
MODEL      139
REMARK 921   NORMALIZED FREE ENERGY PREDICTED BY IDOCK:   -4.60 KCAL/MOL
REMARK 922        TOTAL FREE ENERGY PREDICTED BY IDOCK:   -8.97 KCAL/MOL
REMARK 923 INTER-LIGAND FREE ENERGY PREDICTED BY IDOCK:   -8.34 KCAL/MOL
REMARK 924 INTRA-LIGAND FREE ENERGY PREDICTED BY IDOCK:   -0.63 KCAL/MOL
REMARK 927      BINDING AFFINITY PREDICTED BY RF-SCORE:    0.00 PKD
ROOT
ATOM      1  C   ALA A   1     -10.760  12.246  64.794  1.00  0.00    -0.338 C  
ATOM      2  C   ALA A   1     -10.328  10.827  64.466  1.00  0.00    -0.401 C  
ATOM      3  CA  ALA A   1      -9.949  10.282  65.852  1.00  0.00    -0.256 C  
ATOM      4  N   ALA A   1     -10.786  11.054  66.811  1.00  0.00    -0.268 N  
ATOM      5  C   ALA A   1      -8.447  10.453  66.089  1.00  0.00    -0.147 C  
ATOM      6  C   ALA A   1     -11.579  12.043  66.073  1.00  0.00    -0.305 C  
ATOM      7  O   ALA A   1      -8.137  11.507  66.875  1.00  0.00    -0.154 OA 
ATOM      8  C   ALA A   1     -11.225  10.565  68.048  1.00  0.00    -0.294 C  
ATOM      9  OXT ALA A   1      -7.601   9.735  65.575  1.00  0.00    -0.109 OA 
ATOM     10  C   ALA A   1     -11.555  12.985  63.735  1.00  0.00    -0.517 C  
ATOM     11  O   ALA A   1     -12.119  11.132  68.678  1.00  0.00    -0.556 OA 
ATOM     12  C   ALA A   1     -11.876  13.414  66.680  1.00  0.00    -0.443 C  
ATOM     13  C   ALA A   1     -11.989  14.348  64.283  1.00  0.00    -0.433 C  
ATOM     14  C   ALA A   1     -12.666  14.256  65.659  1.00  0.00    -0.395 C  
ENDROOT
BRANCH   8  15
ATOM     15  CA  ALA A   1     -10.559   9.250  68.589  1.00  0.00    -0.187 C  
ATOM     16  CB  ALA A   1      -9.169   9.566  69.149  1.00  0.00    -0.163 C  
BRANCH  15  17
ATOM     17  N   ALA A   1     -10.511   8.233  67.520  1.00  0.00    -0.329 NA 
ATOM     18  H   ALA A   1      -9.991   8.592  66.720  1.00  0.00     0.000 HD 
BRANCH  17  19
HETATM   19  C   UNK A   0      -9.976   6.911  67.925  1.00  0.00    -0.147 C  
BRANCH  19  20
HETATM   20  C   UNK A   0     -10.982   6.102  68.771  1.00  0.00    -0.421 C  
BRANCH  20  21
HETATM   21  C   UNK A   0     -10.340   5.398  69.978  1.00  0.00    -0.366 C  
BRANCH  21  22
HETATM   22  C   UNK A   0      -9.993   6.388  71.063  1.00  0.00    -0.205 A  
HETATM   23  C   UNK A   0      -8.660   6.602  71.435  1.00  0.00    -0.125 A  
HETATM   24  C   UNK A   0     -11.001   7.139  71.684  1.00  0.00    -0.255 A  
HETATM   25  C   UNK A   0      -8.342   7.536  72.421  1.00  0.00    -0.131 A  
HETATM   26  C   UNK A   0     -10.682   8.073  72.671  1.00  0.00    -0.426 A  
HETATM   27  C   UNK A   0      -9.353   8.272  73.040  1.00  0.00    -0.310 A  
ENDBRANCH  21  22
ENDBRANCH  20  21
ENDBRANCH  19  20
BRANCH  19  28
HETATM   28  C   UNK A   0      -9.621   6.101  66.660  1.00  0.00    -0.152 C  
HETATM   29  O   UNK A   0      -9.968   4.952  66.436  1.00  0.00    -0.184 OA 
BRANCH  28  30
HETATM   30  O   UNK A   0      -8.786   6.832  65.858  1.00  0.00    -0.156 OA 
BRANCH  30  31
HETATM   31  C   UNK A   0      -7.558   6.176  65.499  1.00  0.00    -0.086 C  
HETATM   32  C   UNK A   0      -7.445   6.181  63.984  1.00  0.00    -0.081 C  
ENDBRANCH  30  31
ENDBRANCH  28  30
ENDBRANCH  19  28
ENDBRANCH  17  19
ENDBRANCH  15  17
ENDBRANCH   8  15
TORSDOF 9
ENDMDL
MODEL      140
REMARK 921   NORMALIZED FREE ENERGY PREDICTED BY IDOCK:   -4.59 KCAL/MOL
REMARK 922        TOTAL FREE ENERGY PREDICTED BY IDOCK:   -8.95 KCAL/MOL
REMARK 923 INTER-LIGAND FREE ENERGY PREDICTED BY IDOCK:   -8.63 KCAL/MOL
REMARK 924 INTRA-LIGAND FREE ENERGY PREDICTED BY IDOCK:   -0.31 KCAL/MOL
REMARK 927      BINDING AFFINITY PREDICTED BY RF-SCORE:    0.00 PKD
ROOT
ATOM      1  C   ALA A   1     -11.739   9.254  71.329  1.00  0.00    -0.416 C  
ATOM      2  C   ALA A   1     -10.722   9.961  70.449  1.00  0.00    -0.379 C  
ATOM      3  CA  ALA A   1      -9.695   8.848  70.192  1.00  0.00    -0.179 C  
ATOM      4  N   ALA A   1     -10.469   7.580  70.292  1.00  0.00    -0.218 N  
ATOM      5  C   ALA A   1      -8.556   8.942  71.210  1.00  0.00    -0.198 C  
ATOM      6  C   ALA A   1     -11.858   7.888  70.644  1.00  0.00    -0.102 C  
ATOM      7  O   ALA A   1      -8.654   8.049  72.220  1.00  0.00    -0.128 OA 
ATOM      8  C   ALA A   1     -10.150   6.404  69.602  1.00  0.00    -0.175 C  
ATOM      9  OXT ALA A   1      -7.666   9.778  71.145  1.00  0.00    -0.247 OA 
ATOM     10  C   ALA A   1     -13.093   9.918  71.488  1.00  0.00    -0.516 C  
ATOM     11  O   ALA A   1     -10.957   5.477  69.513  1.00  0.00    -0.288 OA 
ATOM     12  C   ALA A   1     -12.657   6.957  71.556  1.00  0.00    -0.412 C  
ATOM     13  C   ALA A   1     -14.010   9.012  72.315  1.00  0.00    -0.522 C  
ATOM     14  C   ALA A   1     -14.052   7.566  71.800  1.00  0.00    -0.509 C  
ENDROOT
BRANCH   8  15
ATOM     15  CA  ALA A   1      -8.739   6.320  68.918  1.00  0.00    -0.125 C  
ATOM     16  CB  ALA A   1      -7.652   6.184  69.988  1.00  0.00    -0.095 C  
BRANCH  15  17
ATOM     17  N   ALA A   1      -8.527   7.499  68.055  1.00  0.00    -0.123 NA 
ATOM     18  H   ALA A   1      -7.533   7.720  68.001  1.00  0.00     0.000 HD 
BRANCH  17  19
HETATM   19  C   UNK A   0      -9.101   7.399  66.691  1.00  0.00    -0.154 C  
BRANCH  19  20
HETATM   20  C   UNK A   0      -9.076   8.748  65.941  1.00  0.00    -0.271 C  
BRANCH  20  21
HETATM   21  C   UNK A   0      -9.689   9.906  66.745  1.00  0.00    -0.244 C  
BRANCH  21  22
HETATM   22  C   UNK A   0     -10.443  10.854  65.845  1.00  0.00    -0.285 A  
HETATM   23  C   UNK A   0     -10.365  10.730  64.452  1.00  0.00    -0.405 A  
HETATM   24  C   UNK A   0     -11.266  11.847  66.395  1.00  0.00    -0.387 A  
HETATM   25  C   UNK A   0     -11.084  11.593  63.625  1.00  0.00    -0.506 A  
HETATM   26  C   UNK A   0     -11.983  12.710  65.565  1.00  0.00    -0.509 A  
HETATM   27  C   UNK A   0     -11.893  12.584  64.181  1.00  0.00    -0.487 A  
ENDBRANCH  21  22
ENDBRANCH  20  21
ENDBRANCH  19  20
BRANCH  19  28
HETATM   28  C   UNK A   0      -8.296   6.361  65.880  1.00  0.00    -0.143 C  
HETATM   29  O   UNK A   0      -7.080   6.331  65.780  1.00  0.00    -0.066 OA 
BRANCH  28  30
HETATM   30  O   UNK A   0      -9.152   5.523  65.216  1.00  0.00    -0.120 OA 
BRANCH  30  31
HETATM   31  C   UNK A   0     -10.189   4.945  66.025  1.00  0.00    -0.257 C  
HETATM   32  C   UNK A   0      -9.656   3.657  66.630  1.00  0.00    -0.168 C  
ENDBRANCH  30  31
ENDBRANCH  28  30
ENDBRANCH  19  28
ENDBRANCH  17  19
ENDBRANCH  15  17
ENDBRANCH   8  15
TORSDOF 9
ENDMDL
MODEL      141
REMARK 921   NORMALIZED FREE ENERGY PREDICTED BY IDOCK:   -4.59 KCAL/MOL
REMARK 922        TOTAL FREE ENERGY PREDICTED BY IDOCK:   -8.94 KCAL/MOL
REMARK 923 INTER-LIGAND FREE ENERGY PREDICTED BY IDOCK:   -9.03 KCAL/MOL
REMARK 924 INTRA-LIGAND FREE ENERGY PREDICTED BY IDOCK:    0.09 KCAL/MOL
REMARK 927      BINDING AFFINITY PREDICTED BY RF-SCORE:    0.00 PKD
ROOT
ATOM      1  C   ALA A   1      -9.804   5.700  67.433  1.00  0.00    -0.160 C  
ATOM      2  C   ALA A   1     -11.138   6.303  67.839  1.00  0.00    -0.360 C  
ATOM      3  CA  ALA A   1     -10.751   7.129  69.076  1.00  0.00    -0.184 C  
ATOM      4  N   ALA A   1      -9.323   7.493  68.862  1.00  0.00    -0.143 N  
ATOM      5  C   ALA A   1     -10.980   6.307  70.346  1.00  0.00    -0.322 C  
ATOM      6  C   ALA A   1      -8.850   6.886  67.614  1.00  0.00    -0.118 C  
ATOM      7  O   ALA A   1      -9.850   5.774  70.861  1.00  0.00    -0.169 OA 
ATOM      8  C   ALA A   1      -8.721   8.653  69.366  1.00  0.00    -0.139 C  
ATOM      9  OXT ALA A   1     -12.087   6.110  70.826  1.00  0.00    -0.060 OA 
ATOM     10  C   ALA A   1      -9.709   5.118  66.036  1.00  0.00    -0.182 C  
ATOM     11  O   ALA A   1      -7.627   9.037  68.948  1.00  0.00    -0.080 OA 
ATOM     12  C   ALA A   1      -7.415   6.376  67.489  1.00  0.00    -0.092 C  
ATOM     13  C   ALA A   1      -8.271   4.659  65.772  1.00  0.00    -0.111 C  
ATOM     14  C   ALA A   1      -7.227   5.736  66.099  1.00  0.00    -0.076 C  
ENDROOT
BRANCH   8  15
ATOM     15  CA  ALA A   1      -9.503   9.465  70.459  1.00  0.00    -0.269 C  
ATOM     16  CB  ALA A   1      -9.410   8.741  71.806  1.00  0.00    -0.350 C  
BRANCH  15  17
ATOM     17  N   ALA A   1     -10.901   9.668  70.031  1.00  0.00    -0.248 NA 
ATOM     18  H   ALA A   1     -11.530   9.127  70.623  1.00  0.00     0.000 HD 
BRANCH  17  19
HETATM   19  C   UNK A   0     -11.347  11.081  69.971  1.00  0.00    -0.277 C  
BRANCH  19  20
HETATM   20  C   UNK A   0     -11.883  11.471  68.577  1.00  0.00    -0.365 C  
BRANCH  20  21
HETATM   21  C   UNK A   0     -10.895  11.173  67.436  1.00  0.00    -0.317 C  
BRANCH  21  22
HETATM   22  C   UNK A   0     -11.234  11.973  66.202  1.00  0.00    -0.394 A  
HETATM   23  C   UNK A   0     -10.677  11.642  64.961  1.00  0.00    -0.351 A  
HETATM   24  C   UNK A   0     -12.147  13.035  66.277  1.00  0.00    -0.453 A  
HETATM   25  C   UNK A   0     -11.014  12.368  63.819  1.00  0.00    -0.501 A  
HETATM   26  C   UNK A   0     -12.481  13.762  65.133  1.00  0.00    -0.483 A  
HETATM   27  C   UNK A   0     -11.915  13.429  63.905  1.00  0.00    -0.520 A  
ENDBRANCH  21  22
ENDBRANCH  20  21
ENDBRANCH  19  20
BRANCH  19  28
HETATM   28  C   UNK A   0     -12.461  11.303  71.015  1.00  0.00    -0.400 C  
HETATM   29  O   UNK A   0     -13.065  10.420  71.604  1.00  0.00    -0.403 OA 
BRANCH  28  30
HETATM   30  O   UNK A   0     -12.736  12.640  71.126  1.00  0.00    -0.358 OA 
BRANCH  30  31
HETATM   31  C   UNK A   0     -13.652  12.988  72.178  1.00  0.00    -0.526 C  
HETATM   32  C   UNK A   0     -14.078  14.433  71.976  1.00  0.00    -0.620 C  
ENDBRANCH  30  31
ENDBRANCH  28  30
ENDBRANCH  19  28
ENDBRANCH  17  19
ENDBRANCH  15  17
ENDBRANCH   8  15
TORSDOF 9
ENDMDL
MODEL      142
REMARK 921   NORMALIZED FREE ENERGY PREDICTED BY IDOCK:   -4.58 KCAL/MOL
REMARK 922        TOTAL FREE ENERGY PREDICTED BY IDOCK:   -8.94 KCAL/MOL
REMARK 923 INTER-LIGAND FREE ENERGY PREDICTED BY IDOCK:   -7.18 KCAL/MOL
REMARK 924 INTRA-LIGAND FREE ENERGY PREDICTED BY IDOCK:   -1.76 KCAL/MOL
REMARK 927      BINDING AFFINITY PREDICTED BY RF-SCORE:    0.00 PKD
ROOT
ATOM      1  C   ALA A   1      -6.923   7.782  68.257  1.00  0.00    -0.079 C  
ATOM      2  C   ALA A   1      -6.970   8.617  69.525  1.00  0.00    -0.048 C  
ATOM      3  CA  ALA A   1      -8.093   9.617  69.206  1.00  0.00    -0.107 C  
ATOM      4  N   ALA A   1      -8.979   8.905  68.244  1.00  0.00    -0.137 N  
ATOM      5  C   ALA A   1      -7.499  10.907  68.637  1.00  0.00    -0.105 C  
ATOM      6  C   ALA A   1      -8.411   7.586  67.948  1.00  0.00    -0.123 C  
ATOM      7  O   ALA A   1      -7.594  11.004  67.293  1.00  0.00    -0.102 OA 
ATOM      8  C   ALA A   1     -10.355   9.135  68.119  1.00  0.00    -0.216 C  
ATOM      9  OXT ALA A   1      -6.944  11.750  69.327  1.00  0.00    -0.108 OA 
ATOM     10  C   ALA A   1      -6.190   6.456  68.333  1.00  0.00    -0.036 C  
ATOM     11  O   ALA A   1     -11.081   8.349  67.507  1.00  0.00     0.038 OA 
ATOM     12  C   ALA A   1      -8.539   6.977  66.552  1.00  0.00    -0.130 C  
ATOM     13  C   ALA A   1      -6.340   5.715  67.001  1.00  0.00    -0.039 C  
ATOM     14  C   ALA A   1      -7.796   5.626  66.522  1.00  0.00    -0.101 C  
ENDROOT
BRANCH   8  15
ATOM     15  CA  ALA A   1     -10.946  10.412  68.814  1.00  0.00    -0.245 C  
ATOM     16  CB  ALA A   1     -11.422  10.059  70.226  1.00  0.00    -0.372 C  
BRANCH  15  17
ATOM     17  N   ALA A   1     -12.029  10.979  67.987  1.00  0.00    -0.761 NA 
ATOM     18  H   ALA A   1     -12.931  10.825  68.437  1.00  0.00     0.000 HD 
BRANCH  17  19
HETATM   19  C   UNK A   0     -11.875  12.412  67.634  1.00  0.00    -0.295 C  
BRANCH  19  20
HETATM   20  C   UNK A   0     -10.665  13.064  68.335  1.00  0.00    -0.273 C  
BRANCH  20  21
HETATM   21  C   UNK A   0     -11.051  14.216  69.277  1.00  0.00    -0.286 C  
BRANCH  21  22
HETATM   22  C   UNK A   0     -10.365  15.499  68.877  1.00  0.00    -0.221 A  
HETATM   23  C   UNK A   0      -8.970  15.564  68.781  1.00  0.00    -0.204 A  
HETATM   24  C   UNK A   0     -11.123  16.634  68.553  1.00  0.00    -0.301 A  
HETATM   25  C   UNK A   0      -8.343  16.745  68.385  1.00  0.00    -0.222 A  
HETATM   26  C   UNK A   0     -10.493  17.815  68.158  1.00  0.00    -0.382 A  
HETATM   27  C   UNK A   0      -9.104  17.872  68.075  1.00  0.00    -0.267 A  
ENDBRANCH  21  22
ENDBRANCH  20  21
ENDBRANCH  19  20
BRANCH  19  28
HETATM   28  C   UNK A   0     -11.695  12.538  66.106  1.00  0.00    -0.409 C  
HETATM   29  O   UNK A   0     -12.503  12.173  65.266  1.00  0.00    -0.520 OA 
BRANCH  28  30
HETATM   30  O   UNK A   0     -10.454  13.044  65.823  1.00  0.00    -0.271 OA 
BRANCH  30  31
HETATM   31  C   UNK A   0     -10.414  13.986  64.739  1.00  0.00    -0.421 C  
HETATM   32  C   UNK A   0     -10.672  15.372  65.306  1.00  0.00    -0.439 C  
ENDBRANCH  30  31
ENDBRANCH  28  30
ENDBRANCH  19  28
ENDBRANCH  17  19
ENDBRANCH  15  17
ENDBRANCH   8  15
TORSDOF 9
ENDMDL
MODEL      143
REMARK 921   NORMALIZED FREE ENERGY PREDICTED BY IDOCK:   -4.58 KCAL/MOL
REMARK 922        TOTAL FREE ENERGY PREDICTED BY IDOCK:   -8.93 KCAL/MOL
REMARK 923 INTER-LIGAND FREE ENERGY PREDICTED BY IDOCK:   -7.33 KCAL/MOL
REMARK 924 INTRA-LIGAND FREE ENERGY PREDICTED BY IDOCK:   -1.60 KCAL/MOL
REMARK 927      BINDING AFFINITY PREDICTED BY RF-SCORE:    0.00 PKD
ROOT
ATOM      1  C   ALA A   1     -11.325  12.999  66.015  1.00  0.00    -0.343 C  
ATOM      2  C   ALA A   1     -10.914  13.744  67.274  1.00  0.00    -0.302 C  
ATOM      3  CA  ALA A   1     -10.608  12.590  68.241  1.00  0.00    -0.231 C  
ATOM      4  N   ALA A   1     -10.194  11.457  67.368  1.00  0.00    -0.190 N  
ATOM      5  C   ALA A   1     -11.843  12.277  69.089  1.00  0.00    -0.301 C  
ATOM      6  C   ALA A   1     -10.294  11.866  65.963  1.00  0.00    -0.233 C  
ATOM      7  O   ALA A   1     -12.532  11.193  68.669  1.00  0.00    -0.463 OA 
ATOM      8  C   ALA A   1      -9.306  10.445  67.756  1.00  0.00    -0.145 C  
ATOM      9  OXT ALA A   1     -12.203  12.970  70.030  1.00  0.00    -0.299 OA 
ATOM     10  C   ALA A   1     -11.346  13.792  64.722  1.00  0.00    -0.367 C  
ATOM     11  O   ALA A   1      -8.796   9.690  66.926  1.00  0.00    -0.130 OA 
ATOM     12  C   ALA A   1     -10.724  10.868  64.889  1.00  0.00    -0.240 C  
ATOM     13  C   ALA A   1     -11.677  12.855  63.556  1.00  0.00    -0.576 C  
ATOM     14  C   ALA A   1     -10.802  11.593  63.531  1.00  0.00    -0.497 C  
ENDROOT
BRANCH   8  15
ATOM     15  CA  ALA A   1      -8.958  10.327  69.283  1.00  0.00    -0.179 C  
ATOM     16  CB  ALA A   1      -7.691   9.485  69.460  1.00  0.00    -0.100 C  
BRANCH  15  17
ATOM     17  N   ALA A   1     -10.108   9.767  70.020  1.00  0.00    -0.243 NA 
ATOM     18  H   ALA A   1     -10.935   9.759  69.424  1.00  0.00     0.000 HD 
BRANCH  17  19
HETATM   19  C   UNK A   0      -9.890   8.422  70.608  1.00  0.00    -0.181 C  
BRANCH  19  20
HETATM   20  C   UNK A   0     -10.180   8.389  72.123  1.00  0.00    -0.390 C  
BRANCH  20  21
HETATM   21  C   UNK A   0      -9.437   7.264  72.863  1.00  0.00    -0.200 C  
BRANCH  21  22
HETATM   22  C   UNK A   0      -7.952   7.333  72.606  1.00  0.00    -0.111 A  
HETATM   23  C   UNK A   0      -7.210   8.455  72.995  1.00  0.00    -0.109 A  
HETATM   24  C   UNK A   0      -7.288   6.251  72.010  1.00  0.00    -0.093 A  
HETATM   25  C   UNK A   0      -5.833   8.501  72.777  1.00  0.00    -0.073 A  
HETATM   26  C   UNK A   0      -5.910   6.300  71.792  1.00  0.00    -0.036 A  
HETATM   27  C   UNK A   0      -5.182   7.425  72.175  1.00  0.00    -0.036 A  
ENDBRANCH  21  22
ENDBRANCH  20  21
ENDBRANCH  19  20
BRANCH  19  28
HETATM   28  C   UNK A   0     -10.812   7.407  69.899  1.00  0.00    -0.246 C  
HETATM   29  O   UNK A   0     -11.715   6.781  70.431  1.00  0.00    -0.361 OA 
BRANCH  28  30
HETATM   30  O   UNK A   0     -10.414   7.245  68.599  1.00  0.00    -0.193 OA 
BRANCH  30  31
HETATM   31  C   UNK A   0     -11.081   6.191  67.885  1.00  0.00    -0.206 C  
HETATM   32  C   UNK A   0     -10.266   5.870  66.643  1.00  0.00    -0.258 C  
ENDBRANCH  30  31
ENDBRANCH  28  30
ENDBRANCH  19  28
ENDBRANCH  17  19
ENDBRANCH  15  17
ENDBRANCH   8  15
TORSDOF 9
ENDMDL
MODEL      144
REMARK 921   NORMALIZED FREE ENERGY PREDICTED BY IDOCK:   -4.56 KCAL/MOL
REMARK 922        TOTAL FREE ENERGY PREDICTED BY IDOCK:   -8.91 KCAL/MOL
REMARK 923 INTER-LIGAND FREE ENERGY PREDICTED BY IDOCK:   -7.62 KCAL/MOL
REMARK 924 INTRA-LIGAND FREE ENERGY PREDICTED BY IDOCK:   -1.29 KCAL/MOL
REMARK 927      BINDING AFFINITY PREDICTED BY RF-SCORE:    0.00 PKD
ROOT
ATOM      1  C   ALA A   1      -8.089   3.738  69.578  1.00  0.00    -0.062 C  
ATOM      2  C   ALA A   1      -9.597   3.870  69.445  1.00  0.00    -0.239 C  
ATOM      3  CA  ALA A   1      -9.784   5.395  69.448  1.00  0.00    -0.165 C  
ATOM      4  N   ALA A   1      -8.513   5.939  68.897  1.00  0.00    -0.105 N  
ATOM      5  C   ALA A   1     -10.084   5.881  70.868  1.00  0.00    -0.197 C  
ATOM      6  C   ALA A   1      -7.588   4.833  68.630  1.00  0.00    -0.069 C  
ATOM      7  O   ALA A   1      -9.018   6.426  71.493  1.00  0.00    -0.144 OA 
ATOM      8  C   ALA A   1      -8.411   7.143  68.189  1.00  0.00    -0.124 C  
ATOM      9  OXT ALA A   1     -11.174   5.747  71.406  1.00  0.00    -0.251 OA 
ATOM     10  C   ALA A   1      -7.484   2.389  69.239  1.00  0.00    -0.043 C  
ATOM     11  O   ALA A   1      -7.402   7.416  67.535  1.00  0.00    -0.096 OA 
ATOM     12  C   ALA A   1      -6.084   5.005  68.841  1.00  0.00    -0.029 C  
ATOM     13  C   ALA A   1      -5.957   2.480  69.328  1.00  0.00    -0.024 C  
ATOM     14  C   ALA A   1      -5.378   3.667  68.545  1.00  0.00    -0.012 C  
ENDROOT
BRANCH   8  15
ATOM     15  CA  ALA A   1      -9.640   8.119  68.230  1.00  0.00    -0.144 C  
ATOM     16  CB  ALA A   1     -10.501   7.918  66.979  1.00  0.00    -0.419 C  
BRANCH  15  17
ATOM     17  N   ALA A   1      -9.172   9.513  68.366  1.00  0.00    -0.130 NA 
ATOM     18  H   ALA A   1      -9.001   9.916  67.445  1.00  0.00     0.000 HD 
BRANCH  17  19
HETATM   19  C   UNK A   0     -10.056  10.404  69.156  1.00  0.00    -0.222 C  
BRANCH  19  20
HETATM   20  C   UNK A   0     -11.347  10.776  68.398  1.00  0.00    -0.367 C  
BRANCH  20  21
HETATM   21  C   UNK A   0     -11.310  12.183  67.778  1.00  0.00    -0.371 C  
BRANCH  21  22
HETATM   22  C   UNK A   0     -11.356  12.114  66.272  1.00  0.00    -0.411 A  
HETATM   23  C   UNK A   0     -12.339  12.808  65.554  1.00  0.00    -0.495 A  
HETATM   24  C   UNK A   0     -10.386  11.387  65.567  1.00  0.00    -0.317 A  
HETATM   25  C   UNK A   0     -12.361  12.761  64.160  1.00  0.00    -0.485 A  
HETATM   26  C   UNK A   0     -10.411  11.341  64.173  1.00  0.00    -0.410 A  
HETATM   27  C   UNK A   0     -11.398  12.027  63.469  1.00  0.00    -0.528 A  
ENDBRANCH  21  22
ENDBRANCH  20  21
ENDBRANCH  19  20
BRANCH  19  28
HETATM   28  C   UNK A   0     -10.435   9.698  70.475  1.00  0.00    -0.303 C  
HETATM   29  O   UNK A   0      -9.657   9.403  71.369  1.00  0.00    -0.230 OA 
BRANCH  28  30
HETATM   30  O   UNK A   0     -11.765   9.372  70.463  1.00  0.00    -0.262 OA 
BRANCH  30  31
HETATM   31  C   UNK A   0     -12.444   9.537  71.719  1.00  0.00    -0.401 C  
HETATM   32  C   UNK A   0     -13.100  10.908  71.725  1.00  0.00    -0.564 C  
ENDBRANCH  30  31
ENDBRANCH  28  30
ENDBRANCH  19  28
ENDBRANCH  17  19
ENDBRANCH  15  17
ENDBRANCH   8  15
TORSDOF 9
ENDMDL
MODEL      145
REMARK 921   NORMALIZED FREE ENERGY PREDICTED BY IDOCK:   -4.53 KCAL/MOL
REMARK 922        TOTAL FREE ENERGY PREDICTED BY IDOCK:   -8.87 KCAL/MOL
REMARK 923 INTER-LIGAND FREE ENERGY PREDICTED BY IDOCK:   -7.28 KCAL/MOL
REMARK 924 INTRA-LIGAND FREE ENERGY PREDICTED BY IDOCK:   -1.59 KCAL/MOL
REMARK 927      BINDING AFFINITY PREDICTED BY RF-SCORE:    0.00 PKD
ROOT
ATOM      1  C   ALA A   1      -9.937   4.319  71.290  1.00  0.00    -0.230 C  
ATOM      2  C   ALA A   1      -8.947   4.589  70.170  1.00  0.00    -0.141 C  
ATOM      3  CA  ALA A   1      -9.272   6.045  69.802  1.00  0.00    -0.143 C  
ATOM      4  N   ALA A   1      -9.810   6.647  71.053  1.00  0.00    -0.182 N  
ATOM      5  C   ALA A   1     -10.265   6.081  68.639  1.00  0.00    -0.188 C  
ATOM      6  C   ALA A   1      -9.868   5.619  72.098  1.00  0.00    -0.158 C  
ATOM      7  O   ALA A   1     -11.539   6.328  69.019  1.00  0.00    -0.278 OA 
ATOM      8  C   ALA A   1      -9.700   8.002  71.388  1.00  0.00    -0.164 C  
ATOM      9  OXT ALA A   1      -9.948   5.859  67.479  1.00  0.00    -0.124 OA 
ATOM     10  C   ALA A   1      -9.676   3.107  72.163  1.00  0.00    -0.230 C  
ATOM     11  O   ALA A   1      -9.923   8.396  72.534  1.00  0.00    -0.284 OA 
ATOM     12  C   ALA A   1     -11.000   5.613  73.124  1.00  0.00    -0.326 C  
ATOM     13  C   ALA A   1     -10.710   3.060  73.292  1.00  0.00    -0.282 C  
ATOM     14  C   ALA A   1     -10.835   4.390  74.049  1.00  0.00    -0.314 C  
ENDROOT
BRANCH   8  15
ATOM     15  CA  ALA A   1      -9.251   8.998  70.260  1.00  0.00    -0.202 C  
ATOM     16  CB  ALA A   1      -7.785   9.389  70.470  1.00  0.00    -0.177 C  
BRANCH  15  17
ATOM     17  N   ALA A   1     -10.145  10.173  70.241  1.00  0.00    -0.413 NA 
ATOM     18  H   ALA A   1      -9.794  10.890  70.876  1.00  0.00     0.000 HD 
BRANCH  17  19
HETATM   19  C   UNK A   0     -10.396  10.757  68.901  1.00  0.00    -0.202 C  
BRANCH  19  20
HETATM   20  C   UNK A   0     -10.455   9.685  67.793  1.00  0.00    -0.309 C  
BRANCH  20  21
HETATM   21  C   UNK A   0      -9.830  10.143  66.465  1.00  0.00    -0.268 C  
BRANCH  21  22
HETATM   22  C   UNK A   0      -8.837   9.128  65.953  1.00  0.00    -0.209 A  
HETATM   23  C   UNK A   0      -8.732   8.859  64.582  1.00  0.00    -0.138 A  
HETATM   24  C   UNK A   0      -7.976   8.471  66.843  1.00  0.00    -0.095 A  
HETATM   25  C   UNK A   0      -7.795   7.939  64.113  1.00  0.00    -0.136 A  
HETATM   26  C   UNK A   0      -7.040   7.549  66.371  1.00  0.00    -0.071 A  
HETATM   27  C   UNK A   0      -6.949   7.283  65.007  1.00  0.00    -0.055 A  
ENDBRANCH  21  22
ENDBRANCH  20  21
ENDBRANCH  19  20
BRANCH  19  28
HETATM   28  C   UNK A   0     -11.736  11.523  68.928  1.00  0.00    -0.339 C  
HETATM   29  O   UNK A   0     -12.260  12.065  67.968  1.00  0.00    -0.454 OA 
BRANCH  28  30
HETATM   30  O   UNK A   0     -12.215  11.579  70.210  1.00  0.00    -0.330 OA 
BRANCH  30  31
HETATM   31  C   UNK A   0     -12.334  12.903  70.758  1.00  0.00    -0.299 C  
HETATM   32  C   UNK A   0     -13.167  12.816  72.026  1.00  0.00    -0.538 C  
ENDBRANCH  30  31
ENDBRANCH  28  30
ENDBRANCH  19  28
ENDBRANCH  17  19
ENDBRANCH  15  17
ENDBRANCH   8  15
TORSDOF 9
ENDMDL
MODEL      146
REMARK 921   NORMALIZED FREE ENERGY PREDICTED BY IDOCK:   -4.53 KCAL/MOL
REMARK 922        TOTAL FREE ENERGY PREDICTED BY IDOCK:   -8.87 KCAL/MOL
REMARK 923 INTER-LIGAND FREE ENERGY PREDICTED BY IDOCK:   -8.08 KCAL/MOL
REMARK 924 INTRA-LIGAND FREE ENERGY PREDICTED BY IDOCK:   -0.79 KCAL/MOL
REMARK 927      BINDING AFFINITY PREDICTED BY RF-SCORE:    0.00 PKD
ROOT
ATOM      1  C   ALA A   1     -11.667   9.346  71.284  1.00  0.00    -0.432 C  
ATOM      2  C   ALA A   1     -10.732  10.217  70.461  1.00  0.00    -0.295 C  
ATOM      3  CA  ALA A   1      -9.767   9.178  69.871  1.00  0.00    -0.191 C  
ATOM      4  N   ALA A   1     -10.558   7.918  69.794  1.00  0.00    -0.240 N  
ATOM      5  C   ALA A   1      -8.524   9.056  70.755  1.00  0.00    -0.200 C  
ATOM      6  C   ALA A   1     -11.894   8.152  70.351  1.00  0.00     0.096 C  
ATOM      7  O   ALA A   1      -8.537   7.975  71.566  1.00  0.00    -0.114 OA 
ATOM      8  C   ALA A   1     -10.345   6.909  68.847  1.00  0.00    -0.189 C  
ATOM      9  OXT ALA A   1      -7.625   9.885  70.766  1.00  0.00    -0.305 OA 
ATOM     10  C   ALA A   1     -12.979   9.968  71.722  1.00  0.00    -0.560 C  
ATOM     11  O   ALA A   1     -11.181   6.023  68.659  1.00  0.00    -0.307 OA 
ATOM     12  C   ALA A   1     -12.614   7.055  71.135  1.00  0.00    -0.387 C  
ATOM     13  C   ALA A   1     -13.826   8.914  72.442  1.00  0.00    -0.518 C  
ATOM     14  C   ALA A   1     -13.960   7.605  71.650  1.00  0.00    -0.510 C  
ENDROOT
BRANCH   8  15
ATOM     15  CA  ALA A   1      -9.018   6.963  68.009  1.00  0.00    -0.121 C  
ATOM     16  CB  ALA A   1      -7.860   6.397  68.837  1.00  0.00    -0.110 C  
BRANCH  15  17
ATOM     17  N   ALA A   1      -8.760   8.347  67.564  1.00  0.00    -0.135 NA 
ATOM     18  H   ALA A   1      -7.931   8.716  68.030  1.00  0.00     0.000 HD 
BRANCH  17  19
HETATM   19  C   UNK A   0      -8.643   8.531  66.097  1.00  0.00    -0.138 C  
BRANCH  19  20
HETATM   20  C   UNK A   0      -9.677   9.535  65.546  1.00  0.00    -0.344 C  
BRANCH  20  21
HETATM   21  C   UNK A   0     -10.501  10.230  66.643  1.00  0.00    -0.260 C  
BRANCH  21  22
HETATM   22  C   UNK A   0     -10.827  11.652  66.259  1.00  0.00    -0.333 A  
HETATM   23  C   UNK A   0     -10.213  12.253  65.153  1.00  0.00    -0.305 A  
HETATM   24  C   UNK A   0     -11.783  12.378  66.984  1.00  0.00    -0.423 A  
HETATM   25  C   UNK A   0     -10.538  13.560  64.788  1.00  0.00    -0.429 A  
HETATM   26  C   UNK A   0     -12.106  13.685  66.618  1.00  0.00    -0.459 A  
HETATM   27  C   UNK A   0     -11.483  14.277  65.521  1.00  0.00    -0.329 A  
ENDBRANCH  21  22
ENDBRANCH  20  21
ENDBRANCH  19  20
BRANCH  19  28
HETATM   28  C   UNK A   0      -7.225   9.038  65.763  1.00  0.00    -0.089 C  
HETATM   29  O   UNK A   0      -6.214   8.353  65.745  1.00  0.00    -0.050 OA 
BRANCH  28  30
HETATM   30  O   UNK A   0      -7.247  10.394  65.573  1.00  0.00    -0.144 OA 
BRANCH  30  31
HETATM   31  C   UNK A   0      -6.400  11.147  66.455  1.00  0.00    -0.132 C  
HETATM   32  C   UNK A   0      -7.277  11.804  67.508  1.00  0.00    -0.123 C  
ENDBRANCH  30  31
ENDBRANCH  28  30
ENDBRANCH  19  28
ENDBRANCH  17  19
ENDBRANCH  15  17
ENDBRANCH   8  15
TORSDOF 9
ENDMDL
MODEL      147
REMARK 921   NORMALIZED FREE ENERGY PREDICTED BY IDOCK:   -4.52 KCAL/MOL
REMARK 922        TOTAL FREE ENERGY PREDICTED BY IDOCK:   -8.84 KCAL/MOL
REMARK 923 INTER-LIGAND FREE ENERGY PREDICTED BY IDOCK:   -7.37 KCAL/MOL
REMARK 924 INTRA-LIGAND FREE ENERGY PREDICTED BY IDOCK:   -1.47 KCAL/MOL
REMARK 927      BINDING AFFINITY PREDICTED BY RF-SCORE:    0.00 PKD
ROOT
ATOM      1  C   ALA A   1     -10.486  17.078  68.412  1.00  0.00    -0.370 C  
ATOM      2  C   ALA A   1     -10.727  16.299  69.694  1.00  0.00    -0.338 C  
ATOM      3  CA  ALA A   1     -10.360  14.868  69.270  1.00  0.00    -0.234 C  
ATOM      4  N   ALA A   1      -9.363  15.035  68.176  1.00  0.00    -0.184 N  
ATOM      5  C   ALA A   1     -11.616  14.114  68.830  1.00  0.00    -0.310 C  
ATOM      6  C   ALA A   1      -9.176  16.465  67.907  1.00  0.00    -0.202 C  
ATOM      7  O   ALA A   1     -11.761  14.032  67.489  1.00  0.00    -0.343 OA 
ATOM      8  C   ALA A   1      -8.350  14.114  67.883  1.00  0.00    -0.162 C  
ATOM      9  OXT ALA A   1     -12.440  13.669  69.616  1.00  0.00    -0.251 OA 
ATOM     10  C   ALA A   1     -10.384  18.587  68.533  1.00  0.00    -0.315 C  
ATOM     11  O   ALA A   1      -7.403  14.416  67.154  1.00  0.00    -0.115 OA 
ATOM     12  C   ALA A   1      -8.924  16.964  66.484  1.00  0.00    -0.303 C  
ATOM     13  C   ALA A   1     -10.036  19.184  67.166  1.00  0.00    -0.457 C  
ATOM     14  C   ALA A   1      -8.832  18.503  66.500  1.00  0.00    -0.301 C  
ENDROOT
BRANCH   8  15
ATOM     15  CA  ALA A   1      -8.445  12.692  68.543  1.00  0.00    -0.051 C  
ATOM     16  CB  ALA A   1      -7.105  12.334  69.194  1.00  0.00    -0.003 C  
BRANCH  15  17
ATOM     17  N   ALA A   1      -8.858  11.696  67.535  1.00  0.00    -0.154 NA 
ATOM     18  H   ALA A   1      -8.068  11.103  67.284  1.00  0.00     0.000 HD 
BRANCH  17  19
HETATM   19  C   UNK A   0     -10.024  10.860  67.910  1.00  0.00    -0.176 C  
BRANCH  19  20
HETATM   20  C   UNK A   0     -10.733  10.253  66.681  1.00  0.00    -0.183 C  
BRANCH  20  21
HETATM   21  C   UNK A   0     -10.275  10.864  65.347  1.00  0.00    -0.339 C  
BRANCH  21  22
HETATM   22  C   UNK A   0      -9.345   9.929  64.612  1.00  0.00    -0.338 A  
HETATM   23  C   UNK A   0      -8.774   8.829  65.265  1.00  0.00    -0.216 A  
HETATM   24  C   UNK A   0      -9.075  10.128  63.251  1.00  0.00    -0.293 A  
HETATM   25  C   UNK A   0      -7.936   7.954  64.574  1.00  0.00    -0.140 A  
HETATM   26  C   UNK A   0      -8.235   9.251  62.561  1.00  0.00    -0.158 A  
HETATM   27  C   UNK A   0      -7.665   8.165  63.222  1.00  0.00    -0.143 A  
ENDBRANCH  21  22
ENDBRANCH  20  21
ENDBRANCH  19  20
BRANCH  19  28
HETATM   28  C   UNK A   0      -9.548   9.715  68.829  1.00  0.00    -0.152 C  
HETATM   29  O   UNK A   0      -8.468   9.149  68.753  1.00  0.00    -0.126 OA 
BRANCH  28  30
HETATM   30  O   UNK A   0     -10.550   9.364  69.694  1.00  0.00    -0.210 OA 
BRANCH  30  31
HETATM   31  C   UNK A   0     -11.187  10.463  70.366  1.00  0.00    -0.321 C  
HETATM   32  C   UNK A   0     -12.284   9.901  71.256  1.00  0.00    -0.480 C  
ENDBRANCH  30  31
ENDBRANCH  28  30
ENDBRANCH  19  28
ENDBRANCH  17  19
ENDBRANCH  15  17
ENDBRANCH   8  15
TORSDOF 9
ENDMDL
MODEL      148
REMARK 921   NORMALIZED FREE ENERGY PREDICTED BY IDOCK:   -4.51 KCAL/MOL
REMARK 922        TOTAL FREE ENERGY PREDICTED BY IDOCK:   -8.83 KCAL/MOL
REMARK 923 INTER-LIGAND FREE ENERGY PREDICTED BY IDOCK:   -8.35 KCAL/MOL
REMARK 924 INTRA-LIGAND FREE ENERGY PREDICTED BY IDOCK:   -0.48 KCAL/MOL
REMARK 927      BINDING AFFINITY PREDICTED BY RF-SCORE:    0.00 PKD
ROOT
ATOM      1  C   ALA A   1      -8.909   8.727  68.964  1.00  0.00    -0.137 C  
ATOM      2  C   ALA A   1      -9.827   9.079  67.806  1.00  0.00    -0.209 C  
ATOM      3  CA  ALA A   1      -9.978  10.599  67.970  1.00  0.00    -0.160 C  
ATOM      4  N   ALA A   1      -8.723  11.040  68.639  1.00  0.00    -0.158 N  
ATOM      5  C   ALA A   1     -11.237  10.915  68.781  1.00  0.00    -0.270 C  
ATOM      6  C   ALA A   1      -7.887   9.868  68.919  1.00  0.00    -0.091 C  
ATOM      7  O   ALA A   1     -10.989  11.217  70.075  1.00  0.00    -0.180 OA 
ATOM      8  C   ALA A   1      -8.148  12.307  68.482  1.00  0.00    -0.101 C  
ATOM      9  OXT ALA A   1     -12.366  10.854  68.317  1.00  0.00    -0.400 OA 
ATOM     10  C   ALA A   1      -8.232   7.370  68.918  1.00  0.00    -0.129 C  
ATOM     11  O   ALA A   1      -6.989  12.531  68.839  1.00  0.00    -0.095 OA 
ATOM     12  C   ALA A   1      -7.033   9.803  70.185  1.00  0.00    -0.118 C  
ATOM     13  C   ALA A   1      -7.271   7.241  70.105  1.00  0.00    -0.074 C  
ATOM     14  C   ALA A   1      -6.320   8.438  70.242  1.00  0.00    -0.035 C  
ENDROOT
BRANCH   8  15
ATOM     15  CA  ALA A   1      -9.019  13.424  67.805  1.00  0.00    -0.205 C  
ATOM     16  CB  ALA A   1      -8.109  14.524  67.251  1.00  0.00    -0.219 C  
BRANCH  15  17
ATOM     17  N   ALA A   1     -10.003  13.949  68.772  1.00  0.00    -0.366 NA 
ATOM     18  H   ALA A   1      -9.577  14.677  69.345  1.00  0.00     0.000 HD 
BRANCH  17  19
HETATM   19  C   UNK A   0     -11.271  14.444  68.182  1.00  0.00    -0.281 C  
BRANCH  19  20
HETATM   20  C   UNK A   0     -11.486  15.952  68.427  1.00  0.00    -0.348 C  
BRANCH  20  21
HETATM   21  C   UNK A   0     -10.297  16.634  69.125  1.00  0.00    -0.326 C  
BRANCH  21  22
HETATM   22  C   UNK A   0      -9.866  17.873  68.378  1.00  0.00    -0.355 A  
HETATM   23  C   UNK A   0     -10.775  18.577  67.578  1.00  0.00    -0.419 A  
HETATM   24  C   UNK A   0      -8.558  18.359  68.512  1.00  0.00    -0.341 A  
HETATM   25  C   UNK A   0     -10.378  19.736  66.911  1.00  0.00    -0.601 A  
HETATM   26  C   UNK A   0      -8.163  19.518  67.843  1.00  0.00    -0.345 A  
HETATM   27  C   UNK A   0      -9.072  20.207  67.042  1.00  0.00    -0.481 A  
ENDBRANCH  21  22
ENDBRANCH  20  21
ENDBRANCH  19  20
BRANCH  19  28
HETATM   28  C   UNK A   0     -11.256  14.181  66.662  1.00  0.00    -0.325 C  
HETATM   29  O   UNK A   0     -10.734  14.900  65.824  1.00  0.00    -0.301 OA 
BRANCH  28  30
HETATM   30  O   UNK A   0     -11.990  13.061  66.375  1.00  0.00    -0.391 OA 
BRANCH  30  31
HETATM   31  C   UNK A   0     -12.628  13.065  65.087  1.00  0.00    -0.469 C  
HETATM   32  C   UNK A   0     -11.977  11.990  64.233  1.00  0.00    -0.424 C  
ENDBRANCH  30  31
ENDBRANCH  28  30
ENDBRANCH  19  28
ENDBRANCH  17  19
ENDBRANCH  15  17
ENDBRANCH   8  15
TORSDOF 9
ENDMDL
MODEL      149
REMARK 921   NORMALIZED FREE ENERGY PREDICTED BY IDOCK:   -4.51 KCAL/MOL
REMARK 922        TOTAL FREE ENERGY PREDICTED BY IDOCK:   -8.83 KCAL/MOL
REMARK 923 INTER-LIGAND FREE ENERGY PREDICTED BY IDOCK:   -8.26 KCAL/MOL
REMARK 924 INTRA-LIGAND FREE ENERGY PREDICTED BY IDOCK:   -0.57 KCAL/MOL
REMARK 927      BINDING AFFINITY PREDICTED BY RF-SCORE:    0.00 PKD
ROOT
ATOM      1  C   ALA A   1      -9.701   7.671  69.392  1.00  0.00    -0.165 C  
ATOM      2  C   ALA A   1      -9.654   8.828  70.375  1.00  0.00    -0.210 C  
ATOM      3  CA  ALA A   1      -9.058   9.953  69.515  1.00  0.00    -0.223 C  
ATOM      4  N   ALA A   1      -9.460   9.623  68.119  1.00  0.00    -0.132 N  
ATOM      5  C   ALA A   1      -7.541  10.011  69.707  1.00  0.00    -0.164 C  
ATOM      6  C   ALA A   1     -10.199   8.356  68.115  1.00  0.00    -0.208 C  
ATOM      7  O   ALA A   1      -6.843   9.436  68.704  1.00  0.00    -0.060 OA 
ATOM      8  C   ALA A   1      -9.665  10.574  67.112  1.00  0.00    -0.171 C  
ATOM      9  OXT ALA A   1      -7.009  10.488  70.700  1.00  0.00    -0.300 OA 
ATOM     10  C   ALA A   1     -10.572   6.486  69.764  1.00  0.00    -0.284 C  
ATOM     11  O   ALA A   1     -10.245  10.279  66.065  1.00  0.00    -0.253 OA 
ATOM     12  C   ALA A   1     -10.059   7.375  66.952  1.00  0.00    -0.327 C  
ATOM     13  C   ALA A   1     -10.576   5.476  68.611  1.00  0.00    -0.215 C  
ATOM     14  C   ALA A   1     -10.895   6.115  67.252  1.00  0.00    -0.438 C  
ENDROOT
BRANCH   8  15
ATOM     15  CA  ALA A   1      -9.161  12.037  67.376  1.00  0.00    -0.178 C  
ATOM     16  CB  ALA A   1      -7.639  12.096  67.215  1.00  0.00    -0.156 C  
BRANCH  15  17
ATOM     17  N   ALA A   1      -9.598  12.486  68.713  1.00  0.00    -0.410 NA 
ATOM     18  H   ALA A   1      -8.855  13.021  69.163  1.00  0.00     0.000 HD 
BRANCH  17  19
HETATM   19  C   UNK A   0     -10.867  13.254  68.741  1.00  0.00    -0.243 C  
BRANCH  19  20
HETATM   20  C   UNK A   0     -11.483  13.425  67.337  1.00  0.00    -0.368 C  
BRANCH  20  21
HETATM   21  C   UNK A   0     -11.740  14.892  66.955  1.00  0.00    -0.260 C  
BRANCH  21  22
HETATM   22  C   UNK A   0     -10.490  15.722  67.117  1.00  0.00    -0.309 A  
HETATM   23  C   UNK A   0      -9.406  15.560  66.246  1.00  0.00    -0.355 A  
HETATM   24  C   UNK A   0     -10.417  16.700  68.119  1.00  0.00    -0.321 A  
HETATM   25  C   UNK A   0      -8.263  16.348  66.385  1.00  0.00    -0.366 A  
HETATM   26  C   UNK A   0      -9.272  17.487  68.257  1.00  0.00    -0.277 A  
HETATM   27  C   UNK A   0      -8.196  17.311  67.391  1.00  0.00    -0.204 A  
ENDBRANCH  21  22
ENDBRANCH  20  21
ENDBRANCH  19  20
BRANCH  19  28
HETATM   28  C   UNK A   0     -11.880  12.521  69.646  1.00  0.00    -0.314 C  
HETATM   29  O   UNK A   0     -12.072  11.316  69.660  1.00  0.00    -0.315 OA 
BRANCH  28  30
HETATM   30  O   UNK A   0     -12.596  13.432  70.376  1.00  0.00    -0.259 OA 
BRANCH  30  31
HETATM   31  C   UNK A   0     -11.808  14.406  71.079  1.00  0.00    -0.270 C  
HETATM   32  C   UNK A   0     -12.617  15.688  71.179  1.00  0.00    -0.511 C  
ENDBRANCH  30  31
ENDBRANCH  28  30
ENDBRANCH  19  28
ENDBRANCH  17  19
ENDBRANCH  15  17
ENDBRANCH   8  15
TORSDOF 9
ENDMDL
MODEL      150
REMARK 921   NORMALIZED FREE ENERGY PREDICTED BY IDOCK:   -4.47 KCAL/MOL
REMARK 922        TOTAL FREE ENERGY PREDICTED BY IDOCK:   -8.77 KCAL/MOL
REMARK 923 INTER-LIGAND FREE ENERGY PREDICTED BY IDOCK:   -9.21 KCAL/MOL
REMARK 924 INTRA-LIGAND FREE ENERGY PREDICTED BY IDOCK:    0.44 KCAL/MOL
REMARK 927      BINDING AFFINITY PREDICTED BY RF-SCORE:    0.00 PKD
ROOT
ATOM      1  C   ALA A   1     -12.364  14.953  70.495  1.00  0.00    -0.400 C  
ATOM      2  C   ALA A   1     -12.222  15.633  69.144  1.00  0.00    -0.149 C  
ATOM      3  CA  ALA A   1     -11.400  14.603  68.354  1.00  0.00    -0.292 C  
ATOM      4  N   ALA A   1     -11.737  13.289  68.969  1.00  0.00    -0.302 N  
ATOM      5  C   ALA A   1      -9.912  14.945  68.439  1.00  0.00    -0.222 C  
ATOM      6  C   ALA A   1     -12.653  13.503  70.094  1.00  0.00    -0.112 C  
ATOM      7  O   ALA A   1      -9.230  14.191  69.330  1.00  0.00     0.122 OA 
ATOM      8  C   ALA A   1     -11.719  12.069  68.284  1.00  0.00    -0.334 C  
ATOM      9  OXT ALA A   1      -9.394  15.849  67.799  1.00  0.00    -0.205 OA 
ATOM     10  C   ALA A   1     -13.427  15.495  71.431  1.00  0.00    -0.583 C  
ATOM     11  O   ALA A   1     -12.252  11.063  68.756  1.00  0.00    -0.546 OA 
ATOM     12  C   ALA A   1     -12.570  12.629  71.345  1.00  0.00    -0.304 C  
ATOM     13  C   ALA A   1     -13.492  14.622  72.688  1.00  0.00    -0.580 C  
ATOM     14  C   ALA A   1     -13.605  13.123  72.375  1.00  0.00    -0.667 C  
ENDROOT
BRANCH   8  15
ATOM     15  CA  ALA A   1     -11.025  12.034  66.875  1.00  0.00    -0.281 C  
ATOM     16  CB  ALA A   1      -9.504  12.071  67.048  1.00  0.00    -0.199 C  
BRANCH  15  17
ATOM     17  N   ALA A   1     -11.519  13.148  66.043  1.00  0.00    -0.323 NA 
ATOM     18  H   ALA A   1     -11.257  14.040  66.461  1.00  0.00     0.000 HD 
BRANCH  17  19
HETATM   19  C   UNK A   0     -11.101  13.111  64.620  1.00  0.00    -0.345 C  
BRANCH  19  20
HETATM   20  C   UNK A   0     -11.022  11.672  64.067  1.00  0.00    -0.456 C  
BRANCH  20  21
HETATM   21  C   UNK A   0      -9.918  11.481  63.015  1.00  0.00    -0.352 C  
BRANCH  21  22
HETATM   22  C   UNK A   0      -8.968  10.380  63.418  1.00  0.00    -0.240 A  
HETATM   23  C   UNK A   0      -9.236   9.576  64.533  1.00  0.00    -0.223 A  
HETATM   24  C   UNK A   0      -7.823  10.119  62.652  1.00  0.00    -0.148 A  
HETATM   25  C   UNK A   0      -8.368   8.543  64.885  1.00  0.00    -0.171 A  
HETATM   26  C   UNK A   0      -6.954   9.086  63.007  1.00  0.00    -0.088 A  
HETATM   27  C   UNK A   0      -7.226   8.298  64.123  1.00  0.00    -0.089 A  
ENDBRANCH  21  22
ENDBRANCH  20  21
ENDBRANCH  19  20
BRANCH  19  28
HETATM   28  C   UNK A   0     -12.113  13.916  63.777  1.00  0.00    -0.285 C  
HETATM   29  O   UNK A   0     -12.786  13.467  62.862  1.00  0.00    -0.569 OA 
BRANCH  28  30
HETATM   30  O   UNK A   0     -12.085  15.233  64.147  1.00  0.00    -0.554 OA 
BRANCH  30  31
HETATM   31  C   UNK A   0     -10.842  15.680  64.715  1.00  0.00    -0.355 C  
HETATM   32  C   UNK A   0     -11.019  17.120  65.167  1.00  0.00     0.044 C  
ENDBRANCH  30  31
ENDBRANCH  28  30
ENDBRANCH  19  28
ENDBRANCH  17  19
ENDBRANCH  15  17
ENDBRANCH   8  15
TORSDOF 9
ENDMDL
MODEL      151
REMARK 921   NORMALIZED FREE ENERGY PREDICTED BY IDOCK:   -4.46 KCAL/MOL
REMARK 922        TOTAL FREE ENERGY PREDICTED BY IDOCK:   -8.75 KCAL/MOL
REMARK 923 INTER-LIGAND FREE ENERGY PREDICTED BY IDOCK:   -7.18 KCAL/MOL
REMARK 924 INTRA-LIGAND FREE ENERGY PREDICTED BY IDOCK:   -1.57 KCAL/MOL
REMARK 927      BINDING AFFINITY PREDICTED BY RF-SCORE:    0.00 PKD
ROOT
ATOM      1  C   ALA A   1      -8.663   6.253  66.498  1.00  0.00    -0.131 C  
ATOM      2  C   ALA A   1      -7.770   7.238  65.764  1.00  0.00    -0.099 C  
ATOM      3  CA  ALA A   1      -8.140   8.568  66.439  1.00  0.00    -0.103 C  
ATOM      4  N   ALA A   1      -8.582   8.192  67.810  1.00  0.00    -0.131 N  
ATOM      5  C   ALA A   1      -9.226   9.281  65.630  1.00  0.00    -0.231 C  
ATOM      6  C   ALA A   1      -8.542   6.733  67.949  1.00  0.00    -0.122 C  
ATOM      7  O   ALA A   1     -10.466   9.149  66.148  1.00  0.00    -0.141 OA 
ATOM      8  C   ALA A   1      -8.460   9.020  68.933  1.00  0.00    -0.130 C  
ATOM      9  OXT ALA A   1      -9.001   9.875  64.585  1.00  0.00    -0.188 OA 
ATOM     10  C   ALA A   1      -8.318   4.782  66.368  1.00  0.00    -0.107 C  
ATOM     11  O   ALA A   1      -8.594   8.573  70.074  1.00  0.00    -0.128 OA 
ATOM     12  C   ALA A   1      -9.588   6.001  68.789  1.00  0.00    -0.148 C  
ATOM     13  C   ALA A   1      -9.256   3.959  67.256  1.00  0.00    -0.200 C  
ATOM     14  C   ALA A   1      -9.334   4.483  68.698  1.00  0.00    -0.199 C  
ENDROOT
BRANCH   8  15
ATOM     15  CA  ALA A   1      -8.116  10.533  68.690  1.00  0.00    -0.127 C  
ATOM     16  CB  ALA A   1      -6.775  10.870  69.350  1.00  0.00    -0.107 C  
BRANCH  15  17
ATOM     17  N   ALA A   1      -9.213  11.385  69.189  1.00  0.00    -0.404 NA 
ATOM     18  H   ALA A   1      -8.833  12.227  69.621  1.00  0.00     0.000 HD 
BRANCH  17  19
HETATM   19  C   UNK A   0     -10.241  11.749  68.183  1.00  0.00    -0.203 C  
BRANCH  19  20
HETATM   20  C   UNK A   0     -11.677  11.525  68.703  1.00  0.00    -0.389 C  
BRANCH  20  21
HETATM   21  C   UNK A   0     -11.800  11.640  70.231  1.00  0.00    -0.414 C  
BRANCH  21  22
HETATM   22  C   UNK A   0     -12.374  10.379  70.827  1.00  0.00    -0.463 A  
HETATM   23  C   UNK A   0     -11.759   9.140  70.608  1.00  0.00    -0.256 A  
HETATM   24  C   UNK A   0     -13.512  10.438  71.645  1.00  0.00    -0.335 A  
HETATM   25  C   UNK A   0     -12.280   7.981  71.182  1.00  0.00    -0.262 A  
HETATM   26  C   UNK A   0     -14.032   9.277  72.218  1.00  0.00    -0.439 A  
HETATM   27  C   UNK A   0     -13.418   8.048  71.986  1.00  0.00    -0.275 A  
ENDBRANCH  21  22
ENDBRANCH  20  21
ENDBRANCH  19  20
BRANCH  19  28
HETATM   28  C   UNK A   0     -10.072  13.235  67.804  1.00  0.00    -0.229 C  
HETATM   29  O   UNK A   0      -9.291  14.015  68.328  1.00  0.00    -0.199 OA 
BRANCH  28  30
HETATM   30  O   UNK A   0     -10.990  13.580  66.848  1.00  0.00    -0.283 OA 
BRANCH  30  31
HETATM   31  C   UNK A   0     -11.125  14.992  66.614  1.00  0.00    -0.326 C  
HETATM   32  C   UNK A   0     -11.085  15.228  65.113  1.00  0.00    -0.412 C  
ENDBRANCH  30  31
ENDBRANCH  28  30
ENDBRANCH  19  28
ENDBRANCH  17  19
ENDBRANCH  15  17
ENDBRANCH   8  15
TORSDOF 9
ENDMDL
MODEL      152
REMARK 921   NORMALIZED FREE ENERGY PREDICTED BY IDOCK:   -4.45 KCAL/MOL
REMARK 922        TOTAL FREE ENERGY PREDICTED BY IDOCK:   -8.73 KCAL/MOL
REMARK 923 INTER-LIGAND FREE ENERGY PREDICTED BY IDOCK:   -9.24 KCAL/MOL
REMARK 924 INTRA-LIGAND FREE ENERGY PREDICTED BY IDOCK:    0.51 KCAL/MOL
REMARK 927      BINDING AFFINITY PREDICTED BY RF-SCORE:    0.00 PKD
ROOT
ATOM      1  C   ALA A   1     -10.410  11.138  65.174  1.00  0.00    -0.354 C  
ATOM      2  C   ALA A   1     -10.105  12.255  64.190  1.00  0.00    -0.329 C  
ATOM      3  CA  ALA A   1     -10.774  13.463  64.863  1.00  0.00    -0.369 C  
ATOM      4  N   ALA A   1     -10.753  13.153  66.319  1.00  0.00    -0.282 N  
ATOM      5  C   ALA A   1     -12.188  13.654  64.308  1.00  0.00    -0.396 C  
ATOM      6  C   ALA A   1     -10.166  11.825  66.522  1.00  0.00    -0.208 C  
ATOM      7  O   ALA A   1     -13.160  13.186  65.122  1.00  0.00    -0.703 OA 
ATOM      8  C   ALA A   1     -10.701  14.120  67.331  1.00  0.00    -0.284 C  
ATOM      9  OXT ALA A   1     -12.416  14.139  63.209  1.00  0.00    -0.758 OA 
ATOM     10  C   ALA A   1      -9.597   9.864  65.043  1.00  0.00    -0.364 C  
ATOM     11  O   ALA A   1     -10.422  13.815  68.492  1.00  0.00    -0.235 OA 
ATOM     12  C   ALA A   1     -10.677  10.908  67.633  1.00  0.00    -0.288 C  
ATOM     13  C   ALA A   1      -9.969   8.904  66.178  1.00  0.00    -0.290 C  
ATOM     14  C   ALA A   1      -9.923   9.565  67.564  1.00  0.00    -0.235 C  
ENDROOT
BRANCH   8  15
ATOM     15  CA  ALA A   1     -10.980  15.612  66.929  1.00  0.00    -0.243 C  
ATOM     16  CB  ALA A   1      -9.901  16.095  65.955  1.00  0.00    -0.384 C  
BRANCH  15  17
ATOM     17  N   ALA A   1     -11.055  16.454  68.140  1.00  0.00    -0.346 NA 
ATOM     18  H   ALA A   1     -11.288  15.881  68.950  1.00  0.00     0.000 HD 
BRANCH  17  19
HETATM   19  C   UNK A   0      -9.847  17.268  68.422  1.00  0.00    -0.309 C  
BRANCH  19  20
HETATM   20  C   UNK A   0      -8.551  16.587  67.937  1.00  0.00    -0.183 C  
BRANCH  20  21
HETATM   21  C   UNK A   0      -7.607  16.181  69.081  1.00  0.00    -0.230 C  
BRANCH  21  22
HETATM   22  C   UNK A   0      -7.104  14.771  68.897  1.00  0.00    -0.118 A  
HETATM   23  C   UNK A   0      -7.150  14.154  67.640  1.00  0.00    -0.199 A  
HETATM   24  C   UNK A   0      -6.543  14.074  69.977  1.00  0.00    -0.025 A  
HETATM   25  C   UNK A   0      -6.659  12.859  67.470  1.00  0.00    -0.160 A  
HETATM   26  C   UNK A   0      -6.054  12.778  69.805  1.00  0.00    -0.131 A  
HETATM   27  C   UNK A   0      -6.112  12.170  68.553  1.00  0.00    -0.051 A  
ENDBRANCH  21  22
ENDBRANCH  20  21
ENDBRANCH  19  20
BRANCH  19  28
HETATM   28  C   UNK A   0      -9.987  18.636  67.720  1.00  0.00    -0.346 C  
HETATM   29  O   UNK A   0     -11.034  19.128  67.331  1.00  0.00    -0.475 OA 
BRANCH  28  30
HETATM   30  O   UNK A   0      -8.748  19.184  67.518  1.00  0.00    -0.286 OA 
BRANCH  30  31
HETATM   31  C   UNK A   0      -8.537  19.748  66.213  1.00  0.00    -0.364 C  
HETATM   32  C   UNK A   0      -7.169  19.306  65.722  1.00  0.00    -0.289 C  
ENDBRANCH  30  31
ENDBRANCH  28  30
ENDBRANCH  19  28
ENDBRANCH  17  19
ENDBRANCH  15  17
ENDBRANCH   8  15
TORSDOF 9
ENDMDL
MODEL      153
REMARK 921   NORMALIZED FREE ENERGY PREDICTED BY IDOCK:   -4.44 KCAL/MOL
REMARK 922        TOTAL FREE ENERGY PREDICTED BY IDOCK:   -8.72 KCAL/MOL
REMARK 923 INTER-LIGAND FREE ENERGY PREDICTED BY IDOCK:   -8.16 KCAL/MOL
REMARK 924 INTRA-LIGAND FREE ENERGY PREDICTED BY IDOCK:   -0.56 KCAL/MOL
REMARK 927      BINDING AFFINITY PREDICTED BY RF-SCORE:    0.00 PKD
ROOT
ATOM      1  C   ALA A   1      -8.313   9.266  65.998  1.00  0.00    -0.117 C  
ATOM      2  C   ALA A   1      -9.821   9.149  66.144  1.00  0.00    -0.363 C  
ATOM      3  CA  ALA A   1      -9.961   8.598  67.571  1.00  0.00    -0.199 C  
ATOM      4  N   ALA A   1      -8.754   9.089  68.292  1.00  0.00    -0.130 N  
ATOM      5  C   ALA A   1     -10.063   7.072  67.536  1.00  0.00    -0.185 C  
ATOM      6  C   ALA A   1      -7.904   9.837  67.360  1.00  0.00    -0.099 C  
ATOM      7  O   ALA A   1      -8.909   6.441  67.849  1.00  0.00    -0.115 OA 
ATOM      8  C   ALA A   1      -8.707   9.348  69.668  1.00  0.00    -0.167 C  
ATOM      9  OXT ALA A   1     -11.078   6.475  67.207  1.00  0.00    -0.378 OA 
ATOM     10  C   ALA A   1      -7.796  10.122  64.858  1.00  0.00    -0.147 C  
ATOM     11  O   ALA A   1      -7.782   9.993  70.165  1.00  0.00    -0.171 OA 
ATOM     12  C   ALA A   1      -6.381   9.777  67.473  1.00  0.00    -0.064 C  
ATOM     13  C   ALA A   1      -6.268  10.206  64.936  1.00  0.00    -0.125 C  
ATOM     14  C   ALA A   1      -5.759  10.603  66.330  1.00  0.00    -0.098 C  
ENDROOT
BRANCH   8  15
ATOM     15  CA  ALA A   1      -9.891   8.816  70.551  1.00  0.00    -0.188 C  
ATOM     16  CB  ALA A   1      -9.773   7.298  70.714  1.00  0.00    -0.171 C  
BRANCH  15  17
ATOM     17  N   ALA A   1     -11.182   9.214  69.955  1.00  0.00    -0.402 NA 
ATOM     18  H   ALA A   1     -11.903   8.535  70.195  1.00  0.00     0.000 HD 
BRANCH  17  19
HETATM   19  C   UNK A   0     -11.640  10.584  70.291  1.00  0.00    -0.332 C  
BRANCH  19  20
HETATM   20  C   UNK A   0     -12.278  11.304  69.084  1.00  0.00    -0.251 C  
BRANCH  20  21
HETATM   21  C   UNK A   0     -11.820  12.764  68.930  1.00  0.00    -0.351 C  
BRANCH  21  22
HETATM   22  C   UNK A   0     -11.425  13.063  67.505  1.00  0.00    -0.375 A  
HETATM   23  C   UNK A   0     -12.216  13.895  66.703  1.00  0.00    -0.465 A  
HETATM   24  C   UNK A   0     -10.235  12.542  66.977  1.00  0.00    -0.231 A  
HETATM   25  C   UNK A   0     -11.833  14.189  65.395  1.00  0.00    -0.362 A  
HETATM   26  C   UNK A   0      -9.854  12.836  65.667  1.00  0.00    -0.190 A  
HETATM   27  C   UNK A   0     -10.653  13.658  64.875  1.00  0.00    -0.421 A  
ENDBRANCH  21  22
ENDBRANCH  20  21
ENDBRANCH  19  20
BRANCH  19  28
HETATM   28  C   UNK A   0     -12.678  10.503  71.430  1.00  0.00    -0.442 C  
HETATM   29  O   UNK A   0     -13.139  11.458  72.036  1.00  0.00    -0.487 OA 
BRANCH  28  30
HETATM   30  O   UNK A   0     -12.946   9.193  71.724  1.00  0.00    -0.332 OA 
BRANCH  30  31
HETATM   31  C   UNK A   0     -14.282   8.761  71.418  1.00  0.00    -0.223 C  
HETATM   32  C   UNK A   0     -14.365   7.264  71.667  1.00  0.00    -0.583 C  
ENDBRANCH  30  31
ENDBRANCH  28  30
ENDBRANCH  19  28
ENDBRANCH  17  19
ENDBRANCH  15  17
ENDBRANCH   8  15
TORSDOF 9
ENDMDL
MODEL      154
REMARK 921   NORMALIZED FREE ENERGY PREDICTED BY IDOCK:   -4.43 KCAL/MOL
REMARK 922        TOTAL FREE ENERGY PREDICTED BY IDOCK:   -8.71 KCAL/MOL
REMARK 923 INTER-LIGAND FREE ENERGY PREDICTED BY IDOCK:   -7.35 KCAL/MOL
REMARK 924 INTRA-LIGAND FREE ENERGY PREDICTED BY IDOCK:   -1.36 KCAL/MOL
REMARK 927      BINDING AFFINITY PREDICTED BY RF-SCORE:    0.00 PKD
ROOT
ATOM      1  C   ALA A   1     -10.476   6.303  72.165  1.00  0.00    -0.228 C  
ATOM      2  C   ALA A   1     -11.739   6.420  71.329  1.00  0.00    -0.359 C  
ATOM      3  CA  ALA A   1     -11.391   7.585  70.388  1.00  0.00    -0.233 C  
ATOM      4  N   ALA A   1      -9.908   7.547  70.262  1.00  0.00    -0.183 N  
ATOM      5  C   ALA A   1     -11.913   8.900  70.969  1.00  0.00    -0.261 C  
ATOM      6  C   ALA A   1      -9.378   6.474  71.110  1.00  0.00    -0.163 C  
ATOM      7  O   ALA A   1     -10.961   9.646  71.571  1.00  0.00    -0.348 OA 
ATOM      8  C   ALA A   1      -9.200   7.983  69.135  1.00  0.00    -0.151 C  
ATOM      9  OXT ALA A   1     -13.091   9.227  70.937  1.00  0.00    -0.163 OA 
ATOM     10  C   ALA A   1     -10.292   5.024  72.958  1.00  0.00    -0.233 C  
ATOM     11  O   ALA A   1      -8.014   7.691  68.974  1.00  0.00    -0.117 OA 
ATOM     12  C   ALA A   1      -8.038   6.637  71.827  1.00  0.00    -0.103 C  
ATOM     13  C   ALA A   1      -8.923   5.045  73.647  1.00  0.00    -0.117 C  
ATOM     14  C   ALA A   1      -7.773   5.387  72.689  1.00  0.00    -0.099 C  
ENDROOT
BRANCH   8  15
ATOM     15  CA  ALA A   1      -9.980   8.830  68.067  1.00  0.00    -0.182 C  
ATOM     16  CB  ALA A   1     -10.410   7.929  66.906  1.00  0.00    -0.400 C  
BRANCH  15  17
ATOM     17  N   ALA A   1      -9.146   9.961  67.616  1.00  0.00    -0.131 NA 
ATOM     18  H   ALA A   1      -8.479   9.646  66.912  1.00  0.00     0.000 HD 
BRANCH  17  19
HETATM   19  C   UNK A   0      -9.894  11.141  67.115  1.00  0.00    -0.187 C  
BRANCH  19  20
HETATM   20  C   UNK A   0      -9.276  12.473  67.588  1.00  0.00    -0.190 C  
BRANCH  20  21
HETATM   21  C   UNK A   0     -10.305  13.446  68.187  1.00  0.00    -0.249 C  
BRANCH  21  22
HETATM   22  C   UNK A   0     -10.116  14.841  67.644  1.00  0.00    -0.227 A  
HETATM   23  C   UNK A   0     -10.661  15.947  68.308  1.00  0.00    -0.276 A  
HETATM   24  C   UNK A   0      -9.352  15.050  66.486  1.00  0.00    -0.309 A  
HETATM   25  C   UNK A   0     -10.460  17.236  67.814  1.00  0.00    -0.371 A  
HETATM   26  C   UNK A   0      -9.154  16.341  65.994  1.00  0.00    -0.332 A  
HETATM   27  C   UNK A   0      -9.708  17.434  66.657  1.00  0.00    -0.296 A  
ENDBRANCH  21  22
ENDBRANCH  20  21
ENDBRANCH  19  20
BRANCH  19  28
HETATM   28  C   UNK A   0      -9.903  11.114  65.572  1.00  0.00    -0.235 C  
HETATM   29  O   UNK A   0      -8.912  11.067  64.859  1.00  0.00    -0.179 OA 
BRANCH  28  30
HETATM   30  O   UNK A   0     -11.187  11.236  65.111  1.00  0.00    -0.144 OA 
BRANCH  30  31
HETATM   31  C   UNK A   0     -11.485  12.484  64.464  1.00  0.00    -0.337 C  
HETATM   32  C   UNK A   0     -12.485  13.237  65.325  1.00  0.00    -0.543 C  
ENDBRANCH  30  31
ENDBRANCH  28  30
ENDBRANCH  19  28
ENDBRANCH  17  19
ENDBRANCH  15  17
ENDBRANCH   8  15
TORSDOF 9
ENDMDL
MODEL      155
REMARK 921   NORMALIZED FREE ENERGY PREDICTED BY IDOCK:   -4.42 KCAL/MOL
REMARK 922        TOTAL FREE ENERGY PREDICTED BY IDOCK:   -8.70 KCAL/MOL
REMARK 923 INTER-LIGAND FREE ENERGY PREDICTED BY IDOCK:   -7.44 KCAL/MOL
REMARK 924 INTRA-LIGAND FREE ENERGY PREDICTED BY IDOCK:   -1.26 KCAL/MOL
REMARK 927      BINDING AFFINITY PREDICTED BY RF-SCORE:    0.00 PKD
ROOT
ATOM      1  C   ALA A   1     -10.493  15.030  65.996  1.00  0.00    -0.326 C  
ATOM      2  C   ALA A   1     -11.993  14.832  66.129  1.00  0.00    -0.156 C  
ATOM      3  CA  ALA A   1     -12.085  13.345  66.507  1.00  0.00    -0.388 C  
ATOM      4  N   ALA A   1     -10.802  13.046  67.202  1.00  0.00    -0.257 N  
ATOM      5  C   ALA A   1     -12.302  12.499  65.251  1.00  0.00    -0.403 C  
ATOM      6  C   ALA A   1      -9.959  14.245  67.199  1.00  0.00    -0.255 C  
ATOM      7  O   ALA A   1     -11.181  11.889  64.805  1.00  0.00    -0.308 OA 
ATOM      8  C   ALA A   1     -10.652  12.068  68.193  1.00  0.00    -0.210 C  
ATOM      9  OXT ALA A   1     -13.378  12.418  64.675  1.00  0.00    -0.778 OA 
ATOM     10  C   ALA A   1      -9.985  16.459  65.994  1.00  0.00    -0.369 C  
ATOM     11  O   ALA A   1      -9.652  12.039  68.914  1.00  0.00    -0.053 OA 
ATOM     12  C   ALA A   1      -8.440  14.131  67.068  1.00  0.00    -0.178 C  
ATOM     13  C   ALA A   1      -8.453  16.455  65.961  1.00  0.00    -0.205 C  
ATOM     14  C   ALA A   1      -7.830  15.546  67.030  1.00  0.00    -0.260 C  
ENDROOT
BRANCH   8  15
ATOM     15  CA  ALA A   1     -11.815  11.030  68.377  1.00  0.00    -0.184 C  
ATOM     16  CB  ALA A   1     -12.350  11.102  69.811  1.00  0.00    -0.315 C  
BRANCH  15  17
ATOM     17  N   ALA A   1     -11.343   9.677  68.025  1.00  0.00    -0.485 NA 
ATOM     18  H   ALA A   1     -10.745   9.719  67.200  1.00  0.00     0.000 HD 
BRANCH  17  19
HETATM   19  C   UNK A   0     -10.656   8.941  69.114  1.00  0.00    -0.195 C  
BRANCH  19  20
HETATM   20  C   UNK A   0     -11.361   7.613  69.462  1.00  0.00     0.173 C  
BRANCH  20  21
HETATM   21  C   UNK A   0     -10.866   6.983  70.775  1.00  0.00    -0.272 C  
BRANCH  21  22
HETATM   22  C   UNK A   0     -10.403   5.563  70.556  1.00  0.00    -0.342 A  
HETATM   23  C   UNK A   0      -9.966   5.140  69.294  1.00  0.00    -0.280 A  
HETATM   24  C   UNK A   0     -10.365   4.659  71.627  1.00  0.00    -0.189 A  
HETATM   25  C   UNK A   0      -9.516   3.834  69.103  1.00  0.00    -0.242 A  
HETATM   26  C   UNK A   0      -9.915   3.352  71.433  1.00  0.00    -0.135 A  
HETATM   27  C   UNK A   0      -9.491   2.939  70.172  1.00  0.00    -0.198 A  
ENDBRANCH  21  22
ENDBRANCH  20  21
ENDBRANCH  19  20
BRANCH  19  28
HETATM   28  C   UNK A   0      -9.206   8.639  68.683  1.00  0.00    -0.138 C  
HETATM   29  O   UNK A   0      -8.282   8.382  69.439  1.00  0.00    -0.112 OA 
BRANCH  28  30
HETATM   30  O   UNK A   0      -9.082   8.787  67.327  1.00  0.00    -0.130 OA 
BRANCH  30  31
HETATM   31  C   UNK A   0      -7.925   9.521  66.897  1.00  0.00    -0.109 C  
HETATM   32  C   UNK A   0      -8.101   9.865  65.428  1.00  0.00    -0.137 C  
ENDBRANCH  30  31
ENDBRANCH  28  30
ENDBRANCH  19  28
ENDBRANCH  17  19
ENDBRANCH  15  17
ENDBRANCH   8  15
TORSDOF 9
ENDMDL
MODEL      156
REMARK 921   NORMALIZED FREE ENERGY PREDICTED BY IDOCK:   -4.42 KCAL/MOL
REMARK 922        TOTAL FREE ENERGY PREDICTED BY IDOCK:   -8.69 KCAL/MOL
REMARK 923 INTER-LIGAND FREE ENERGY PREDICTED BY IDOCK:   -7.13 KCAL/MOL
REMARK 924 INTRA-LIGAND FREE ENERGY PREDICTED BY IDOCK:   -1.56 KCAL/MOL
REMARK 927      BINDING AFFINITY PREDICTED BY RF-SCORE:    0.00 PKD
ROOT
ATOM      1  C   ALA A   1      -7.425  18.315  67.246  1.00  0.00    -0.222 C  
ATOM      2  C   ALA A   1      -6.464  17.327  66.607  1.00  0.00    -0.263 C  
ATOM      3  CA  ALA A   1      -7.256  16.013  66.692  1.00  0.00     0.011 C  
ATOM      4  N   ALA A   1      -8.687  16.425  66.676  1.00  0.00    -0.229 N  
ATOM      5  C   ALA A   1      -6.863  15.246  67.956  1.00  0.00    -0.140 C  
ATOM      6  C   ALA A   1      -8.769  17.889  66.644  1.00  0.00    -0.262 C  
ATOM      7  O   ALA A   1      -7.754  15.366  68.965  1.00  0.00    -0.153 OA 
ATOM      8  C   ALA A   1      -9.729  15.640  66.168  1.00  0.00    -0.318 C  
ATOM      9  OXT ALA A   1      -5.816  14.623  68.064  1.00  0.00    -0.129 OA 
ATOM     10  C   ALA A   1      -7.153  19.789  67.013  1.00  0.00    -0.240 C  
ATOM     11  O   ALA A   1     -10.839  16.123  65.938  1.00  0.00    -0.277 OA 
ATOM     12  C   ALA A   1      -9.886  18.624  67.384  1.00  0.00    -0.347 C  
ATOM     13  C   ALA A   1      -8.279  20.620  67.639  1.00  0.00    -0.192 C  
ATOM     14  C   ALA A   1      -9.679  20.144  67.226  1.00  0.00    -0.574 C  
ENDROOT
BRANCH   8  15
ATOM     15  CA  ALA A   1      -9.424  14.128  65.870  1.00  0.00    -0.098 C  
ATOM     16  CB  ALA A   1     -10.345  13.626  64.753  1.00  0.00    -0.414 C  
BRANCH  15  17
ATOM     17  N   ALA A   1      -9.561  13.333  67.106  1.00  0.00    -0.232 NA 
ATOM     18  H   ALA A   1      -9.881  13.928  67.870  1.00  0.00     0.000 HD 
BRANCH  17  19
HETATM   19  C   UNK A   0     -10.428  12.134  66.996  1.00  0.00    -0.220 C  
BRANCH  19  20
HETATM   20  C   UNK A   0      -9.618  10.821  66.996  1.00  0.00    -0.195 C  
BRANCH  20  21
HETATM   21  C   UNK A   0      -9.691  10.057  65.664  1.00  0.00    -0.336 C  
BRANCH  21  22
HETATM   22  C   UNK A   0      -8.322   9.600  65.223  1.00  0.00    -0.139 A  
HETATM   23  C   UNK A   0      -7.664  10.234  64.162  1.00  0.00    -0.097 A  
HETATM   24  C   UNK A   0      -7.673   8.559  65.901  1.00  0.00    -0.097 A  
HETATM   25  C   UNK A   0      -6.388   9.824  63.776  1.00  0.00    -0.118 A  
HETATM   26  C   UNK A   0      -6.396   8.149  65.512  1.00  0.00    -0.048 A  
HETATM   27  C   UNK A   0      -5.754   8.781  64.450  1.00  0.00    -0.064 A  
ENDBRANCH  21  22
ENDBRANCH  20  21
ENDBRANCH  19  20
BRANCH  19  28
HETATM   28  C   UNK A   0     -11.413  12.114  68.184  1.00  0.00    -0.317 C  
HETATM   29  O   UNK A   0     -12.285  11.279  68.365  1.00  0.00    -0.604 OA 
BRANCH  28  30
HETATM   30  O   UNK A   0     -11.224  13.223  68.965  1.00  0.00    -0.256 OA 
BRANCH  30  31
HETATM   31  C   UNK A   0     -12.196  14.266  68.787  1.00  0.00    -0.190 C  
HETATM   32  C   UNK A   0     -11.602  15.561  69.317  1.00  0.00    -0.369 C  
ENDBRANCH  30  31
ENDBRANCH  28  30
ENDBRANCH  19  28
ENDBRANCH  17  19
ENDBRANCH  15  17
ENDBRANCH   8  15
TORSDOF 9
ENDMDL
MODEL      157
REMARK 921   NORMALIZED FREE ENERGY PREDICTED BY IDOCK:   -4.40 KCAL/MOL
REMARK 922        TOTAL FREE ENERGY PREDICTED BY IDOCK:   -8.66 KCAL/MOL
REMARK 923 INTER-LIGAND FREE ENERGY PREDICTED BY IDOCK:   -6.83 KCAL/MOL
REMARK 924 INTRA-LIGAND FREE ENERGY PREDICTED BY IDOCK:   -1.83 KCAL/MOL
REMARK 927      BINDING AFFINITY PREDICTED BY RF-SCORE:    0.00 PKD
ROOT
ATOM      1  C   ALA A   1      -8.733   5.269  73.277  1.00  0.00    -0.115 C  
ATOM      2  C   ALA A   1      -8.747   6.641  73.930  1.00  0.00    -0.158 C  
ATOM      3  CA  ALA A   1      -9.258   7.532  72.787  1.00  0.00    -0.159 C  
ATOM      4  N   ALA A   1     -10.093   6.633  71.943  1.00  0.00    -0.182 N  
ATOM      5  C   ALA A   1      -8.076   8.143  72.031  1.00  0.00    -0.138 C  
ATOM      6  C   ALA A   1     -10.051   5.275  72.494  1.00  0.00    -0.181 C  
ATOM      7  O   ALA A   1      -7.795   7.519  70.865  1.00  0.00    -0.092 OA 
ATOM      8  C   ALA A   1     -11.184   7.060  71.175  1.00  0.00    -0.270 C  
ATOM      9  OXT ALA A   1      -7.415   9.076  72.463  1.00  0.00    -0.335 OA 
ATOM     10  C   ALA A   1      -8.639   4.069  74.199  1.00  0.00    -0.096 C  
ATOM     11  O   ALA A   1     -11.993   6.253  70.711  1.00  0.00    -0.262 OA 
ATOM     12  C   ALA A   1     -10.070   4.057  71.570  1.00  0.00    -0.166 C  
ATOM     13  C   ALA A   1      -8.746   2.783  73.374  1.00  0.00    -0.079 C  
ATOM     14  C   ALA A   1      -9.950   2.778  72.421  1.00  0.00    -0.235 C  
ENDROOT
BRANCH   8  15
ATOM     15  CA  ALA A   1     -11.361   8.604  70.954  1.00  0.00    -0.272 C  
ATOM     16  CB  ALA A   1     -12.472   9.133  71.866  1.00  0.00    -0.459 C  
BRANCH  15  17
ATOM     17  N   ALA A   1     -11.630   8.881  69.529  1.00  0.00    -0.231 NA 
ATOM     18  H   ALA A   1     -12.523   9.361  69.428  1.00  0.00     0.000 HD 
BRANCH  17  19
HETATM   19  C   UNK A   0     -10.566   9.629  68.816  1.00  0.00    -0.216 C  
BRANCH  19  20
HETATM   20  C   UNK A   0     -10.030   8.865  67.588  1.00  0.00    -0.248 C  
BRANCH  20  21
HETATM   21  C   UNK A   0     -10.909   7.671  67.179  1.00  0.00    -0.258 C  
BRANCH  21  22
HETATM   22  C   UNK A   0     -10.153   6.371  67.308  1.00  0.00    -0.207 A  
HETATM   23  C   UNK A   0      -9.166   6.211  68.288  1.00  0.00    -0.114 A  
HETATM   24  C   UNK A   0     -10.462   5.289  66.470  1.00  0.00    -0.354 A  
HETATM   25  C   UNK A   0      -8.489   4.999  68.418  1.00  0.00    -0.094 A  
HETATM   26  C   UNK A   0      -9.782   4.077  66.602  1.00  0.00    -0.215 A  
HETATM   27  C   UNK A   0      -8.795   3.932  67.575  1.00  0.00    -0.135 A  
ENDBRANCH  21  22
ENDBRANCH  20  21
ENDBRANCH  19  20
BRANCH  19  28
HETATM   28  C   UNK A   0     -11.130  10.989  68.353  1.00  0.00    -0.251 C  
HETATM   29  O   UNK A   0     -11.502  11.251  67.219  1.00  0.00    -0.464 OA 
BRANCH  28  30
HETATM   30  O   UNK A   0     -11.075  11.892  69.381  1.00  0.00    -0.222 OA 
BRANCH  30  31
HETATM   31  C   UNK A   0     -12.135  12.863  69.396  1.00  0.00    -0.198 C  
HETATM   32  C   UNK A   0     -12.323  13.336  70.828  1.00  0.00    -0.425 C  
ENDBRANCH  30  31
ENDBRANCH  28  30
ENDBRANCH  19  28
ENDBRANCH  17  19
ENDBRANCH  15  17
ENDBRANCH   8  15
TORSDOF 9
ENDMDL
MODEL      158
REMARK 921   NORMALIZED FREE ENERGY PREDICTED BY IDOCK:   -4.36 KCAL/MOL
REMARK 922        TOTAL FREE ENERGY PREDICTED BY IDOCK:   -8.61 KCAL/MOL
REMARK 923 INTER-LIGAND FREE ENERGY PREDICTED BY IDOCK:   -8.51 KCAL/MOL
REMARK 924 INTRA-LIGAND FREE ENERGY PREDICTED BY IDOCK:   -0.10 KCAL/MOL
REMARK 927      BINDING AFFINITY PREDICTED BY RF-SCORE:    0.00 PKD
ROOT
ATOM      1  C   ALA A   1      -9.537   5.318  66.616  1.00  0.00    -0.160 C  
ATOM      2  C   ALA A   1     -10.908   5.893  66.930  1.00  0.00    -0.376 C  
ATOM      3  CA  ALA A   1     -10.568   6.982  67.959  1.00  0.00    -0.207 C  
ATOM      4  N   ALA A   1      -9.176   7.398  67.634  1.00  0.00    -0.127 N  
ATOM      5  C   ALA A   1     -10.716   6.426  69.377  1.00  0.00    -0.289 C  
ATOM      6  C   ALA A   1      -8.675   6.582  66.523  1.00  0.00    -0.134 C  
ATOM      7  O   ALA A   1      -9.541   6.094  69.957  1.00  0.00    -0.158 OA 
ATOM      8  C   ALA A   1      -8.657   8.676  67.872  1.00  0.00    -0.137 C  
ATOM      9  OXT ALA A   1     -11.798   6.252  69.919  1.00  0.00    -0.340 OA 
ATOM     10  C   ALA A   1      -9.417   4.468  65.366  1.00  0.00    -0.175 C  
ATOM     11  O   ALA A   1      -7.602   9.045  67.352  1.00  0.00    -0.088 OA 
ATOM     12  C   ALA A   1      -7.206   6.162  66.464  1.00  0.00    -0.073 C  
ATOM     13  C   ALA A   1      -7.951   4.071  65.160  1.00  0.00    -0.093 C  
ATOM     14  C   ALA A   1      -6.988   5.265  65.229  1.00  0.00    -0.061 C  
ENDROOT
BRANCH   8  15
ATOM     15  CA  ALA A   1      -9.484   9.638  68.798  1.00  0.00    -0.148 C  
ATOM     16  CB  ALA A   1      -9.247   9.272  70.266  1.00  0.00    -0.273 C  
BRANCH  15  17
ATOM     17  N   ALA A   1     -10.914   9.581  68.434  1.00  0.00    -0.454 NA 
ATOM     18  H   ALA A   1     -11.465   9.262  69.230  1.00  0.00     0.000 HD 
BRANCH  17  19
HETATM   19  C   UNK A   0     -11.481  10.840  67.892  1.00  0.00    -0.227 C  
BRANCH  19  20
HETATM   20  C   UNK A   0     -11.398  12.004  68.901  1.00  0.00    -0.333 C  
BRANCH  20  21
HETATM   21  C   UNK A   0     -12.189  11.751  70.195  1.00  0.00    -0.342 C  
BRANCH  21  22
HETATM   22  C   UNK A   0     -12.609  13.050  70.839  1.00  0.00    -0.364 A  
HETATM   23  C   UNK A   0     -12.263  14.278  70.262  1.00  0.00    -0.407 A  
HETATM   24  C   UNK A   0     -13.389  13.041  72.004  1.00  0.00    -0.588 A  
HETATM   25  C   UNK A   0     -12.676  15.475  70.848  1.00  0.00    -0.525 A  
HETATM   26  C   UNK A   0     -13.799  14.240  72.589  1.00  0.00    -0.489 A  
HETATM   27  C   UNK A   0     -13.443  15.457  72.012  1.00  0.00    -0.564 A  
ENDBRANCH  21  22
ENDBRANCH  20  21
ENDBRANCH  19  20
BRANCH  19  28
HETATM   28  C   UNK A   0     -10.712  11.230  66.613  1.00  0.00    -0.272 C  
HETATM   29  O   UNK A   0     -10.530  10.504  65.648  1.00  0.00    -0.227 OA 
BRANCH  28  30
HETATM   30  O   UNK A   0     -10.187  12.487  66.750  1.00  0.00    -0.227 OA 
BRANCH  30  31
HETATM   31  C   UNK A   0     -10.321  13.332  65.595  1.00  0.00    -0.287 C  
HETATM   32  C   UNK A   0     -11.716  13.935  65.609  1.00  0.00    -0.362 C  
ENDBRANCH  30  31
ENDBRANCH  28  30
ENDBRANCH  19  28
ENDBRANCH  17  19
ENDBRANCH  15  17
ENDBRANCH   8  15
TORSDOF 9
ENDMDL
MODEL      159
REMARK 921   NORMALIZED FREE ENERGY PREDICTED BY IDOCK:   -4.36 KCAL/MOL
REMARK 922        TOTAL FREE ENERGY PREDICTED BY IDOCK:   -8.60 KCAL/MOL
REMARK 923 INTER-LIGAND FREE ENERGY PREDICTED BY IDOCK:   -8.17 KCAL/MOL
REMARK 924 INTRA-LIGAND FREE ENERGY PREDICTED BY IDOCK:   -0.43 KCAL/MOL
REMARK 927      BINDING AFFINITY PREDICTED BY RF-SCORE:    0.00 PKD
ROOT
ATOM      1  C   ALA A   1     -10.361  13.279  65.660  1.00  0.00    -0.292 C  
ATOM      2  C   ALA A   1     -11.021  11.943  65.957  1.00  0.00    -0.355 C  
ATOM      3  CA  ALA A   1      -9.915  11.206  66.728  1.00  0.00    -0.208 C  
ATOM      4  N   ALA A   1      -9.116  12.283  67.377  1.00  0.00    -0.177 N  
ATOM      5  C   ALA A   1      -9.094  10.342  65.768  1.00  0.00    -0.168 C  
ATOM      6  C   ALA A   1      -9.656  13.589  66.985  1.00  0.00    -0.248 C  
ATOM      7  O   ALA A   1      -7.911  10.892  65.417  1.00  0.00    -0.087 OA 
ATOM      8  C   ALA A   1      -8.416  12.131  68.580  1.00  0.00    -0.083 C  
ATOM      9  OXT ALA A   1      -9.492   9.276  65.320  1.00  0.00    -0.245 OA 
ATOM     10  C   ALA A   1     -11.270  14.415  65.233  1.00  0.00    -0.345 C  
ATOM     11  O   ALA A   1      -7.995  13.108  69.202  1.00  0.00     0.196 OA 
ATOM     12  C   ALA A   1      -8.729  14.785  66.771  1.00  0.00    -0.255 C  
ATOM     13  C   ALA A   1     -10.445  15.698  65.083  1.00  0.00    -0.417 C  
ATOM     14  C   ALA A   1      -9.564  15.994  66.306  1.00  0.00    -0.336 C  
ENDROOT
BRANCH   8  15
ATOM     15  CA  ALA A   1      -8.214  10.673  69.126  1.00  0.00    -0.139 C  
ATOM     16  CB  ALA A   1      -7.137   9.958  68.305  1.00  0.00    -0.076 C  
BRANCH  15  17
ATOM     17  N   ALA A   1      -9.499   9.947  69.113  1.00  0.00    -0.184 NA 
ATOM     18  H   ALA A   1      -9.333   8.943  69.059  1.00  0.00     0.000 HD 
BRANCH  17  19
HETATM   19  C   UNK A   0     -10.412  10.253  70.241  1.00  0.00    -0.146 C  
BRANCH  19  20
HETATM   20  C   UNK A   0     -11.675  11.015  69.786  1.00  0.00    -0.410 C  
BRANCH  20  21
HETATM   21  C   UNK A   0     -12.577  11.454  70.951  1.00  0.00    -0.453 C  
BRANCH  21  22
HETATM   22  C   UNK A   0     -12.598  12.957  71.087  1.00  0.00    -0.373 A  
HETATM   23  C   UNK A   0     -13.227  13.568  72.179  1.00  0.00    -0.551 A  
HETATM   24  C   UNK A   0     -11.949  13.761  70.138  1.00  0.00    -0.404 A  
HETATM   25  C   UNK A   0     -13.221  14.957  72.311  1.00  0.00    -0.468 A  
HETATM   26  C   UNK A   0     -11.945  15.150  70.273  1.00  0.00    -0.361 A  
HETATM   27  C   UNK A   0     -12.581  15.748  71.358  1.00  0.00    -0.516 A  
ENDBRANCH  21  22
ENDBRANCH  20  21
ENDBRANCH  19  20
BRANCH  19  28
HETATM   28  C   UNK A   0     -10.841   8.932  70.914  1.00  0.00    -0.248 C  
HETATM   29  O   UNK A   0     -10.364   8.474  71.941  1.00  0.00    -0.252 OA 
BRANCH  28  30
HETATM   30  O   UNK A   0     -11.781   8.300  70.145  1.00  0.00    -0.008 OA 
BRANCH  30  31
HETATM   31  C   UNK A   0     -12.483   7.229  70.798  1.00  0.00    -0.148 C  
HETATM   32  C   UNK A   0     -13.694   7.817  71.503  1.00  0.00    -0.416 C  
ENDBRANCH  30  31
ENDBRANCH  28  30
ENDBRANCH  19  28
ENDBRANCH  17  19
ENDBRANCH  15  17
ENDBRANCH   8  15
TORSDOF 9
ENDMDL
MODEL      160
REMARK 921   NORMALIZED FREE ENERGY PREDICTED BY IDOCK:   -4.34 KCAL/MOL
REMARK 922        TOTAL FREE ENERGY PREDICTED BY IDOCK:   -8.56 KCAL/MOL
REMARK 923 INTER-LIGAND FREE ENERGY PREDICTED BY IDOCK:   -8.89 KCAL/MOL
REMARK 924 INTRA-LIGAND FREE ENERGY PREDICTED BY IDOCK:    0.33 KCAL/MOL
REMARK 927      BINDING AFFINITY PREDICTED BY RF-SCORE:    0.00 PKD
ROOT
ATOM      1  C   ALA A   1      -8.038  18.435  66.845  1.00  0.00    -0.257 C  
ATOM      2  C   ALA A   1      -7.508  17.299  65.986  1.00  0.00    -0.232 C  
ATOM      3  CA  ALA A   1      -8.037  16.064  66.732  1.00  0.00    -0.267 C  
ATOM      4  N   ALA A   1      -9.274  16.529  67.418  1.00  0.00    -0.215 N  
ATOM      5  C   ALA A   1      -6.972  15.541  67.698  1.00  0.00    -0.179 C  
ATOM      6  C   ALA A   1      -9.460  17.960  67.161  1.00  0.00    -0.263 C  
ATOM      7  O   ALA A   1      -7.183  15.895  68.985  1.00  0.00    -0.151 OA 
ATOM      8  C   ALA A   1     -10.368  15.707  67.714  1.00  0.00    -0.266 C  
ATOM      9  OXT ALA A   1      -5.993  14.903  67.336  1.00  0.00    -0.338 OA 
ATOM     10  C   ALA A   1      -8.037  19.821  66.230  1.00  0.00    -0.356 C  
ATOM     11  O   ALA A   1     -11.457  16.186  68.037  1.00  0.00    -0.289 OA 
ATOM     12  C   ALA A   1     -10.049  18.875  68.234  1.00  0.00    -0.446 C  
ATOM     13  C   ALA A   1      -8.700  20.807  67.197  1.00  0.00    -0.223 C  
ATOM     14  C   ALA A   1     -10.065  20.324  67.708  1.00  0.00    -0.505 C  
ENDROOT
BRANCH   8  15
ATOM     15  CA  ALA A   1     -10.170  14.154  67.588  1.00  0.00    -0.241 C  
ATOM     16  CB  ALA A   1      -9.294  13.650  68.739  1.00  0.00     0.034 C  
BRANCH  15  17
ATOM     17  N   ALA A   1      -9.599  13.826  66.267  1.00  0.00    -0.386 NA 
ATOM     18  H   ALA A   1      -8.588  13.714  66.341  1.00  0.00     0.000 HD 
BRANCH  17  19
HETATM   19  C   UNK A   0     -10.194  12.645  65.594  1.00  0.00    -0.273 C  
BRANCH  19  20
HETATM   20  C   UNK A   0      -9.513  11.325  66.011  1.00  0.00    -0.240 C  
BRANCH  20  21
HETATM   21  C   UNK A   0      -9.695  10.192  64.987  1.00  0.00    -0.384 C  
BRANCH  21  22
HETATM   22  C   UNK A   0      -9.336   8.855  65.586  1.00  0.00    -0.259 A  
HETATM   23  C   UNK A   0      -8.319   8.071  65.027  1.00  0.00    -0.121 A  
HETATM   24  C   UNK A   0      -9.991   8.399  66.739  1.00  0.00    -0.354 A  
HETATM   25  C   UNK A   0      -7.974   6.847  65.601  1.00  0.00    -0.120 A  
HETATM   26  C   UNK A   0      -9.646   7.173  67.310  1.00  0.00    -0.179 A  
HETATM   27  C   UNK A   0      -8.638   6.397  66.742  1.00  0.00    -0.113 A  
ENDBRANCH  21  22
ENDBRANCH  20  21
ENDBRANCH  19  20
BRANCH  19  28
HETATM   28  C   UNK A   0     -11.694  12.567  65.947  1.00  0.00    -0.426 C  
HETATM   29  O   UNK A   0     -12.180  11.867  66.822  1.00  0.00    -0.489 OA 
BRANCH  28  30
HETATM   30  O   UNK A   0     -12.419  13.337  65.076  1.00  0.00    -0.430 OA 
BRANCH  30  31
HETATM   31  C   UNK A   0     -12.064  13.187  63.691  1.00  0.00    -0.513 C  
HETATM   32  C   UNK A   0     -12.475  11.793  63.245  1.00  0.00    -0.411 C  
ENDBRANCH  30  31
ENDBRANCH  28  30
ENDBRANCH  19  28
ENDBRANCH  17  19
ENDBRANCH  15  17
ENDBRANCH   8  15
TORSDOF 9
ENDMDL
MODEL      161
REMARK 921   NORMALIZED FREE ENERGY PREDICTED BY IDOCK:   -4.33 KCAL/MOL
REMARK 922        TOTAL FREE ENERGY PREDICTED BY IDOCK:   -8.55 KCAL/MOL
REMARK 923 INTER-LIGAND FREE ENERGY PREDICTED BY IDOCK:   -6.34 KCAL/MOL
REMARK 924 INTRA-LIGAND FREE ENERGY PREDICTED BY IDOCK:   -2.21 KCAL/MOL
REMARK 927      BINDING AFFINITY PREDICTED BY RF-SCORE:    0.00 PKD
ROOT
ATOM      1  C   ALA A   1     -11.055  11.077  69.922  1.00  0.00    -0.276 C  
ATOM      2  C   ALA A   1     -10.393  10.600  68.641  1.00  0.00    -0.202 C  
ATOM      3  CA  ALA A   1      -9.983   9.165  69.010  1.00  0.00    -0.184 C  
ATOM      4  N   ALA A   1     -10.967   8.739  70.044  1.00  0.00    -0.236 N  
ATOM      5  C   ALA A   1      -8.537   9.146  69.509  1.00  0.00    -0.138 C  
ATOM      6  C   ALA A   1     -11.878   9.851  70.332  1.00  0.00    -0.234 C  
ATOM      7  O   ALA A   1      -8.426   9.082  70.854  1.00  0.00    -0.177 OA 
ATOM      8  C   ALA A   1     -11.368   7.414  70.253  1.00  0.00    -0.221 C  
ATOM      9  OXT ALA A   1      -7.570   9.230  68.765  1.00  0.00    -0.078 OA 
ATOM     10  C   ALA A   1     -11.917  12.321  69.829  1.00  0.00    -0.365 C  
ATOM     11  O   ALA A   1     -12.363   7.147  70.928  1.00  0.00    -0.344 OA 
ATOM     12  C   ALA A   1     -12.410  10.076  71.747  1.00  0.00    -0.434 C  
ATOM     13  C   ALA A   1     -12.580  12.583  71.185  1.00  0.00    -0.349 C  
ATOM     14  C   ALA A   1     -13.285  11.346  71.760  1.00  0.00    -0.472 C  
ENDROOT
BRANCH   8  15
ATOM     15  CA  ALA A   1     -10.524   6.280  69.568  1.00  0.00    -0.237 C  
ATOM     16  CB  ALA A   1     -11.156   5.904  68.225  1.00  0.00    -0.139 C  
BRANCH  15  17
ATOM     17  N   ALA A   1     -10.409   5.121  70.475  1.00  0.00    -0.259 NA 
ATOM     18  H   ALA A   1     -10.920   4.325  70.092  1.00  0.00     0.000 HD 
BRANCH  17  19
HETATM   19  C   UNK A   0      -9.024   4.719  70.820  1.00  0.00    -0.123 C  
BRANCH  19  20
HETATM   20  C   UNK A   0      -7.965   5.607  70.133  1.00  0.00    -0.099 C  
BRANCH  20  21
HETATM   21  C   UNK A   0      -7.092   4.847  69.120  1.00  0.00    -0.052 C  
BRANCH  21  22
HETATM   22  C   UNK A   0      -7.682   4.919  67.733  1.00  0.00    -0.083 A  
HETATM   23  C   UNK A   0      -7.664   6.118  67.010  1.00  0.00    -0.100 A  
HETATM   24  C   UNK A   0      -8.218   3.770  67.133  1.00  0.00    -0.095 A  
HETATM   25  C   UNK A   0      -8.187   6.172  65.718  1.00  0.00    -0.138 A  
HETATM   26  C   UNK A   0      -8.742   3.827  65.841  1.00  0.00    -0.116 A  
HETATM   27  C   UNK A   0      -8.728   5.027  65.133  1.00  0.00    -0.150 A  
ENDBRANCH  21  22
ENDBRANCH  20  21
ENDBRANCH  19  20
BRANCH  19  28
HETATM   28  C   UNK A   0      -8.838   4.810  72.349  1.00  0.00    -0.119 C  
HETATM   29  O   UNK A   0      -7.765   4.884  72.928  1.00  0.00    -0.090 OA 
BRANCH  28  30
HETATM   30  O   UNK A   0     -10.052   4.710  72.973  1.00  0.00    -0.151 OA 
BRANCH  30  31
HETATM   31  C   UNK A   0     -10.203   5.526  74.147  1.00  0.00    -0.265 C  
HETATM   32  C   UNK A   0     -10.321   6.975  73.705  1.00  0.00    -0.412 C  
ENDBRANCH  30  31
ENDBRANCH  28  30
ENDBRANCH  19  28
ENDBRANCH  17  19
ENDBRANCH  15  17
ENDBRANCH   8  15
TORSDOF 9
ENDMDL
MODEL      162
REMARK 921   NORMALIZED FREE ENERGY PREDICTED BY IDOCK:   -4.30 KCAL/MOL
REMARK 922        TOTAL FREE ENERGY PREDICTED BY IDOCK:   -8.51 KCAL/MOL
REMARK 923 INTER-LIGAND FREE ENERGY PREDICTED BY IDOCK:   -7.21 KCAL/MOL
REMARK 924 INTRA-LIGAND FREE ENERGY PREDICTED BY IDOCK:   -1.30 KCAL/MOL
REMARK 927      BINDING AFFINITY PREDICTED BY RF-SCORE:    0.00 PKD
ROOT
ATOM      1  C   ALA A   1     -10.703  17.302  68.542  1.00  0.00    -0.305 C  
ATOM      2  C   ALA A   1     -10.194  16.572  69.773  1.00  0.00    -0.090 C  
ATOM      3  CA  ALA A   1     -10.262  15.105  69.324  1.00  0.00    -0.251 C  
ATOM      4  N   ALA A   1     -10.103  15.148  67.844  1.00  0.00    -0.222 N  
ATOM      5  C   ALA A   1     -11.588  14.483  69.770  1.00  0.00    -0.295 C  
ATOM      6  C   ALA A   1     -10.003  16.544  67.409  1.00  0.00    -0.267 C  
ATOM      7  O   ALA A   1     -12.507  14.396  68.784  1.00  0.00    -0.134 OA 
ATOM      8  C   ALA A   1      -9.537  14.119  67.081  1.00  0.00    -0.244 C  
ATOM      9  OXT ALA A   1     -11.813  14.140  70.922  1.00  0.00    -0.306 OA 
ATOM     10  C   ALA A   1     -10.434  18.793  68.465  1.00  0.00    -0.189 C  
ATOM     11  O   ALA A   1      -9.190  14.307  65.914  1.00  0.00    -0.114 OA 
ATOM     12  C   ALA A   1     -10.609  16.993  66.080  1.00  0.00    -0.208 C  
ATOM     13  C   ALA A   1     -10.923  19.329  67.115  1.00  0.00    -0.439 C  
ATOM     14  C   ALA A   1     -10.407  18.513  65.921  1.00  0.00    -0.344 C  
ENDROOT
BRANCH   8  15
ATOM     15  CA  ALA A   1      -9.330  12.726  67.775  1.00  0.00    -0.199 C  
ATOM     16  CB  ALA A   1      -7.942  12.177  67.430  1.00  0.00    -0.168 C  
BRANCH  15  17
ATOM     17  N   ALA A   1     -10.409  11.800  67.378  1.00  0.00    -0.202 NA 
ATOM     18  H   ALA A   1     -11.112  12.296  66.829  1.00  0.00     0.000 HD 
BRANCH  17  19
HETATM   19  C   UNK A   0      -9.967  10.581  66.657  1.00  0.00    -0.211 C  
BRANCH  19  20
HETATM   20  C   UNK A   0     -10.723   9.318  67.118  1.00  0.00    -0.222 C  
BRANCH  20  21
HETATM   21  C   UNK A   0     -10.355   8.871  68.543  1.00  0.00    -0.229 C  
BRANCH  21  22
HETATM   22  C   UNK A   0      -9.683   7.520  68.532  1.00  0.00    -0.159 A  
HETATM   23  C   UNK A   0      -8.290   7.414  68.634  1.00  0.00    -0.129 A  
HETATM   24  C   UNK A   0     -10.451   6.349  68.463  1.00  0.00    -0.265 A  
HETATM   25  C   UNK A   0      -7.676   6.162  68.649  1.00  0.00    -0.100 A  
HETATM   26  C   UNK A   0      -9.834   5.097  68.477  1.00  0.00    -0.218 A  
HETATM   27  C   UNK A   0      -8.447   5.003  68.570  1.00  0.00    -0.091 A  
ENDBRANCH  21  22
ENDBRANCH  20  21
ENDBRANCH  19  20
BRANCH  19  28
HETATM   28  C   UNK A   0     -10.199  10.779  65.144  1.00  0.00    -0.298 C  
HETATM   29  O   UNK A   0      -9.675  10.124  64.256  1.00  0.00    -0.310 OA 
BRANCH  28  30
HETATM   30  O   UNK A   0     -11.017  11.856  64.934  1.00  0.00    -0.298 OA 
BRANCH  30  31
HETATM   31  C   UNK A   0     -11.194  12.229  63.557  1.00  0.00    -0.460 C  
HETATM   32  C   UNK A   0     -12.587  11.801  63.126  1.00  0.00    -0.247 C  
ENDBRANCH  30  31
ENDBRANCH  28  30
ENDBRANCH  19  28
ENDBRANCH  17  19
ENDBRANCH  15  17
ENDBRANCH   8  15
TORSDOF 9
ENDMDL
MODEL      163
REMARK 921   NORMALIZED FREE ENERGY PREDICTED BY IDOCK:   -4.30 KCAL/MOL
REMARK 922        TOTAL FREE ENERGY PREDICTED BY IDOCK:   -8.50 KCAL/MOL
REMARK 923 INTER-LIGAND FREE ENERGY PREDICTED BY IDOCK:   -6.71 KCAL/MOL
REMARK 924 INTRA-LIGAND FREE ENERGY PREDICTED BY IDOCK:   -1.79 KCAL/MOL
REMARK 927      BINDING AFFINITY PREDICTED BY RF-SCORE:    0.00 PKD
ROOT
ATOM      1  C   ALA A   1     -10.307  12.251  66.371  1.00  0.00    -0.250 C  
ATOM      2  C   ALA A   1     -10.796  10.831  66.148  1.00  0.00    -0.124 C  
ATOM      3  CA  ALA A   1     -10.796  10.266  67.577  1.00  0.00    -0.298 C  
ATOM      4  N   ALA A   1     -11.008  11.448  68.457  1.00  0.00    -0.204 N  
ATOM      5  C   ALA A   1      -9.479   9.538  67.851  1.00  0.00    -0.132 C  
ATOM      6  C   ALA A   1     -11.074  12.659  67.633  1.00  0.00    -0.263 C  
ATOM      7  O   ALA A   1      -8.600  10.260  68.580  1.00  0.00    -0.116 OA 
ATOM      8  C   ALA A   1     -11.638  11.399  69.707  1.00  0.00    -0.332 C  
ATOM      9  OXT ALA A   1      -9.224   8.426  67.412  1.00  0.00    -0.138 OA 
ATOM     10  C   ALA A   1     -10.525  13.240  65.243  1.00  0.00    -0.324 C  
ATOM     11  O   ALA A   1     -12.021  12.426  70.271  1.00  0.00    -0.349 OA 
ATOM     12  C   ALA A   1     -10.502  13.981  68.143  1.00  0.00    -0.243 C  
ATOM     13  C   ALA A   1     -10.067  14.633  65.690  1.00  0.00    -0.389 C  
ATOM     14  C   ALA A   1     -10.655  15.053  67.045  1.00  0.00    -0.293 C  
ENDROOT
BRANCH   8  15
ATOM     15  CA  ALA A   1     -11.869   9.985  70.352  1.00  0.00    -0.262 C  
ATOM     16  CB  ALA A   1     -13.255   9.935  71.002  1.00  0.00    -0.375 C  
BRANCH  15  17
ATOM     17  N   ALA A   1     -10.790   9.688  71.314  1.00  0.00    -0.343 NA 
ATOM     18  H   ALA A   1     -11.122   9.831  72.267  1.00  0.00     0.000 HD 
BRANCH  17  19
HETATM   19  C   UNK A   0     -10.175   8.345  71.184  1.00  0.00    -0.202 C  
BRANCH  19  20
HETATM   20  C   UNK A   0      -9.154   8.053  72.304  1.00  0.00    -0.237 C  
BRANCH  20  21
HETATM   21  C   UNK A   0      -7.701   8.351  71.899  1.00  0.00    -0.157 C  
BRANCH  21  22
HETATM   22  C   UNK A   0      -7.088   7.180  71.171  1.00  0.00    -0.072 A  
HETATM   23  C   UNK A   0      -6.874   7.231  69.788  1.00  0.00    -0.053 A  
HETATM   24  C   UNK A   0      -6.686   6.040  71.880  1.00  0.00    -0.064 A  
HETATM   25  C   UNK A   0      -6.284   6.155  69.124  1.00  0.00    -0.036 A  
HETATM   26  C   UNK A   0      -6.097   4.964  71.214  1.00  0.00    -0.018 A  
HETATM   27  C   UNK A   0      -5.896   5.021  69.836  1.00  0.00    -0.017 A  
ENDBRANCH  21  22
ENDBRANCH  20  21
ENDBRANCH  19  20
BRANCH  19  28
HETATM   28  C   UNK A   0     -11.287   7.275  71.230  1.00  0.00    -0.264 C  
HETATM   29  O   UNK A   0     -11.895   6.930  72.231  1.00  0.00    -0.279 OA 
BRANCH  28  30
HETATM   30  O   UNK A   0     -11.437   6.705  69.995  1.00  0.00    -0.358 OA 
BRANCH  30  31
HETATM   31  C   UNK A   0     -10.271   6.037  69.487  1.00  0.00    -0.208 C  
HETATM   32  C   UNK A   0      -9.961   4.863  70.402  1.00  0.00    -0.316 C  
ENDBRANCH  30  31
ENDBRANCH  28  30
ENDBRANCH  19  28
ENDBRANCH  17  19
ENDBRANCH  15  17
ENDBRANCH   8  15
TORSDOF 9
ENDMDL
MODEL      164
REMARK 921   NORMALIZED FREE ENERGY PREDICTED BY IDOCK:   -4.29 KCAL/MOL
REMARK 922        TOTAL FREE ENERGY PREDICTED BY IDOCK:   -8.49 KCAL/MOL
REMARK 923 INTER-LIGAND FREE ENERGY PREDICTED BY IDOCK:   -7.26 KCAL/MOL
REMARK 924 INTRA-LIGAND FREE ENERGY PREDICTED BY IDOCK:   -1.24 KCAL/MOL
REMARK 927      BINDING AFFINITY PREDICTED BY RF-SCORE:    0.00 PKD
ROOT
ATOM      1  C   ALA A   1     -10.598   6.528  70.635  1.00  0.00    -0.280 C  
ATOM      2  C   ALA A   1      -9.994   6.364  69.251  1.00  0.00    -0.178 C  
ATOM      3  CA  ALA A   1      -9.359   7.743  69.016  1.00  0.00    -0.150 C  
ATOM      4  N   ALA A   1      -9.036   8.254  70.376  1.00  0.00    -0.145 N  
ATOM      5  C   ALA A   1     -10.331   8.642  68.248  1.00  0.00    -0.207 C  
ATOM      6  C   ALA A   1      -9.493   7.286  71.378  1.00  0.00    -0.160 C  
ATOM      7  O   ALA A   1     -10.980   9.533  69.029  1.00  0.00    -0.194 OA 
ATOM      8  C   ALA A   1      -7.984   9.134  70.660  1.00  0.00    -0.154 C  
ATOM      9  OXT ALA A   1     -10.539   8.533  67.048  1.00  0.00    -0.306 OA 
ATOM     10  C   ALA A   1     -10.994   5.260  71.369  1.00  0.00    -0.076 C  
ATOM     11  O   ALA A   1      -7.598   9.317  71.816  1.00  0.00    -0.329 OA 
ATOM     12  C   ALA A   1     -10.049   7.758  72.722  1.00  0.00    -0.344 C  
ATOM     13  C   ALA A   1     -11.480   5.618  72.777  1.00  0.00    -0.328 C  
ATOM     14  C   ALA A   1     -10.506   6.531  73.536  1.00  0.00    -0.317 C  
ENDROOT
BRANCH   8  15
ATOM     15  CA  ALA A   1      -7.289   9.854  69.449  1.00  0.00    -0.091 C  
ATOM     16  CB  ALA A   1      -5.786   9.978  69.715  1.00  0.00    -0.043 C  
BRANCH  15  17
ATOM     17  N   ALA A   1      -7.924  11.165  69.212  1.00  0.00    -0.360 NA 
ATOM     18  H   ALA A   1      -7.310  11.914  69.532  1.00  0.00     0.000 HD 
BRANCH  17  19
HETATM   19  C   UNK A   0      -8.353  11.420  67.815  1.00  0.00    -0.127 C  
BRANCH  19  20
HETATM   20  C   UNK A   0      -8.986  12.816  67.639  1.00  0.00    -0.191 C  
BRANCH  20  21
HETATM   21  C   UNK A   0     -10.522  12.803  67.694  1.00  0.00    -0.224 C  
BRANCH  21  22
HETATM   22  C   UNK A   0     -11.117  13.068  66.333  1.00  0.00    -0.313 A  
HETATM   23  C   UNK A   0     -10.922  12.167  65.279  1.00  0.00    -0.349 A  
HETATM   24  C   UNK A   0     -11.912  14.204  66.119  1.00  0.00    -0.437 A  
HETATM   25  C   UNK A   0     -11.496  12.406  64.030  1.00  0.00    -0.479 A  
HETATM   26  C   UNK A   0     -12.484  14.441  64.868  1.00  0.00    -0.368 A  
HETATM   27  C   UNK A   0     -12.276  13.543  63.824  1.00  0.00    -0.449 A  
ENDBRANCH  21  22
ENDBRANCH  20  21
ENDBRANCH  19  20
BRANCH  19  28
HETATM   28  C   UNK A   0      -7.128  11.304  66.883  1.00  0.00    -0.139 C  
HETATM   29  O   UNK A   0      -6.260  12.152  66.747  1.00  0.00    -0.164 OA 
BRANCH  28  30
HETATM   30  O   UNK A   0      -7.199  10.142  66.162  1.00  0.00    -0.103 OA 
BRANCH  30  31
HETATM   31  C   UNK A   0      -7.974  10.221  64.954  1.00  0.00    -0.146 C  
HETATM   32  C   UNK A   0      -7.259   9.420  63.879  1.00  0.00    -0.102 C  
ENDBRANCH  30  31
ENDBRANCH  28  30
ENDBRANCH  19  28
ENDBRANCH  17  19
ENDBRANCH  15  17
ENDBRANCH   8  15
TORSDOF 9
ENDMDL
MODEL      165
REMARK 921   NORMALIZED FREE ENERGY PREDICTED BY IDOCK:   -4.28 KCAL/MOL
REMARK 922        TOTAL FREE ENERGY PREDICTED BY IDOCK:   -8.48 KCAL/MOL
REMARK 923 INTER-LIGAND FREE ENERGY PREDICTED BY IDOCK:   -7.06 KCAL/MOL
REMARK 924 INTRA-LIGAND FREE ENERGY PREDICTED BY IDOCK:   -1.42 KCAL/MOL
REMARK 927      BINDING AFFINITY PREDICTED BY RF-SCORE:    0.00 PKD
ROOT
ATOM      1  C   ALA A   1      -8.083   6.708  67.420  1.00  0.00    -0.121 C  
ATOM      2  C   ALA A   1      -7.311   7.426  66.325  1.00  0.00    -0.082 C  
ATOM      3  CA  ALA A   1      -7.829   8.866  66.462  1.00  0.00    -0.100 C  
ATOM      4  N   ALA A   1      -8.220   8.999  67.893  1.00  0.00    -0.109 N  
ATOM      5  C   ALA A   1      -8.991   9.098  65.495  1.00  0.00    -0.205 C  
ATOM      6  C   ALA A   1      -8.014   7.716  68.572  1.00  0.00    -0.123 C  
ATOM      7  O   ALA A   1     -10.207   9.045  66.082  1.00  0.00    -0.267 OA 
ATOM      8  C   ALA A   1      -8.191  10.201  68.611  1.00  0.00    -0.111 C  
ATOM      9  OXT ALA A   1      -8.839   9.267  64.293  1.00  0.00    -0.204 OA 
ATOM     10  C   ALA A   1      -7.572   5.344  67.841  1.00  0.00    -0.088 C  
ATOM     11  O   ALA A   1      -8.269  10.212  69.841  1.00  0.00    -0.177 OA 
ATOM     12  C   ALA A   1      -8.966   7.255  69.676  1.00  0.00    -0.141 C  
ATOM     13  C   ALA A   1      -8.407   4.829  69.018  1.00  0.00    -0.084 C  
ATOM     14  C   ALA A   1      -8.540   5.853  70.155  1.00  0.00    -0.134 C  
ENDROOT
BRANCH   8  15
ATOM     15  CA  ALA A   1      -8.022  11.532  67.797  1.00  0.00    -0.128 C  
ATOM     16  CB  ALA A   1      -7.281  12.568  68.647  1.00  0.00    -0.103 C  
BRANCH  15  17
ATOM     17  N   ALA A   1      -9.342  12.020  67.350  1.00  0.00    -0.175 NA 
ATOM     18  H   ALA A   1      -9.854  11.270  66.886  1.00  0.00     0.000 HD 
BRANCH  17  19
HETATM   19  C   UNK A   0     -10.184  12.631  68.407  1.00  0.00    -0.232 C  
BRANCH  19  20
HETATM   20  C   UNK A   0     -10.664  14.048  68.031  1.00  0.00    -0.253 C  
BRANCH  20  21
HETATM   21  C   UNK A   0     -10.012  14.596  66.750  1.00  0.00    -0.265 C  
BRANCH  21  22
HETATM   22  C   UNK A   0      -9.755  16.078  66.862  1.00  0.00    -0.244 A  
HETATM   23  C   UNK A   0      -8.565  16.636  66.377  1.00  0.00    -0.345 A  
HETATM   24  C   UNK A   0     -10.727  16.924  67.416  1.00  0.00    -0.241 A  
HETATM   25  C   UNK A   0      -8.344  18.011  66.460  1.00  0.00    -0.293 A  
HETATM   26  C   UNK A   0     -10.503  18.299  67.499  1.00  0.00    -0.431 A  
HETATM   27  C   UNK A   0      -9.312  18.843  67.022  1.00  0.00    -0.329 A  
ENDBRANCH  21  22
ENDBRANCH  20  21
ENDBRANCH  19  20
BRANCH  19  28
HETATM   28  C   UNK A   0     -11.416  11.734  68.652  1.00  0.00    -0.288 C  
HETATM   29  O   UNK A   0     -11.993  11.076  67.800  1.00  0.00    -0.609 OA 
BRANCH  28  30
HETATM   30  O   UNK A   0     -11.825  11.849  69.954  1.00  0.00    -0.319 OA 
BRANCH  30  31
HETATM   31  C   UNK A   0     -12.297  10.632  70.554  1.00  0.00    -0.359 C  
HETATM   32  C   UNK A   0     -13.169  10.997  71.744  1.00  0.00    -0.505 C  
ENDBRANCH  30  31
ENDBRANCH  28  30
ENDBRANCH  19  28
ENDBRANCH  17  19
ENDBRANCH  15  17
ENDBRANCH   8  15
TORSDOF 9
ENDMDL
MODEL      166
REMARK 921   NORMALIZED FREE ENERGY PREDICTED BY IDOCK:   -4.28 KCAL/MOL
REMARK 922        TOTAL FREE ENERGY PREDICTED BY IDOCK:   -8.48 KCAL/MOL
REMARK 923 INTER-LIGAND FREE ENERGY PREDICTED BY IDOCK:   -7.62 KCAL/MOL
REMARK 924 INTRA-LIGAND FREE ENERGY PREDICTED BY IDOCK:   -0.85 KCAL/MOL
REMARK 927      BINDING AFFINITY PREDICTED BY RF-SCORE:    0.00 PKD
ROOT
ATOM      1  C   ALA A   1      -6.487  14.071  68.103  1.00  0.00    -0.126 C  
ATOM      2  C   ALA A   1      -5.938  12.930  67.265  1.00  0.00     0.025 C  
ATOM      3  CA  ALA A   1      -7.178  12.039  67.088  1.00  0.00    -0.131 C  
ATOM      4  N   ALA A   1      -8.336  12.972  67.174  1.00  0.00    -0.176 N  
ATOM      5  C   ALA A   1      -7.198  10.952  68.165  1.00  0.00    -0.083 C  
ATOM      6  C   ALA A   1      -7.846  14.328  67.443  1.00  0.00    -0.187 C  
ATOM      7  O   ALA A   1      -8.043  11.214  69.187  1.00  0.00    -0.121 OA 
ATOM      8  C   ALA A   1      -9.561  12.770  66.528  1.00  0.00    -0.257 C  
ATOM      9  OXT ALA A   1      -6.483   9.961  68.131  1.00  0.00    -0.055 OA 
ATOM     10  C   ALA A   1      -5.654  15.337  68.173  1.00  0.00    -0.132 C  
ATOM     11  O   ALA A   1     -10.382  13.682  66.415  1.00  0.00    -0.276 OA 
ATOM     12  C   ALA A   1      -8.643  15.284  68.329  1.00  0.00    -0.159 C  
ATOM     13  C   ALA A   1      -6.414  16.403  68.968  1.00  0.00    -0.171 C  
ATOM     14  C   ALA A   1      -7.857  16.601  68.483  1.00  0.00    -0.218 C  
ENDROOT
BRANCH   8  15
ATOM     15  CA  ALA A   1      -9.841  11.348  65.924  1.00  0.00    -0.226 C  
ATOM     16  CB  ALA A   1     -10.206  11.478  64.442  1.00  0.00    -0.350 C  
BRANCH  15  17
ATOM     17  N   ALA A   1     -10.898  10.670  66.700  1.00  0.00    -0.181 NA 
ATOM     18  H   ALA A   1     -11.054   9.731  66.334  1.00  0.00     0.000 HD 
BRANCH  17  19
HETATM   19  C   UNK A   0     -10.672  10.613  68.165  1.00  0.00    -0.225 C  
BRANCH  19  20
HETATM   20  C   UNK A   0     -11.770  11.353  68.958  1.00  0.00    -0.409 C  
BRANCH  20  21
HETATM   21  C   UNK A   0     -11.404  12.807  69.300  1.00  0.00    -0.307 C  
BRANCH  21  22
HETATM   22  C   UNK A   0     -12.228  13.318  70.456  1.00  0.00    -0.416 A  
HETATM   23  C   UNK A   0     -12.382  14.693  70.671  1.00  0.00    -0.398 A  
HETATM   24  C   UNK A   0     -12.887  12.418  71.306  1.00  0.00    -0.337 A  
HETATM   25  C   UNK A   0     -13.167  15.160  71.726  1.00  0.00    -0.484 A  
HETATM   26  C   UNK A   0     -13.671  12.887  72.361  1.00  0.00    -0.530 A  
HETATM   27  C   UNK A   0     -13.810  14.257  72.572  1.00  0.00    -0.575 A  
ENDBRANCH  21  22
ENDBRANCH  20  21
ENDBRANCH  19  20
BRANCH  19  28
HETATM   28  C   UNK A   0     -10.639   9.137  68.614  1.00  0.00    -0.174 C  
HETATM   29  O   UNK A   0     -10.417   8.748  69.750  1.00  0.00    -0.211 OA 
BRANCH  28  30
HETATM   30  O   UNK A   0     -10.812   8.317  67.531  1.00  0.00    -0.192 OA 
BRANCH  30  31
HETATM   31  C   UNK A   0      -9.950   7.168  67.493  1.00  0.00    -0.167 C  
HETATM   32  C   UNK A   0     -10.667   6.062  66.737  1.00  0.00    -0.374 C  
ENDBRANCH  30  31
ENDBRANCH  28  30
ENDBRANCH  19  28
ENDBRANCH  17  19
ENDBRANCH  15  17
ENDBRANCH   8  15
TORSDOF 9
ENDMDL
MODEL      167
REMARK 921   NORMALIZED FREE ENERGY PREDICTED BY IDOCK:   -4.28 KCAL/MOL
REMARK 922        TOTAL FREE ENERGY PREDICTED BY IDOCK:   -8.47 KCAL/MOL
REMARK 923 INTER-LIGAND FREE ENERGY PREDICTED BY IDOCK:   -6.92 KCAL/MOL
REMARK 924 INTRA-LIGAND FREE ENERGY PREDICTED BY IDOCK:   -1.56 KCAL/MOL
REMARK 927      BINDING AFFINITY PREDICTED BY RF-SCORE:    0.00 PKD
ROOT
ATOM      1  C   ALA A   1     -10.281  15.738  67.558  1.00  0.00    -0.265 C  
ATOM      2  C   ALA A   1     -11.084  14.786  68.428  1.00  0.00    -0.274 C  
ATOM      3  CA  ALA A   1     -10.369  13.448  68.180  1.00  0.00    -0.247 C  
ATOM      4  N   ALA A   1      -8.967  13.819  67.843  1.00  0.00    -0.183 N  
ATOM      5  C   ALA A   1     -11.075  12.678  67.062  1.00  0.00    -0.281 C  
ATOM      6  C   ALA A   1      -8.843  15.280  67.827  1.00  0.00    -0.173 C  
ATOM      7  O   ALA A   1     -10.450  12.760  65.867  1.00  0.00    -0.267 OA 
ATOM      8  C   ALA A   1      -7.853  13.010  68.100  1.00  0.00    -0.145 C  
ATOM      9  OXT ALA A   1     -12.132  12.083  67.221  1.00  0.00    -0.572 OA 
ATOM     10  C   ALA A   1     -10.451  17.221  67.822  1.00  0.00    -0.371 C  
ATOM     11  O   ALA A   1      -6.709  13.463  68.047  1.00  0.00    -0.098 OA 
ATOM     12  C   ALA A   1      -7.919  15.973  66.827  1.00  0.00    -0.302 C  
ATOM     13  C   ALA A   1      -9.489  18.011  66.928  1.00  0.00    -0.288 C  
ATOM     14  C   ALA A   1      -8.043  17.500  67.001  1.00  0.00    -0.240 C  
ENDROOT
BRANCH   8  15
ATOM     15  CA  ALA A   1      -8.115  11.512  68.492  1.00  0.00    -0.146 C  
ATOM     16  CB  ALA A   1      -7.035  11.036  69.468  1.00  0.00    -0.126 C  
BRANCH  15  17
ATOM     17  N   ALA A   1      -8.175  10.677  67.276  1.00  0.00    -0.116 NA 
ATOM     18  H   ALA A   1      -7.261  10.649  66.825  1.00  0.00     0.000 HD 
BRANCH  17  19
HETATM   19  C   UNK A   0      -8.685   9.298  67.477  1.00  0.00    -0.115 C  
BRANCH  19  20
HETATM   20  C   UNK A   0     -10.216   9.259  67.664  1.00  0.00    -0.285 C  
BRANCH  20  21
HETATM   21  C   UNK A   0     -10.658   9.405  69.130  1.00  0.00    -0.234 C  
BRANCH  21  22
HETATM   22  C   UNK A   0     -10.590   8.082  69.853  1.00  0.00    -0.242 A  
HETATM   23  C   UNK A   0     -10.480   8.035  71.248  1.00  0.00    -0.238 A  
HETATM   24  C   UNK A   0     -10.679   6.880  69.136  1.00  0.00    -0.262 A  
HETATM   25  C   UNK A   0     -10.443   6.809  71.913  1.00  0.00    -0.221 A  
HETATM   26  C   UNK A   0     -10.640   5.655  69.803  1.00  0.00    -0.400 A  
HETATM   27  C   UNK A   0     -10.522   5.619  71.191  1.00  0.00    -0.306 A  
ENDBRANCH  21  22
ENDBRANCH  20  21
ENDBRANCH  19  20
BRANCH  19  28
HETATM   28  C   UNK A   0      -8.308   8.438  66.253  1.00  0.00    -0.122 C  
HETATM   29  O   UNK A   0      -8.231   8.839  65.102  1.00  0.00    -0.130 OA 
BRANCH  28  30
HETATM   30  O   UNK A   0      -8.154   7.131  66.632  1.00  0.00    -0.105 OA 
BRANCH  30  31
HETATM   31  C   UNK A   0      -7.302   6.923  67.771  1.00  0.00    -0.097 C  
HETATM   32  C   UNK A   0      -7.023   5.434  67.888  1.00  0.00    -0.065 C  
ENDBRANCH  30  31
ENDBRANCH  28  30
ENDBRANCH  19  28
ENDBRANCH  17  19
ENDBRANCH  15  17
ENDBRANCH   8  15
TORSDOF 9
ENDMDL
MODEL      168
REMARK 921   NORMALIZED FREE ENERGY PREDICTED BY IDOCK:   -4.24 KCAL/MOL
REMARK 922        TOTAL FREE ENERGY PREDICTED BY IDOCK:   -8.41 KCAL/MOL
REMARK 923 INTER-LIGAND FREE ENERGY PREDICTED BY IDOCK:   -7.84 KCAL/MOL
REMARK 924 INTRA-LIGAND FREE ENERGY PREDICTED BY IDOCK:   -0.57 KCAL/MOL
REMARK 927      BINDING AFFINITY PREDICTED BY RF-SCORE:    0.00 PKD
ROOT
ATOM      1  C   ALA A   1      -8.263  17.729  67.249  1.00  0.00    -0.226 C  
ATOM      2  C   ALA A   1      -7.795  16.644  66.294  1.00  0.00    -0.309 C  
ATOM      3  CA  ALA A   1      -8.299  15.370  66.990  1.00  0.00    -0.236 C  
ATOM      4  N   ALA A   1      -9.491  15.803  67.769  1.00  0.00    -0.211 N  
ATOM      5  C   ALA A   1      -7.190  14.778  67.863  1.00  0.00    -0.156 C  
ATOM      6  C   ALA A   1      -9.672  17.250  67.612  1.00  0.00    -0.272 C  
ATOM      7  O   ALA A   1      -7.328  15.053  69.179  1.00  0.00    -0.138 OA 
ATOM      8  C   ALA A   1     -10.579  14.976  68.073  1.00  0.00    -0.250 C  
ATOM      9  OXT ALA A   1      -6.241  14.154  67.410  1.00  0.00    -0.336 OA 
ATOM     10  C   ALA A   1      -8.276  19.151  66.721  1.00  0.00    -0.292 C  
ATOM     11  O   ALA A   1     -11.642  15.444  68.484  1.00  0.00    -0.336 OA 
ATOM     12  C   ALA A   1     -10.191  18.102  68.770  1.00  0.00    -0.353 C  
ATOM     13  C   ALA A   1      -8.874  20.082  67.782  1.00  0.00    -0.379 C  
ATOM     14  C   ALA A   1     -10.216  19.581  68.335  1.00  0.00    -0.536 C  
ENDROOT
BRANCH   8  15
ATOM     15  CA  ALA A   1     -10.408  13.432  67.841  1.00  0.00    -0.238 C  
ATOM     16  CB  ALA A   1     -11.732  12.832  67.359  1.00  0.00    -0.425 C  
BRANCH  15  17
ATOM     17  N   ALA A   1      -9.921  12.788  69.077  1.00  0.00    -0.405 NA 
ATOM     18  H   ALA A   1     -10.606  12.901  69.824  1.00  0.00     0.000 HD 
BRANCH  17  19
HETATM   19  C   UNK A   0      -9.545  11.359  68.943  1.00  0.00    -0.073 C  
BRANCH  19  20
HETATM   20  C   UNK A   0     -10.776  10.438  68.807  1.00  0.00    -0.255 C  
BRANCH  20  21
HETATM   21  C   UNK A   0     -10.846   9.348  69.890  1.00  0.00    -0.259 C  
BRANCH  21  22
HETATM   22  C   UNK A   0     -10.635   7.977  69.295  1.00  0.00    -0.193 A  
HETATM   23  C   UNK A   0     -10.663   6.834  70.105  1.00  0.00    -0.274 A  
HETATM   24  C   UNK A   0     -10.450   7.827  67.913  1.00  0.00    -0.263 A  
HETATM   25  C   UNK A   0     -10.492   5.568  69.546  1.00  0.00    -0.368 A  
HETATM   26  C   UNK A   0     -10.278   6.559  67.356  1.00  0.00    -0.227 A  
HETATM   27  C   UNK A   0     -10.299   5.430  68.172  1.00  0.00    -0.210 A  
ENDBRANCH  21  22
ENDBRANCH  20  21
ENDBRANCH  19  20
BRANCH  19  28
HETATM   28  C   UNK A   0      -8.652  11.188  67.697  1.00  0.00    -0.126 C  
HETATM   29  O   UNK A   0      -9.053  11.050  66.552  1.00  0.00    -0.164 OA 
BRANCH  28  30
HETATM   30  O   UNK A   0      -7.336  11.127  68.072  1.00  0.00    -0.084 OA 
BRANCH  30  31
HETATM   31  C   UNK A   0      -7.096  10.528  69.356  1.00  0.00    -0.110 C  
HETATM   32  C   UNK A   0      -6.162  11.439  70.135  1.00  0.00    -0.138 C  
ENDBRANCH  30  31
ENDBRANCH  28  30
ENDBRANCH  19  28
ENDBRANCH  17  19
ENDBRANCH  15  17
ENDBRANCH   8  15
TORSDOF 9
ENDMDL
MODEL      169
REMARK 921   NORMALIZED FREE ENERGY PREDICTED BY IDOCK:   -4.23 KCAL/MOL
REMARK 922        TOTAL FREE ENERGY PREDICTED BY IDOCK:   -8.40 KCAL/MOL
REMARK 923 INTER-LIGAND FREE ENERGY PREDICTED BY IDOCK:   -6.52 KCAL/MOL
REMARK 924 INTRA-LIGAND FREE ENERGY PREDICTED BY IDOCK:   -1.88 KCAL/MOL
REMARK 927      BINDING AFFINITY PREDICTED BY RF-SCORE:    0.00 PKD
ROOT
ATOM      1  C   ALA A   1     -10.755  14.384  65.696  1.00  0.00    -0.326 C  
ATOM      2  C   ALA A   1      -9.550  15.000  66.387  1.00  0.00    -0.314 C  
ATOM      3  CA  ALA A   1      -8.962  13.794  67.136  1.00  0.00    -0.235 C  
ATOM      4  N   ALA A   1      -9.365  12.608  66.331  1.00  0.00    -0.226 N  
ATOM      5  C   ALA A   1      -9.495  13.758  68.570  1.00  0.00    -0.162 C  
ATOM      6  C   ALA A   1     -10.191  13.048  65.202  1.00  0.00    -0.272 C  
ATOM      7  O   ALA A   1     -10.490  12.865  68.759  1.00  0.00    -0.233 OA 
ATOM      8  C   ALA A   1      -8.633  11.416  66.259  1.00  0.00    -0.156 C  
ATOM      9  OXT ALA A   1      -9.092  14.502  69.453  1.00  0.00     0.040 OA 
ATOM     10  C   ALA A   1     -11.379  15.178  64.565  1.00  0.00    -0.297 C  
ATOM     11  O   ALA A   1      -8.864  10.576  65.388  1.00  0.00    -0.173 OA 
ATOM     12  C   ALA A   1     -11.351  12.188  64.702  1.00  0.00    -0.382 C  
ATOM     13  C   ALA A   1     -12.504  14.356  63.926  1.00  0.00    -0.004 C  
ATOM     14  C   ALA A   1     -12.071  12.929  63.558  1.00  0.00    -0.633 C  
ENDROOT
BRANCH   8  15
ATOM     15  CA  ALA A   1      -7.485  11.202  67.309  1.00  0.00    -0.118 C  
ATOM     16  CB  ALA A   1      -6.137  11.105  66.588  1.00  0.00    -0.133 C  
BRANCH  15  17
ATOM     17  N   ALA A   1      -7.767  10.006  68.127  1.00  0.00    -0.085 NA 
ATOM     18  H   ALA A   1      -7.033   9.310  67.994  1.00  0.00     0.000 HD 
BRANCH  17  19
HETATM   19  C   UNK A   0      -7.972  10.260  69.574  1.00  0.00    -0.165 C  
BRANCH  19  20
HETATM   20  C   UNK A   0      -9.254   9.594  70.113  1.00  0.00    -0.287 C  
BRANCH  20  21
HETATM   21  C   UNK A   0     -10.366   9.463  69.058  1.00  0.00    -0.224 C  
BRANCH  21  22
HETATM   22  C   UNK A   0     -10.429   8.060  68.506  1.00  0.00    -0.200 A  
HETATM   23  C   UNK A   0     -10.279   7.823  67.134  1.00  0.00    -0.365 A  
HETATM   24  C   UNK A   0     -10.598   6.968  69.370  1.00  0.00    -0.248 A  
HETATM   25  C   UNK A   0     -10.313   6.522  66.634  1.00  0.00    -0.217 A  
HETATM   26  C   UNK A   0     -10.633   5.667  68.867  1.00  0.00    -0.303 A  
HETATM   27  C   UNK A   0     -10.491   5.443  67.499  1.00  0.00    -0.235 A  
ENDBRANCH  21  22
ENDBRANCH  20  21
ENDBRANCH  19  20
BRANCH  19  28
HETATM   28  C   UNK A   0      -6.758   9.717  70.358  1.00  0.00    -0.123 C  
HETATM   29  O   UNK A   0      -6.498   9.970  71.524  1.00  0.00    -0.311 OA 
BRANCH  28  30
HETATM   30  O   UNK A   0      -5.962   8.973  69.528  1.00  0.00    -0.036 OA 
BRANCH  30  31
HETATM   31  C   UNK A   0      -5.806   7.596  69.908  1.00  0.00    -0.023 C  
HETATM   32  C   UNK A   0      -6.959   6.806  69.310  1.00  0.00    -0.074 C  
ENDBRANCH  30  31
ENDBRANCH  28  30
ENDBRANCH  19  28
ENDBRANCH  17  19
ENDBRANCH  15  17
ENDBRANCH   8  15
TORSDOF 9
ENDMDL
MODEL      170
REMARK 921   NORMALIZED FREE ENERGY PREDICTED BY IDOCK:   -4.19 KCAL/MOL
REMARK 922        TOTAL FREE ENERGY PREDICTED BY IDOCK:   -8.35 KCAL/MOL
REMARK 923 INTER-LIGAND FREE ENERGY PREDICTED BY IDOCK:   -7.02 KCAL/MOL
REMARK 924 INTRA-LIGAND FREE ENERGY PREDICTED BY IDOCK:   -1.33 KCAL/MOL
REMARK 927      BINDING AFFINITY PREDICTED BY RF-SCORE:    0.00 PKD
ROOT
ATOM      1  C   ALA A   1      -8.235   6.222  65.863  1.00  0.00    -0.129 C  
ATOM      2  C   ALA A   1      -7.845   7.685  65.736  1.00  0.00    -0.106 C  
ATOM      3  CA  ALA A   1      -8.555   8.310  66.947  1.00  0.00    -0.119 C  
ATOM      4  N   ALA A   1      -8.650   7.210  67.947  1.00  0.00    -0.124 N  
ATOM      5  C   ALA A   1      -9.919   8.861  66.526  1.00  0.00    -0.288 C  
ATOM      6  C   ALA A   1      -8.092   5.982  67.370  1.00  0.00    -0.106 C  
ATOM      7  O   ALA A   1     -10.955   8.059  66.855  1.00  0.00    -0.154 OA 
ATOM      8  C   ALA A   1      -8.670   7.403  69.333  1.00  0.00    -0.137 C  
ATOM      9  OXT ALA A   1     -10.057   9.906  65.906  1.00  0.00    -0.271 OA 
ATOM     10  C   ALA A   1      -7.425   5.222  65.061  1.00  0.00    -0.073 C  
ATOM     11  O   ALA A   1      -8.485   6.465  70.112  1.00  0.00    -0.131 OA 
ATOM     12  C   ALA A   1      -8.696   4.619  67.703  1.00  0.00    -0.108 C  
ATOM     13  C   ALA A   1      -7.893   3.802  65.397  1.00  0.00    -0.089 C  
ATOM     14  C   ALA A   1      -7.950   3.529  66.907  1.00  0.00    -0.080 C  
ENDROOT
BRANCH   8  15
ATOM     15  CA  ALA A   1      -8.904   8.863  69.863  1.00  0.00    -0.151 C  
ATOM     16  CB  ALA A   1      -7.615   9.677  69.720  1.00  0.00    -0.123 C  
BRANCH  15  17
ATOM     17  N   ALA A   1      -9.386   8.821  71.257  1.00  0.00    -0.225 NA 
ATOM     18  H   ALA A   1      -8.696   9.243  71.879  1.00  0.00     0.000 HD 
BRANCH  17  19
HETATM   19  C   UNK A   0     -10.719   9.431  71.487  1.00  0.00    -0.297 C  
BRANCH  19  20
HETATM   20  C   UNK A   0     -11.352   9.968  70.187  1.00  0.00    -0.357 C  
BRANCH  20  21
HETATM   21  C   UNK A   0     -12.267  11.184  70.408  1.00  0.00    -0.457 C  
BRANCH  21  22
HETATM   22  C   UNK A   0     -11.979  12.271  69.402  1.00  0.00    -0.318 A  
HETATM   23  C   UNK A   0     -12.107  13.621  69.751  1.00  0.00    -0.396 A  
HETATM   24  C   UNK A   0     -11.538  11.941  68.113  1.00  0.00    -0.400 A  
HETATM   25  C   UNK A   0     -11.815  14.622  68.825  1.00  0.00    -0.348 A  
HETATM   26  C   UNK A   0     -11.247  12.944  67.186  1.00  0.00    -0.329 A  
HETATM   27  C   UNK A   0     -11.386  14.284  67.542  1.00  0.00    -0.346 A  
ENDBRANCH  21  22
ENDBRANCH  20  21
ENDBRANCH  19  20
BRANCH  19  28
HETATM   28  C   UNK A   0     -11.659   8.372  72.101  1.00  0.00    -0.374 C  
HETATM   29  O   UNK A   0     -12.540   8.596  72.917  1.00  0.00    -0.289 OA 
BRANCH  28  30
HETATM   30  O   UNK A   0     -11.306   7.124  71.662  1.00  0.00    -0.240 OA 
BRANCH  30  31
HETATM   31  C   UNK A   0     -11.289   6.104  72.674  1.00  0.00    -0.259 C  
HETATM   32  C   UNK A   0      -9.980   6.217  73.438  1.00  0.00    -0.194 C  
ENDBRANCH  30  31
ENDBRANCH  28  30
ENDBRANCH  19  28
ENDBRANCH  17  19
ENDBRANCH  15  17
ENDBRANCH   8  15
TORSDOF 9
ENDMDL
MODEL      171
REMARK 921   NORMALIZED FREE ENERGY PREDICTED BY IDOCK:   -4.16 KCAL/MOL
REMARK 922        TOTAL FREE ENERGY PREDICTED BY IDOCK:   -8.29 KCAL/MOL
REMARK 923 INTER-LIGAND FREE ENERGY PREDICTED BY IDOCK:   -8.30 KCAL/MOL
REMARK 924 INTRA-LIGAND FREE ENERGY PREDICTED BY IDOCK:    0.01 KCAL/MOL
REMARK 927      BINDING AFFINITY PREDICTED BY RF-SCORE:    0.00 PKD
ROOT
ATOM      1  C   ALA A   1     -10.276   9.910  68.253  1.00  0.00    -0.204 C  
ATOM      2  C   ALA A   1     -10.982  10.764  67.214  1.00  0.00    -0.359 C  
ATOM      3  CA  ALA A   1     -10.473  12.172  67.559  1.00  0.00    -0.209 C  
ATOM      4  N   ALA A   1      -9.135  11.955  68.178  1.00  0.00    -0.185 N  
ATOM      5  C   ALA A   1     -11.463  12.872  68.493  1.00  0.00    -0.310 C  
ATOM      6  C   ALA A   1      -8.868  10.516  68.261  1.00  0.00    -0.139 C  
ATOM      7  O   ALA A   1     -11.085  12.866  69.790  1.00  0.00    -0.015 OA 
ATOM      8  C   ALA A   1      -8.082  12.876  68.123  1.00  0.00    -0.158 C  
ATOM      9  OXT ALA A   1     -12.521  13.349  68.110  1.00  0.00    -0.038 OA 
ATOM     10  C   ALA A   1     -10.236   8.415  68.004  1.00  0.00    -0.263 C  
ATOM     11  O   ALA A   1      -6.930  12.548  68.416  1.00  0.00    -0.081 OA 
ATOM     12  C   ALA A   1      -8.096   9.933  69.444  1.00  0.00    -0.139 C  
ATOM     13  C   ALA A   1      -9.397   7.739  69.093  1.00  0.00    -0.151 C  
ATOM     14  C   ALA A   1      -8.026   8.400  69.293  1.00  0.00    -0.113 C  
ENDROOT
BRANCH   8  15
ATOM     15  CA  ALA A   1      -8.413  14.335  67.644  1.00  0.00    -0.180 C  
ATOM     16  CB  ALA A   1      -9.095  15.108  68.776  1.00  0.00    -0.200 C  
BRANCH  15  17
ATOM     17  N   ALA A   1      -9.240  14.288  66.423  1.00  0.00    -0.448 NA 
ATOM     18  H   ALA A   1      -9.898  13.510  66.476  1.00  0.00     0.000 HD 
BRANCH  17  19
HETATM   19  C   UNK A   0      -9.961  15.543  66.096  1.00  0.00    -0.309 C  
BRANCH  19  20
HETATM   20  C   UNK A   0      -9.009  16.749  65.957  1.00  0.00    -0.220 C  
BRANCH  20  21
HETATM   21  C   UNK A   0      -9.580  18.050  66.544  1.00  0.00    -0.318 C  
BRANCH  21  22
HETATM   22  C   UNK A   0      -8.488  18.900  67.146  1.00  0.00    -0.290 A  
HETATM   23  C   UNK A   0      -7.979  18.614  68.419  1.00  0.00    -0.351 A  
HETATM   24  C   UNK A   0      -7.938  19.964  66.417  1.00  0.00    -0.345 A  
HETATM   25  C   UNK A   0      -6.952  19.388  68.960  1.00  0.00    -0.390 A  
HETATM   26  C   UNK A   0      -6.911  20.738  66.960  1.00  0.00    -0.386 A  
HETATM   27  C   UNK A   0      -6.418  20.450  68.231  1.00  0.00    -0.344 A  
ENDBRANCH  21  22
ENDBRANCH  20  21
ENDBRANCH  19  20
BRANCH  19  28
HETATM   28  C   UNK A   0     -10.727  15.353  64.770  1.00  0.00    -0.314 C  
HETATM   29  O   UNK A   0     -11.347  16.225  64.181  1.00  0.00    -0.788 OA 
BRANCH  28  30
HETATM   30  O   UNK A   0     -10.681  14.039  64.388  1.00  0.00    -0.377 OA 
BRANCH  30  31
HETATM   31  C   UNK A   0     -11.869  13.550  63.745  1.00  0.00    -0.381 C  
HETATM   32  C   UNK A   0     -12.875  13.184  64.824  1.00  0.00    -0.298 C  
ENDBRANCH  30  31
ENDBRANCH  28  30
ENDBRANCH  19  28
ENDBRANCH  17  19
ENDBRANCH  15  17
ENDBRANCH   8  15
TORSDOF 9
ENDMDL
MODEL      172
REMARK 921   NORMALIZED FREE ENERGY PREDICTED BY IDOCK:   -4.14 KCAL/MOL
REMARK 922        TOTAL FREE ENERGY PREDICTED BY IDOCK:   -8.27 KCAL/MOL
REMARK 923 INTER-LIGAND FREE ENERGY PREDICTED BY IDOCK:   -6.52 KCAL/MOL
REMARK 924 INTRA-LIGAND FREE ENERGY PREDICTED BY IDOCK:   -1.75 KCAL/MOL
REMARK 927      BINDING AFFINITY PREDICTED BY RF-SCORE:    0.00 PKD
ROOT
ATOM      1  C   ALA A   1      -6.986  13.439  68.087  1.00  0.00    -0.116 C  
ATOM      2  C   ALA A   1      -6.013  12.671  67.209  1.00  0.00    -0.077 C  
ATOM      3  CA  ALA A   1      -6.828  11.419  66.851  1.00  0.00    -0.142 C  
ATOM      4  N   ALA A   1      -8.251  11.856  66.910  1.00  0.00    -0.169 N  
ATOM      5  C   ALA A   1      -6.504  10.286  67.827  1.00  0.00    -0.062 C  
ATOM      6  C   ALA A   1      -8.308  13.259  67.332  1.00  0.00    -0.192 C  
ATOM      7  O   ALA A   1      -7.438  10.113  68.789  1.00  0.00    -0.079 OA 
ATOM      8  C   ALA A   1      -9.281  11.297  66.144  1.00  0.00    -0.206 C  
ATOM      9  OXT ALA A   1      -5.474   9.630  67.775  1.00  0.00    -0.037 OA 
ATOM     10  C   ALA A   1      -6.682  14.904  68.335  1.00  0.00    -0.101 C  
ATOM     11  O   ALA A   1     -10.372  11.859  66.034  1.00  0.00    -0.220 OA 
ATOM     12  C   ALA A   1      -9.446  13.760  68.221  1.00  0.00    -0.214 C  
ATOM     13  C   ALA A   1      -7.821  15.531  69.146  1.00  0.00    -0.215 C  
ATOM     14  C   ALA A   1      -9.208  15.247  68.553  1.00  0.00    -0.200 C  
ENDROOT
BRANCH   8  15
ATOM     15  CA  ALA A   1      -8.986   9.945  65.401  1.00  0.00    -0.184 C  
ATOM     16  CB  ALA A   1      -8.930  10.187  63.890  1.00  0.00    -0.270 C  
BRANCH  15  17
ATOM     17  N   ALA A   1     -10.002   8.939  65.767  1.00  0.00    -0.428 NA 
ATOM     18  H   ALA A   1     -10.066   8.226  65.041  1.00  0.00     0.000 HD 
BRANCH  17  19
HETATM   19  C   UNK A   0      -9.813   8.299  67.092  1.00  0.00    -0.217 C  
BRANCH  19  20
HETATM   20  C   UNK A   0     -10.980   8.593  68.059  1.00  0.00     0.091 C  
BRANCH  20  21
HETATM   21  C   UNK A   0     -10.714   9.784  68.995  1.00  0.00    -0.238 C  
BRANCH  21  22
HETATM   22  C   UNK A   0     -11.540   9.681  70.253  1.00  0.00    -0.255 A  
HETATM   23  C   UNK A   0     -12.281  10.777  70.714  1.00  0.00    -0.480 A  
HETATM   24  C   UNK A   0     -11.608   8.470  70.956  1.00  0.00    -0.317 A  
HETATM   25  C   UNK A   0     -13.062  10.668  71.864  1.00  0.00    -0.563 A  
HETATM   26  C   UNK A   0     -12.390   8.363  72.107  1.00  0.00    -0.426 A  
HETATM   27  C   UNK A   0     -13.117   9.462  72.562  1.00  0.00    -0.374 A  
ENDBRANCH  21  22
ENDBRANCH  20  21
ENDBRANCH  19  20
BRANCH  19  28
HETATM   28  C   UNK A   0      -9.693   6.772  66.903  1.00  0.00    -0.168 C  
HETATM   29  O   UNK A   0      -9.133   6.217  65.971  1.00  0.00    -0.156 OA 
BRANCH  28  30
HETATM   30  O   UNK A   0     -10.383   6.124  67.892  1.00  0.00    -0.159 OA 
BRANCH  30  31
HETATM   31  C   UNK A   0      -9.644   5.102  68.581  1.00  0.00    -0.142 C  
HETATM   32  C   UNK A   0      -9.482   5.531  70.030  1.00  0.00    -0.205 C  
ENDBRANCH  30  31
ENDBRANCH  28  30
ENDBRANCH  19  28
ENDBRANCH  17  19
ENDBRANCH  15  17
ENDBRANCH   8  15
TORSDOF 9
ENDMDL
MODEL      173
REMARK 921   NORMALIZED FREE ENERGY PREDICTED BY IDOCK:   -4.14 KCAL/MOL
REMARK 922        TOTAL FREE ENERGY PREDICTED BY IDOCK:   -8.27 KCAL/MOL
REMARK 923 INTER-LIGAND FREE ENERGY PREDICTED BY IDOCK:   -7.66 KCAL/MOL
REMARK 924 INTRA-LIGAND FREE ENERGY PREDICTED BY IDOCK:   -0.61 KCAL/MOL
REMARK 927      BINDING AFFINITY PREDICTED BY RF-SCORE:    0.00 PKD
ROOT
ATOM      1  C   ALA A   1     -10.652  11.990  64.806  1.00  0.00    -0.340 C  
ATOM      2  C   ALA A   1     -10.073  10.594  64.645  1.00  0.00    -0.417 C  
ATOM      3  CA  ALA A   1      -9.728  10.223  66.095  1.00  0.00    -0.211 C  
ATOM      4  N   ALA A   1     -10.687  10.999  66.929  1.00  0.00    -0.266 N  
ATOM      5  C   ALA A   1      -8.264  10.562  66.387  1.00  0.00    -0.140 C  
ATOM      6  C   ALA A   1     -11.523  11.832  66.057  1.00  0.00    -0.215 C  
ATOM      7  O   ALA A   1      -8.099  11.711  67.078  1.00  0.00    -0.152 OA 
ATOM      8  C   ALA A   1     -11.151  10.591  68.186  1.00  0.00    -0.287 C  
ATOM      9  OXT ALA A   1      -7.327   9.883  65.991  1.00  0.00    -0.098 OA 
ATOM     10  C   ALA A   1     -11.448  12.543  63.640  1.00  0.00    -0.568 C  
ATOM     11  O   ALA A   1     -12.129  11.126  68.711  1.00  0.00    -0.522 OA 
ATOM     12  C   ALA A   1     -11.980  13.219  66.508  1.00  0.00    -0.448 C  
ATOM     13  C   ALA A   1     -12.037  13.904  64.026  1.00  0.00    -0.437 C  
ATOM     14  C   ALA A   1     -12.782  13.879  65.369  1.00  0.00    -0.525 C  
ENDROOT
BRANCH   8  15
ATOM     15  CA  ALA A   1     -10.401   9.404  68.889  1.00  0.00    -0.213 C  
ATOM     16  CB  ALA A   1      -9.130   9.924  69.566  1.00  0.00    -0.237 C  
BRANCH  15  17
ATOM     17  N   ALA A   1     -10.113   8.338  67.908  1.00  0.00    -0.191 NA 
ATOM     18  H   ALA A   1      -9.158   8.002  68.027  1.00  0.00     0.000 HD 
BRANCH  17  19
HETATM   19  C   UNK A   0     -11.060   7.196  67.916  1.00  0.00     0.004 C  
BRANCH  19  20
HETATM   20  C   UNK A   0     -10.778   6.191  66.780  1.00  0.00    -0.371 C  
BRANCH  20  21
HETATM   21  C   UNK A   0      -9.409   6.392  66.110  1.00  0.00    -0.110 C  
BRANCH  21  22
HETATM   22  C   UNK A   0      -8.660   5.087  66.001  1.00  0.00    -0.121 A  
HETATM   23  C   UNK A   0      -9.216   3.998  65.318  1.00  0.00    -0.151 A  
HETATM   24  C   UNK A   0      -7.375   4.961  66.549  1.00  0.00    -0.082 A  
HETATM   25  C   UNK A   0      -8.508   2.802  65.199  1.00  0.00    -0.097 A  
HETATM   26  C   UNK A   0      -6.669   3.763  66.430  1.00  0.00    -0.049 A  
HETATM   27  C   UNK A   0      -7.235   2.683  65.756  1.00  0.00    -0.066 A  
ENDBRANCH  21  22
ENDBRANCH  20  21
ENDBRANCH  19  20
BRANCH  19  28
HETATM   28  C   UNK A   0     -10.954   6.463  69.270  1.00  0.00    -0.356 C  
HETATM   29  O   UNK A   0     -11.856   6.349  70.085  1.00  0.00    -0.409 OA 
BRANCH  28  30
HETATM   30  O   UNK A   0      -9.670   6.029  69.466  1.00  0.00    -0.142 OA 
BRANCH  30  31
HETATM   31  C   UNK A   0      -9.544   4.842  70.267  1.00  0.00    -0.195 C  
HETATM   32  C   UNK A   0      -9.399   3.653  69.332  1.00  0.00    -0.246 C  
ENDBRANCH  30  31
ENDBRANCH  28  30
ENDBRANCH  19  28
ENDBRANCH  17  19
ENDBRANCH  15  17
ENDBRANCH   8  15
TORSDOF 9
ENDMDL
MODEL      174
REMARK 921   NORMALIZED FREE ENERGY PREDICTED BY IDOCK:   -4.13 KCAL/MOL
REMARK 922        TOTAL FREE ENERGY PREDICTED BY IDOCK:   -8.25 KCAL/MOL
REMARK 923 INTER-LIGAND FREE ENERGY PREDICTED BY IDOCK:   -7.30 KCAL/MOL
REMARK 924 INTRA-LIGAND FREE ENERGY PREDICTED BY IDOCK:   -0.96 KCAL/MOL
REMARK 927      BINDING AFFINITY PREDICTED BY RF-SCORE:    0.00 PKD
ROOT
ATOM      1  C   ALA A   1      -8.484   6.453  65.287  1.00  0.00    -0.102 C  
ATOM      2  C   ALA A   1      -7.232   7.295  65.460  1.00  0.00    -0.066 C  
ATOM      3  CA  ALA A   1      -7.794   8.572  66.104  1.00  0.00    -0.098 C  
ATOM      4  N   ALA A   1      -9.012   8.129  66.837  1.00  0.00    -0.135 N  
ATOM      5  C   ALA A   1      -8.085   9.617  65.025  1.00  0.00    -0.127 C  
ATOM      6  C   ALA A   1      -9.218   6.694  66.610  1.00  0.00    -0.157 C  
ATOM      7  O   ALA A   1      -9.392   9.706  64.693  1.00  0.00    -0.260 OA 
ATOM      8  C   ALA A   1      -9.510   8.749  67.989  1.00  0.00    -0.143 C  
ATOM      9  OXT ALA A   1      -7.213  10.277  64.478  1.00  0.00    -0.134 OA 
ATOM     10  C   ALA A   1      -8.287   4.973  65.021  1.00  0.00    -0.140 C  
ATOM     11  O   ALA A   1     -10.352   8.197  68.699  1.00  0.00    -0.205 OA 
ATOM     12  C   ALA A   1     -10.628   6.117  66.496  1.00  0.00    -0.214 C  
ATOM     13  C   ALA A   1      -9.652   4.277  64.982  1.00  0.00    -0.179 C  
ATOM     14  C   ALA A   1     -10.531   4.608  66.197  1.00  0.00    -0.281 C  
ENDROOT
BRANCH   8  15
ATOM     15  CA  ALA A   1      -8.932  10.160  68.365  1.00  0.00    -0.123 C  
ATOM     16  CB  ALA A   1      -8.431  10.145  69.812  1.00  0.00    -0.147 C  
BRANCH  15  17
ATOM     17  N   ALA A   1      -9.956  11.199  68.140  1.00  0.00    -0.172 NA 
ATOM     18  H   ALA A   1     -10.728  10.818  67.593  1.00  0.00     0.000 HD 
BRANCH  17  19
HETATM   19  C   UNK A   0     -10.476  11.854  69.365  1.00  0.00     0.203 C  
BRANCH  19  20
HETATM   20  C   UNK A   0     -10.613  13.382  69.203  1.00  0.00    -0.035 C  
BRANCH  20  21
HETATM   21  C   UNK A   0     -12.072  13.870  69.206  1.00  0.00    -0.383 C  
BRANCH  21  22
HETATM   22  C   UNK A   0     -12.436  14.484  70.535  1.00  0.00    -0.408 A  
HETATM   23  C   UNK A   0     -13.745  14.403  71.026  1.00  0.00    -0.201 A  
HETATM   24  C   UNK A   0     -11.454  15.110  71.317  1.00  0.00    -0.395 A  
HETATM   25  C   UNK A   0     -14.070  14.950  72.267  1.00  0.00    -0.600 A  
HETATM   26  C   UNK A   0     -11.782  15.658  72.558  1.00  0.00    -0.567 A  
HETATM   27  C   UNK A   0     -13.089  15.580  73.033  1.00  0.00    -0.632 A  
ENDBRANCH  21  22
ENDBRANCH  20  21
ENDBRANCH  19  20
BRANCH  19  28
HETATM   28  C   UNK A   0     -11.859  11.261  69.706  1.00  0.00    -0.364 C  
HETATM   29  O   UNK A   0     -12.732  10.992  68.896  1.00  0.00    -0.216 OA 
BRANCH  28  30
HETATM   30  O   UNK A   0     -12.000  11.158  71.064  1.00  0.00    -0.293 OA 
BRANCH  30  31
HETATM   31  C   UNK A   0     -12.473   9.884  71.532  1.00  0.00    -0.411 C  
HETATM   32  C   UNK A   0     -11.278   9.093  72.039  1.00  0.00    -0.310 C  
ENDBRANCH  30  31
ENDBRANCH  28  30
ENDBRANCH  19  28
ENDBRANCH  17  19
ENDBRANCH  15  17
ENDBRANCH   8  15
TORSDOF 9
ENDMDL
MODEL      175
REMARK 921   NORMALIZED FREE ENERGY PREDICTED BY IDOCK:   -4.13 KCAL/MOL
REMARK 922        TOTAL FREE ENERGY PREDICTED BY IDOCK:   -8.25 KCAL/MOL
REMARK 923 INTER-LIGAND FREE ENERGY PREDICTED BY IDOCK:   -7.72 KCAL/MOL
REMARK 924 INTRA-LIGAND FREE ENERGY PREDICTED BY IDOCK:   -0.53 KCAL/MOL
REMARK 927      BINDING AFFINITY PREDICTED BY RF-SCORE:    0.00 PKD
ROOT
ATOM      1  C   ALA A   1     -11.819  11.720  69.255  1.00  0.00    -0.389 C  
ATOM      2  C   ALA A   1     -10.678  11.241  68.374  1.00  0.00    -0.238 C  
ATOM      3  CA  ALA A   1     -10.529  12.407  67.384  1.00  0.00    -0.215 C  
ATOM      4  N   ALA A   1     -11.004  13.606  68.128  1.00  0.00    -0.246 N  
ATOM      5  C   ALA A   1     -11.339  12.124  66.117  1.00  0.00    -0.361 C  
ATOM      6  C   ALA A   1     -11.467  13.198  69.458  1.00  0.00    -0.226 C  
ATOM      7  O   ALA A   1     -12.521  12.777  66.068  1.00  0.00    -0.540 OA 
ATOM      8  C   ALA A   1     -10.547  14.910  67.899  1.00  0.00    -0.254 C  
ATOM      9  OXT ALA A   1     -10.975  11.342  65.250  1.00  0.00    -0.234 OA 
ATOM     10  C   ALA A   1     -12.014  11.007  70.578  1.00  0.00    -0.474 C  
ATOM     11  O   ALA A   1     -10.769  15.815  68.705  1.00  0.00    -0.231 OA 
ATOM     12  C   ALA A   1     -12.658  13.894  70.117  1.00  0.00    -0.285 C  
ATOM     13  C   ALA A   1     -13.134  11.693  71.367  1.00  0.00    -0.342 C  
ATOM     14  C   ALA A   1     -12.952  13.215  71.470  1.00  0.00    -0.412 C  
ENDROOT
BRANCH   8  15
ATOM     15  CA  ALA A   1      -9.711  15.171  66.596  1.00  0.00    -0.258 C  
ATOM     16  CB  ALA A   1     -10.620  15.059  65.368  1.00  0.00    -0.398 C  
BRANCH  15  17
ATOM     17  N   ALA A   1      -8.571  14.235  66.533  1.00  0.00    -0.433 NA 
ATOM     18  H   ALA A   1      -8.055  14.370  65.664  1.00  0.00     0.000 HD 
BRANCH  17  19
HETATM   19  C   UNK A   0      -7.643  14.286  67.689  1.00  0.00    -0.176 C  
BRANCH  19  20
HETATM   20  C   UNK A   0      -6.613  13.137  67.669  1.00  0.00    -0.165 C  
BRANCH  20  21
HETATM   21  C   UNK A   0      -7.004  11.981  66.732  1.00  0.00     0.049 C  
BRANCH  21  22
HETATM   22  C   UNK A   0      -7.295  10.724  67.514  1.00  0.00    -0.092 A  
HETATM   23  C   UNK A   0      -7.121  10.689  68.903  1.00  0.00    -0.078 A  
HETATM   24  C   UNK A   0      -7.786   9.584  66.861  1.00  0.00    -0.101 A  
HETATM   25  C   UNK A   0      -7.415   9.531  69.623  1.00  0.00    -0.092 A  
HETATM   26  C   UNK A   0      -8.080   8.427  67.584  1.00  0.00    -0.118 A  
HETATM   27  C   UNK A   0      -7.894   8.399  68.964  1.00  0.00    -0.102 A  
ENDBRANCH  21  22
ENDBRANCH  20  21
ENDBRANCH  19  20
BRANCH  19  28
HETATM   28  C   UNK A   0      -6.890  15.633  67.672  1.00  0.00    -0.176 C  
HETATM   29  O   UNK A   0      -5.896  15.880  67.007  1.00  0.00    -0.329 OA 
BRANCH  28  30
HETATM   30  O   UNK A   0      -7.450  16.492  68.580  1.00  0.00    -0.173 OA 
BRANCH  30  31
HETATM   31  C   UNK A   0      -7.036  17.863  68.457  1.00  0.00    -0.254 C  
HETATM   32  C   UNK A   0      -8.277  18.739  68.516  1.00  0.00    -0.379 C  
ENDBRANCH  30  31
ENDBRANCH  28  30
ENDBRANCH  19  28
ENDBRANCH  17  19
ENDBRANCH  15  17
ENDBRANCH   8  15
TORSDOF 9
ENDMDL
MODEL      176
REMARK 921   NORMALIZED FREE ENERGY PREDICTED BY IDOCK:   -4.11 KCAL/MOL
REMARK 922        TOTAL FREE ENERGY PREDICTED BY IDOCK:   -8.22 KCAL/MOL
REMARK 923 INTER-LIGAND FREE ENERGY PREDICTED BY IDOCK:   -7.36 KCAL/MOL
REMARK 924 INTRA-LIGAND FREE ENERGY PREDICTED BY IDOCK:   -0.87 KCAL/MOL
REMARK 927      BINDING AFFINITY PREDICTED BY RF-SCORE:    0.00 PKD
ROOT
ATOM      1  C   ALA A   1     -11.759  12.978  65.861  1.00  0.00    -0.442 C  
ATOM      2  C   ALA A   1     -11.469  13.894  67.038  1.00  0.00    -0.367 C  
ATOM      3  CA  ALA A   1     -10.766  12.941  68.017  1.00  0.00    -0.228 C  
ATOM      4  N   ALA A   1     -10.124  11.910  67.155  1.00  0.00    -0.203 N  
ATOM      5  C   ALA A   1     -11.783  12.357  69.000  1.00  0.00    -0.323 C  
ATOM      6  C   ALA A   1     -10.458  12.176  65.752  1.00  0.00    -0.253 C  
ATOM      7  O   ALA A   1     -12.170  11.098  68.700  1.00  0.00    -0.582 OA 
ATOM      8  C   ALA A   1      -8.957  11.214  67.493  1.00  0.00    -0.139 C  
ATOM      9  OXT ALA A   1     -12.241  12.987  69.943  1.00  0.00    -0.277 OA 
ATOM     10  C   ALA A   1     -12.117  13.641  64.545  1.00  0.00    -0.459 C  
ATOM     11  O   ALA A   1      -8.328  10.574  66.648  1.00  0.00    -0.125 OA 
ATOM     12  C   ALA A   1     -10.679  11.025  64.771  1.00  0.00    -0.304 C  
ATOM     13  C   ALA A   1     -12.268  12.570  63.460  1.00  0.00    -0.652 C  
ATOM     14  C   ALA A   1     -11.077  11.603  63.398  1.00  0.00    -0.422 C  
ENDROOT
BRANCH   8  15
ATOM     15  CA  ALA A   1      -8.458  11.305  68.979  1.00  0.00     0.010 C  
ATOM     16  CB  ALA A   1      -6.930  11.401  69.007  1.00  0.00    -0.106 C  
BRANCH  15  17
ATOM     17  N   ALA A   1      -8.958  10.149  69.749  1.00  0.00    -0.360 NA 
ATOM     18  H   ALA A   1      -9.854  10.376  70.179  1.00  0.00     0.000 HD 
BRANCH  17  19
HETATM   19  C   UNK A   0      -9.064   8.879  68.990  1.00  0.00    -0.137 C  
BRANCH  19  20
HETATM   20  C   UNK A   0      -7.787   8.020  69.096  1.00  0.00    -0.108 C  
BRANCH  20  21
HETATM   21  C   UNK A   0      -6.969   8.295  70.370  1.00  0.00    -0.037 C  
BRANCH  21  22
HETATM   22  C   UNK A   0      -7.299   7.298  71.453  1.00  0.00    -0.077 A  
HETATM   23  C   UNK A   0      -6.893   5.963  71.344  1.00  0.00    -0.063 A  
HETATM   24  C   UNK A   0      -7.983   7.709  72.606  1.00  0.00    -0.132 A  
HETATM   25  C   UNK A   0      -7.178   5.051  72.360  1.00  0.00    -0.087 A  
HETATM   26  C   UNK A   0      -8.269   6.795  73.622  1.00  0.00    -0.122 A  
HETATM   27  C   UNK A   0      -7.868   5.467  73.499  1.00  0.00    -0.103 A  
ENDBRANCH  21  22
ENDBRANCH  20  21
ENDBRANCH  19  20
BRANCH  19  28
HETATM   28  C   UNK A   0     -10.259   8.066  69.531  1.00  0.00    -0.209 C  
HETATM   29  O   UNK A   0     -10.343   6.848  69.535  1.00  0.00    -0.193 OA 
BRANCH  28  30
HETATM   30  O   UNK A   0     -11.256   8.915  69.933  1.00  0.00    -0.189 OA 
BRANCH  30  31
HETATM   31  C   UNK A   0     -12.005   8.476  71.079  1.00  0.00    -0.231 C  
HETATM   32  C   UNK A   0     -12.369   9.700  71.903  1.00  0.00    -0.437 C  
ENDBRANCH  30  31
ENDBRANCH  28  30
ENDBRANCH  19  28
ENDBRANCH  17  19
ENDBRANCH  15  17
ENDBRANCH   8  15
TORSDOF 9
ENDMDL
MODEL      177
REMARK 921   NORMALIZED FREE ENERGY PREDICTED BY IDOCK:   -4.10 KCAL/MOL
REMARK 922        TOTAL FREE ENERGY PREDICTED BY IDOCK:   -8.21 KCAL/MOL
REMARK 923 INTER-LIGAND FREE ENERGY PREDICTED BY IDOCK:   -7.61 KCAL/MOL
REMARK 924 INTRA-LIGAND FREE ENERGY PREDICTED BY IDOCK:   -0.60 KCAL/MOL
REMARK 927      BINDING AFFINITY PREDICTED BY RF-SCORE:    0.00 PKD
ROOT
ATOM      1  C   ALA A   1     -10.344  17.285  66.844  1.00  0.00    -0.310 C  
ATOM      2  C   ALA A   1     -11.352  16.412  67.571  1.00  0.00     0.091 C  
ATOM      3  CA  ALA A   1     -10.862  14.999  67.220  1.00  0.00    -0.310 C  
ATOM      4  N   ALA A   1      -9.398  15.147  66.990  1.00  0.00    -0.220 N  
ATOM      5  C   ALA A   1     -11.614  14.474  65.996  1.00  0.00    -0.356 C  
ATOM      6  C   ALA A   1      -9.026  16.558  67.132  1.00  0.00    -0.205 C  
ATOM      7  O   ALA A   1     -10.909  14.556  64.846  1.00  0.00    -0.385 OA 
ATOM      8  C   ALA A   1      -8.457  14.134  67.214  1.00  0.00    -0.214 C  
ATOM      9  OXT ALA A   1     -12.765  14.062  66.042  1.00  0.00    -0.475 OA 
ATOM     10  C   ALA A   1     -10.276  18.744  67.253  1.00  0.00    -0.438 C  
ATOM     11  O   ALA A   1      -7.251  14.381  67.263  1.00  0.00    -0.170 OA 
ATOM     12  C   ALA A   1      -7.934  17.169  66.254  1.00  0.00    -0.339 C  
ATOM     13  C   ALA A   1      -9.137  19.433  66.492  1.00  0.00    -0.397 C  
ATOM     14  C   ALA A   1      -7.807  18.671  66.580  1.00  0.00    -0.287 C  
ENDROOT
BRANCH   8  15
ATOM     15  CA  ALA A   1      -8.996  12.675  67.435  1.00  0.00    -0.190 C  
ATOM     16  CB  ALA A   1      -8.166  11.976  68.517  1.00  0.00    -0.113 C  
BRANCH  15  17
ATOM     17  N   ALA A   1      -8.983  11.935  66.158  1.00  0.00    -0.353 NA 
ATOM     18  H   ALA A   1      -8.140  11.365  66.093  1.00  0.00     0.000 HD 
BRANCH  17  19
HETATM   19  C   UNK A   0     -10.182  11.103  65.894  1.00  0.00    -0.251 C  
BRANCH  19  20
HETATM   20  C   UNK A   0      -9.825   9.733  65.283  1.00  0.00    -0.335 C  
BRANCH  20  21
HETATM   21  C   UNK A   0      -8.371   9.305  65.547  1.00  0.00    -0.139 C  
BRANCH  21  22
HETATM   22  C   UNK A   0      -8.310   7.906  66.109  1.00  0.00    -0.127 A  
HETATM   23  C   UNK A   0      -7.079   7.271  66.315  1.00  0.00    -0.077 A  
HETATM   24  C   UNK A   0      -9.489   7.238  66.471  1.00  0.00    -0.218 A  
HETATM   25  C   UNK A   0      -7.027   5.988  66.859  1.00  0.00    -0.068 A  
HETATM   26  C   UNK A   0      -9.435   5.953  67.013  1.00  0.00    -0.134 A  
HETATM   27  C   UNK A   0      -8.205   5.327  67.207  1.00  0.00    -0.104 A  
ENDBRANCH  21  22
ENDBRANCH  20  21
ENDBRANCH  19  20
BRANCH  19  28
HETATM   28  C   UNK A   0     -10.941  10.878  67.219  1.00  0.00    -0.294 C  
HETATM   29  O   UNK A   0     -11.913  11.514  67.595  1.00  0.00    -0.630 OA 
BRANCH  28  30
HETATM   30  O   UNK A   0     -10.312   9.912  67.958  1.00  0.00    -0.179 OA 
BRANCH  30  31
HETATM   31  C   UNK A   0     -10.940   9.598  69.212  1.00  0.00    -0.168 C  
HETATM   32  C   UNK A   0      -9.886   9.011  70.136  1.00  0.00    -0.213 C  
ENDBRANCH  30  31
ENDBRANCH  28  30
ENDBRANCH  19  28
ENDBRANCH  17  19
ENDBRANCH  15  17
ENDBRANCH   8  15
TORSDOF 9
ENDMDL
MODEL      178
REMARK 921   NORMALIZED FREE ENERGY PREDICTED BY IDOCK:   -4.09 KCAL/MOL
REMARK 922        TOTAL FREE ENERGY PREDICTED BY IDOCK:   -8.19 KCAL/MOL
REMARK 923 INTER-LIGAND FREE ENERGY PREDICTED BY IDOCK:   -8.48 KCAL/MOL
REMARK 924 INTRA-LIGAND FREE ENERGY PREDICTED BY IDOCK:    0.29 KCAL/MOL
REMARK 927      BINDING AFFINITY PREDICTED BY RF-SCORE:    0.00 PKD
ROOT
ATOM      1  C   ALA A   1      -9.873   8.191  69.318  1.00  0.00    -0.182 C  
ATOM      2  C   ALA A   1      -9.755   9.398  70.233  1.00  0.00    -0.292 C  
ATOM      3  CA  ALA A   1      -8.876  10.343  69.401  1.00  0.00    -0.123 C  
ATOM      4  N   ALA A   1      -9.150   9.976  67.984  1.00  0.00    -0.131 N  
ATOM      5  C   ALA A   1      -7.407  10.173  69.794  1.00  0.00    -0.158 C  
ATOM      6  C   ALA A   1     -10.086   8.847  67.950  1.00  0.00    -0.206 C  
ATOM      7  O   ALA A   1      -6.695   9.419  68.928  1.00  0.00    -0.051 OA 
ATOM      8  C   ALA A   1      -9.065  10.867  66.907  1.00  0.00    -0.154 C  
ATOM      9  OXT ALA A   1      -6.930  10.634  70.821  1.00  0.00    -0.186 OA 
ATOM     10  C   ALA A   1     -10.970   7.193  69.633  1.00  0.00    -0.236 C  
ATOM     11  O   ALA A   1      -9.550  10.589  65.809  1.00  0.00    -0.187 OA 
ATOM     12  C   ALA A   1      -9.969   7.770  66.872  1.00  0.00    -0.331 C  
ATOM     13  C   ALA A   1     -11.001   6.111  68.549  1.00  0.00    -0.404 C  
ATOM     14  C   ALA A   1     -11.036   6.686  67.125  1.00  0.00    -0.478 C  
ENDROOT
BRANCH   8  15
ATOM     15  CA  ALA A   1      -8.358  12.247  67.156  1.00  0.00    -0.183 C  
ATOM     16  CB  ALA A   1      -6.848  12.036  67.301  1.00  0.00    -0.150 C  
BRANCH  15  17
ATOM     17  N   ALA A   1      -8.944  12.906  68.340  1.00  0.00    -0.320 NA 
ATOM     18  H   ALA A   1      -8.245  12.988  69.077  1.00  0.00     0.000 HD 
BRANCH  17  19
HETATM   19  C   UNK A   0      -9.574  14.225  68.086  1.00  0.00    -0.218 C  
BRANCH  19  20
HETATM   20  C   UNK A   0      -8.664  15.401  68.498  1.00  0.00    -0.178 C  
BRANCH  20  21
HETATM   21  C   UNK A   0      -9.421  16.549  69.186  1.00  0.00    -0.212 C  
BRANCH  21  22
HETATM   22  C   UNK A   0      -9.463  17.775  68.309  1.00  0.00    -0.290 A  
HETATM   23  C   UNK A   0      -8.446  18.736  68.375  1.00  0.00    -0.374 A  
HETATM   24  C   UNK A   0     -10.502  17.947  67.384  1.00  0.00    -0.390 A  
HETATM   25  C   UNK A   0      -8.476  19.855  67.543  1.00  0.00    -0.378 A  
HETATM   26  C   UNK A   0     -10.531  19.069  66.553  1.00  0.00    -0.522 A  
HETATM   27  C   UNK A   0      -9.519  20.023  66.632  1.00  0.00    -0.524 A  
ENDBRANCH  21  22
ENDBRANCH  20  21
ENDBRANCH  19  20
BRANCH  19  28
HETATM   28  C   UNK A   0      -9.898  14.347  66.582  1.00  0.00    -0.278 C  
HETATM   29  O   UNK A   0      -9.258  14.999  65.771  1.00  0.00    -0.241 OA 
BRANCH  28  30
HETATM   30  O   UNK A   0     -11.062  13.684  66.300  1.00  0.00    -0.298 OA 
BRANCH  30  31
HETATM   31  C   UNK A   0     -11.335  13.499  64.901  1.00  0.00    -0.334 C  
HETATM   32  C   UNK A   0     -12.284  14.599  64.455  1.00  0.00    -0.473 C  
ENDBRANCH  30  31
ENDBRANCH  28  30
ENDBRANCH  19  28
ENDBRANCH  17  19
ENDBRANCH  15  17
ENDBRANCH   8  15
TORSDOF 9
ENDMDL
MODEL      179
REMARK 921   NORMALIZED FREE ENERGY PREDICTED BY IDOCK:   -4.07 KCAL/MOL
REMARK 922        TOTAL FREE ENERGY PREDICTED BY IDOCK:   -8.15 KCAL/MOL
REMARK 923 INTER-LIGAND FREE ENERGY PREDICTED BY IDOCK:   -7.94 KCAL/MOL
REMARK 924 INTRA-LIGAND FREE ENERGY PREDICTED BY IDOCK:   -0.21 KCAL/MOL
REMARK 927      BINDING AFFINITY PREDICTED BY RF-SCORE:    0.00 PKD
ROOT
ATOM      1  C   ALA A   1      -9.835   5.126  67.709  1.00  0.00    -0.196 C  
ATOM      2  C   ALA A   1     -11.025   6.056  67.869  1.00  0.00    -0.334 C  
ATOM      3  CA  ALA A   1     -10.571   6.958  69.027  1.00  0.00    -0.217 C  
ATOM      4  N   ALA A   1      -9.084   6.971  68.943  1.00  0.00    -0.135 N  
ATOM      5  C   ALA A   1     -11.096   6.409  70.355  1.00  0.00    -0.339 C  
ATOM      6  C   ALA A   1      -8.653   6.092  67.851  1.00  0.00    -0.114 C  
ATOM      7  O   ALA A   1     -10.170   5.731  71.068  1.00  0.00    -0.199 OA 
ATOM      8  C   ALA A   1      -8.279   8.036  69.363  1.00  0.00    -0.122 C  
ATOM      9  OXT ALA A   1     -12.257   6.530  70.718  1.00  0.00    -0.328 OA 
ATOM     10  C   ALA A   1      -9.751   4.330  66.421  1.00  0.00    -0.228 C  
ATOM     11  O   ALA A   1      -7.093   8.108  69.036  1.00  0.00    -0.059 OA 
ATOM     12  C   ALA A   1      -7.369   5.273  67.969  1.00  0.00    -0.072 C  
ATOM     13  C   ALA A   1      -8.440   3.538  66.396  1.00  0.00    -0.108 C  
ATOM     14  C   ALA A   1      -7.209   4.403  66.706  1.00  0.00    -0.079 C  
ENDROOT
BRANCH   8  15
ATOM     15  CA  ALA A   1      -8.948   9.155  70.240  1.00  0.00    -0.217 C  
ATOM     16  CB  ALA A   1      -8.967   8.719  71.708  1.00  0.00    -0.283 C  
BRANCH  15  17
ATOM     17  N   ALA A   1     -10.300   9.453  69.728  1.00  0.00    -0.209 NA 
ATOM     18  H   ALA A   1     -11.004   9.122  70.388  1.00  0.00     0.000 HD 
BRANCH  17  19
HETATM   19  C   UNK A   0     -10.550  10.874  69.386  1.00  0.00    -0.197 C  
BRANCH  19  20
HETATM   20  C   UNK A   0     -10.947  11.062  67.907  1.00  0.00    -0.317 C  
BRANCH  20  21
HETATM   21  C   UNK A   0     -10.412   9.954  66.984  1.00  0.00    -0.296 C  
BRANCH  21  22
HETATM   22  C   UNK A   0     -10.176  10.476  65.588  1.00  0.00    -0.315 A  
HETATM   23  C   UNK A   0     -10.781  11.664  65.157  1.00  0.00    -0.351 A  
HETATM   24  C   UNK A   0      -9.312   9.798  64.717  1.00  0.00    -0.327 A  
HETATM   25  C   UNK A   0     -10.539  12.155  63.874  1.00  0.00    -0.457 A  
HETATM   26  C   UNK A   0      -9.072  10.290  63.433  1.00  0.00    -0.284 A  
HETATM   27  C   UNK A   0      -9.686  11.468  63.011  1.00  0.00    -0.382 A  
ENDBRANCH  21  22
ENDBRANCH  20  21
ENDBRANCH  19  20
BRANCH  19  28
HETATM   28  C   UNK A   0     -11.684  11.416  70.281  1.00  0.00    -0.306 C  
HETATM   29  O   UNK A   0     -12.153  12.543  70.225  1.00  0.00    -0.349 OA 
BRANCH  28  30
HETATM   30  O   UNK A   0     -12.035  10.475  71.211  1.00  0.00    -0.345 OA 
BRANCH  30  31
HETATM   31  C   UNK A   0     -13.424  10.107  71.213  1.00  0.00    -0.228 C  
HETATM   32  C   UNK A   0     -13.668   9.181  72.392  1.00  0.00    -0.543 C  
ENDBRANCH  30  31
ENDBRANCH  28  30
ENDBRANCH  19  28
ENDBRANCH  17  19
ENDBRANCH  15  17
ENDBRANCH   8  15
TORSDOF 9
ENDMDL
MODEL      180
REMARK 921   NORMALIZED FREE ENERGY PREDICTED BY IDOCK:   -4.06 KCAL/MOL
REMARK 922        TOTAL FREE ENERGY PREDICTED BY IDOCK:   -8.15 KCAL/MOL
REMARK 923 INTER-LIGAND FREE ENERGY PREDICTED BY IDOCK:   -6.42 KCAL/MOL
REMARK 924 INTRA-LIGAND FREE ENERGY PREDICTED BY IDOCK:   -1.72 KCAL/MOL
REMARK 927      BINDING AFFINITY PREDICTED BY RF-SCORE:    0.00 PKD
ROOT
ATOM      1  C   ALA A   1      -9.753   4.299  70.711  1.00  0.00    -0.274 C  
ATOM      2  C   ALA A   1      -8.734   4.545  69.612  1.00  0.00    -0.115 C  
ATOM      3  CA  ALA A   1      -9.063   5.985  69.189  1.00  0.00    -0.123 C  
ATOM      4  N   ALA A   1      -9.644   6.619  70.405  1.00  0.00    -0.166 N  
ATOM      5  C   ALA A   1     -10.024   5.973  67.998  1.00  0.00    -0.142 C  
ATOM      6  C   ALA A   1      -9.720   5.625  71.480  1.00  0.00    -0.161 C  
ATOM      7  O   ALA A   1     -11.310   6.217  68.333  1.00  0.00    -0.298 OA 
ATOM      8  C   ALA A   1      -9.558   7.985  70.700  1.00  0.00    -0.166 C  
ATOM      9  OXT ALA A   1      -9.672   5.719  66.855  1.00  0.00    -0.132 OA 
ATOM     10  C   ALA A   1      -9.504   3.117  71.629  1.00  0.00    -0.214 C  
ATOM     11  O   ALA A   1      -9.817   8.413  71.826  1.00  0.00    -0.195 OA 
ATOM     12  C   ALA A   1     -10.881   5.637  72.473  1.00  0.00    -0.299 C  
ATOM     13  C   ALA A   1     -10.569   3.094  72.730  1.00  0.00    -0.169 C  
ATOM     14  C   ALA A   1     -10.729   4.446  73.440  1.00  0.00    -0.315 C  
ENDROOT
BRANCH   8  15
ATOM     15  CA  ALA A   1      -9.088   8.951  69.554  1.00  0.00    -0.146 C  
ATOM     16  CB  ALA A   1      -7.794   9.656  69.971  1.00  0.00    -0.173 C  
BRANCH  15  17
ATOM     17  N   ALA A   1     -10.164   9.907  69.228  1.00  0.00    -0.195 NA 
ATOM     18  H   ALA A   1     -10.150  10.686  69.885  1.00  0.00     0.000 HD 
BRANCH  17  19
HETATM   19  C   UNK A   0     -10.160  10.415  67.834  1.00  0.00    -0.171 C  
BRANCH  19  20
HETATM   20  C   UNK A   0     -10.385   9.294  66.798  1.00  0.00    -0.296 C  
BRANCH  20  21
HETATM   21  C   UNK A   0      -9.462   9.399  65.573  1.00  0.00    -0.328 C  
BRANCH  21  22
HETATM   22  C   UNK A   0      -8.016   9.514  65.990  1.00  0.00    -0.107 A  
HETATM   23  C   UNK A   0      -7.352  10.746  65.936  1.00  0.00    -0.094 A  
HETATM   24  C   UNK A   0      -7.331   8.392  66.479  1.00  0.00    -0.081 A  
HETATM   25  C   UNK A   0      -6.023  10.851  66.347  1.00  0.00    -0.131 A  
HETATM   26  C   UNK A   0      -6.001   8.500  66.889  1.00  0.00    -0.053 A  
HETATM   27  C   UNK A   0      -5.347   9.728  66.822  1.00  0.00    -0.045 A  
ENDBRANCH  21  22
ENDBRANCH  20  21
ENDBRANCH  19  20
BRANCH  19  28
HETATM   28  C   UNK A   0     -11.276  11.470  67.680  1.00  0.00    -0.281 C  
HETATM   29  O   UNK A   0     -12.137  11.716  68.510  1.00  0.00    -0.491 OA 
BRANCH  28  30
HETATM   30  O   UNK A   0     -11.214  12.035  66.434  1.00  0.00    -0.306 OA 
BRANCH  30  31
HETATM   31  C   UNK A   0     -12.244  12.996  66.149  1.00  0.00    -0.360 C  
HETATM   32  C   UNK A   0     -11.666  14.386  66.358  1.00  0.00    -0.397 C  
ENDBRANCH  30  31
ENDBRANCH  28  30
ENDBRANCH  19  28
ENDBRANCH  17  19
ENDBRANCH  15  17
ENDBRANCH   8  15
TORSDOF 9
ENDMDL
MODEL      181
REMARK 921   NORMALIZED FREE ENERGY PREDICTED BY IDOCK:   -4.06 KCAL/MOL
REMARK 922        TOTAL FREE ENERGY PREDICTED BY IDOCK:   -8.14 KCAL/MOL
REMARK 923 INTER-LIGAND FREE ENERGY PREDICTED BY IDOCK:   -6.55 KCAL/MOL
REMARK 924 INTRA-LIGAND FREE ENERGY PREDICTED BY IDOCK:   -1.60 KCAL/MOL
REMARK 927      BINDING AFFINITY PREDICTED BY RF-SCORE:    0.00 PKD
ROOT
ATOM      1  C   ALA A   1     -11.305  13.628  64.837  1.00  0.00    -0.353 C  
ATOM      2  C   ALA A   1     -11.927  12.256  65.027  1.00  0.00    -0.413 C  
ATOM      3  CA  ALA A   1     -10.949  11.595  66.010  1.00  0.00    -0.286 C  
ATOM      4  N   ALA A   1     -10.357  12.724  66.780  1.00  0.00    -0.238 N  
ATOM      5  C   ALA A   1      -9.908  10.778  65.242  1.00  0.00    -0.272 C  
ATOM      6  C   ALA A   1     -10.889  13.991  66.267  1.00  0.00    -0.291 C  
ATOM      7  O   ALA A   1      -8.714  11.399  65.114  1.00  0.00     0.000 OA 
ATOM      8  C   ALA A   1      -9.895  12.625  68.098  1.00  0.00    -0.226 C  
ATOM      9  OXT ALA A   1     -10.146   9.686  64.746  1.00  0.00    -0.007 OA 
ATOM     10  C   ALA A   1     -12.181  14.703  64.222  1.00  0.00    -0.432 C  
ATOM     11  O   ALA A   1      -9.662  13.631  68.771  1.00  0.00    -0.157 OA 
ATOM     12  C   ALA A   1     -10.012  15.241  66.214  1.00  0.00    -0.304 C  
ATOM     13  C   ALA A   1     -11.421  16.034  64.210  1.00  0.00    -0.162 C  
ATOM     14  C   ALA A   1     -10.813  16.392  65.574  1.00  0.00    -0.224 C  
ENDROOT
BRANCH   8  15
ATOM     15  CA  ALA A   1      -9.714  11.186  68.700  1.00  0.00    -0.198 C  
ATOM     16  CB  ALA A   1     -10.920  10.838  69.578  1.00  0.00    -0.317 C  
BRANCH  15  17
ATOM     17  N   ALA A   1      -8.442  11.108  69.444  1.00  0.00    -0.368 NA 
ATOM     18  H   ALA A   1      -8.547  11.534  70.364  1.00  0.00     0.000 HD 
BRANCH  17  19
HETATM   19  C   UNK A   0      -7.866   9.747  69.575  1.00  0.00    -0.128 C  
BRANCH  19  20
HETATM   20  C   UNK A   0      -7.455   9.147  68.214  1.00  0.00    -0.083 C  
BRANCH  20  21
HETATM   21  C   UNK A   0      -7.429   7.610  68.205  1.00  0.00    -0.104 C  
BRANCH  21  22
HETATM   22  C   UNK A   0      -8.777   7.041  68.574  1.00  0.00    -0.122 A  
HETATM   23  C   UNK A   0      -9.913   7.342  67.811  1.00  0.00    -0.208 A  
HETATM   24  C   UNK A   0      -8.902   6.167  69.663  1.00  0.00    -0.134 A  
HETATM   25  C   UNK A   0     -11.152   6.794  68.141  1.00  0.00    -0.229 A  
HETATM   26  C   UNK A   0     -10.143   5.620  69.992  1.00  0.00    -0.295 A  
HETATM   27  C   UNK A   0     -11.268   5.933  69.233  1.00  0.00    -0.255 A  
ENDBRANCH  21  22
ENDBRANCH  20  21
ENDBRANCH  19  20
BRANCH  19  28
HETATM   28  C   UNK A   0      -6.624   9.811  70.489  1.00  0.00    -0.117 C  
HETATM   29  O   UNK A   0      -5.470   9.928  70.107  1.00  0.00    -0.039 OA 
BRANCH  28  30
HETATM   30  O   UNK A   0      -6.996   9.632  71.795  1.00  0.00    -0.245 OA 
BRANCH  30  31
HETATM   31  C   UNK A   0      -7.351   8.285  72.147  1.00  0.00    -0.102 C  
HETATM   32  C   UNK A   0      -8.084   8.322  73.478  1.00  0.00    -0.237 C  
ENDBRANCH  30  31
ENDBRANCH  28  30
ENDBRANCH  19  28
ENDBRANCH  17  19
ENDBRANCH  15  17
ENDBRANCH   8  15
TORSDOF 9
ENDMDL
MODEL      182
REMARK 921   NORMALIZED FREE ENERGY PREDICTED BY IDOCK:   -4.06 KCAL/MOL
REMARK 922        TOTAL FREE ENERGY PREDICTED BY IDOCK:   -8.14 KCAL/MOL
REMARK 923 INTER-LIGAND FREE ENERGY PREDICTED BY IDOCK:   -6.63 KCAL/MOL
REMARK 924 INTRA-LIGAND FREE ENERGY PREDICTED BY IDOCK:   -1.51 KCAL/MOL
REMARK 927      BINDING AFFINITY PREDICTED BY RF-SCORE:    0.00 PKD
ROOT
ATOM      1  C   ALA A   1      -8.267   7.498  64.348  1.00  0.00    -0.018 C  
ATOM      2  C   ALA A   1      -7.515   8.746  63.916  1.00  0.00    -0.117 C  
ATOM      3  CA  ALA A   1      -8.001   9.781  64.943  1.00  0.00    -0.133 C  
ATOM      4  N   ALA A   1      -8.345   8.987  66.155  1.00  0.00    -0.118 N  
ATOM      5  C   ALA A   1      -9.188  10.562  64.376  1.00  0.00    -0.245 C  
ATOM      6  C   ALA A   1      -8.143   7.562  65.874  1.00  0.00    -0.127 C  
ATOM      7  O   ALA A   1     -10.386  10.148  64.844  1.00  0.00    -0.236 OA 
ATOM      8  C   ALA A   1      -8.271   9.475  67.465  1.00  0.00    -0.121 C  
ATOM      9  OXT ALA A   1      -9.070  11.447  63.540  1.00  0.00    -0.125 OA 
ATOM     10  C   ALA A   1      -7.770   6.172  63.804  1.00  0.00    -0.109 C  
ATOM     11  O   ALA A   1      -8.310   8.713  68.434  1.00  0.00    -0.124 OA 
ATOM     12  C   ALA A   1      -9.069   6.508  66.480  1.00  0.00    -0.166 C  
ATOM     13  C   ALA A   1      -8.578   5.030  64.429  1.00  0.00    -0.135 C  
ATOM     14  C   ALA A   1      -8.656   5.117  65.960  1.00  0.00    -0.124 C  
ENDROOT
BRANCH   8  15
ATOM     15  CA  ALA A   1      -8.102  11.024  67.658  1.00  0.00    -0.116 C  
ATOM     16  CB  ALA A   1      -7.459  11.309  69.019  1.00  0.00    -0.116 C  
BRANCH  15  17
ATOM     17  N   ALA A   1      -9.408  11.696  67.507  1.00  0.00    -0.166 NA 
ATOM     18  H   ALA A   1      -9.996  11.174  66.858  1.00  0.00     0.000 HD 
BRANCH  17  19
HETATM   19  C   UNK A   0     -10.143  11.946  68.771  1.00  0.00    -0.120 C  
BRANCH  19  20
HETATM   20  C   UNK A   0     -10.734  13.369  68.836  1.00  0.00    -0.219 C  
BRANCH  20  21
HETATM   21  C   UNK A   0     -10.053  14.360  67.877  1.00  0.00    -0.228 C  
BRANCH  21  22
HETATM   22  C   UNK A   0     -10.905  14.607  66.656  1.00  0.00    -0.312 A  
HETATM   23  C   UNK A   0     -10.555  15.597  65.729  1.00  0.00    -0.374 A  
HETATM   24  C   UNK A   0     -12.038  13.818  66.413  1.00  0.00    -0.483 A  
HETATM   25  C   UNK A   0     -11.332  15.804  64.589  1.00  0.00    -0.343 A  
HETATM   26  C   UNK A   0     -12.814  14.027  65.273  1.00  0.00    -0.418 A  
HETATM   27  C   UNK A   0     -12.463  15.020  64.361  1.00  0.00    -0.159 A  
ENDBRANCH  21  22
ENDBRANCH  20  21
ENDBRANCH  19  20
BRANCH  19  28
HETATM   28  C   UNK A   0     -11.289  10.921  68.900  1.00  0.00    -0.288 C  
HETATM   29  O   UNK A   0     -12.331  10.942  68.263  1.00  0.00    -0.400 OA 
BRANCH  28  30
HETATM   30  O   UNK A   0     -11.006  10.026  69.897  1.00  0.00    -0.253 OA 
BRANCH  30  31
HETATM   31  C   UNK A   0     -11.942  10.012  70.987  1.00  0.00    -0.376 C  
HETATM   32  C   UNK A   0     -11.985   8.604  71.556  1.00  0.00    -0.362 C  
ENDBRANCH  30  31
ENDBRANCH  28  30
ENDBRANCH  19  28
ENDBRANCH  17  19
ENDBRANCH  15  17
ENDBRANCH   8  15
TORSDOF 9
ENDMDL
MODEL      183
REMARK 921   NORMALIZED FREE ENERGY PREDICTED BY IDOCK:   -4.05 KCAL/MOL
REMARK 922        TOTAL FREE ENERGY PREDICTED BY IDOCK:   -8.12 KCAL/MOL
REMARK 923 INTER-LIGAND FREE ENERGY PREDICTED BY IDOCK:   -7.20 KCAL/MOL
REMARK 924 INTRA-LIGAND FREE ENERGY PREDICTED BY IDOCK:   -0.92 KCAL/MOL
REMARK 927      BINDING AFFINITY PREDICTED BY RF-SCORE:    0.00 PKD
ROOT
ATOM      1  C   ALA A   1     -11.183  10.510  69.982  1.00  0.00    -0.386 C  
ATOM      2  C   ALA A   1     -12.118  11.100  68.940  1.00  0.00    -0.276 C  
ATOM      3  CA  ALA A   1     -11.235  12.181  68.297  1.00  0.00    -0.268 C  
ATOM      4  N   ALA A   1      -9.840  11.689  68.468  1.00  0.00    -0.201 N  
ATOM      5  C   ALA A   1     -11.486  13.531  68.972  1.00  0.00    -0.303 C  
ATOM      6  C   ALA A   1      -9.860  10.427  69.215  1.00  0.00    -0.225 C  
ATOM      7  O   ALA A   1     -10.536  13.875  69.869  1.00  0.00     0.228 OA 
ATOM      8  C   ALA A   1      -8.785  11.987  67.596  1.00  0.00    -0.166 C  
ATOM      9  OXT ALA A   1     -12.477  14.214  68.757  1.00  0.00    -0.170 OA 
ATOM     10  C   ALA A   1     -11.570   9.167  70.572  1.00  0.00    -0.238 C  
ATOM     11  O   ALA A   1      -7.729  11.353  67.631  1.00  0.00    -0.111 OA 
ATOM     12  C   ALA A   1      -8.746  10.088  70.205  1.00  0.00    -0.032 C  
ATOM     13  C   ALA A   1     -10.463   8.688  71.516  1.00  0.00    -0.344 C  
ATOM     14  C   ALA A   1      -9.066   8.741  70.881  1.00  0.00    -0.256 C  
ENDROOT
BRANCH   8  15
ATOM     15  CA  ALA A   1      -9.007  13.136  66.550  1.00  0.00    -0.059 C  
ATOM     16  CB  ALA A   1      -8.583  14.477  67.156  1.00  0.00    -0.242 C  
BRANCH  15  17
ATOM     17  N   ALA A   1     -10.415  13.147  66.104  1.00  0.00    -0.276 NA 
ATOM     18  H   ALA A   1     -10.824  14.068  66.258  1.00  0.00     0.000 HD 
BRANCH  17  19
HETATM   19  C   UNK A   0     -10.640  12.717  64.703  1.00  0.00    -0.349 C  
BRANCH  19  20
HETATM   20  C   UNK A   0     -10.832  11.191  64.578  1.00  0.00    -0.320 C  
BRANCH  20  21
HETATM   21  C   UNK A   0      -9.580  10.455  64.074  1.00  0.00    -0.376 C  
BRANCH  21  22
HETATM   22  C   UNK A   0      -9.087   9.459  65.095  1.00  0.00    -0.280 A  
HETATM   23  C   UNK A   0      -7.729   9.127  65.172  1.00  0.00    -0.104 A  
HETATM   24  C   UNK A   0      -9.981   8.884  66.009  1.00  0.00    -0.199 A  
HETATM   25  C   UNK A   0      -7.276   8.224  66.134  1.00  0.00    -0.070 A  
HETATM   26  C   UNK A   0      -9.526   7.980  66.970  1.00  0.00    -0.223 A  
HETATM   27  C   UNK A   0      -8.174   7.649  67.033  1.00  0.00    -0.117 A  
ENDBRANCH  21  22
ENDBRANCH  20  21
ENDBRANCH  19  20
BRANCH  19  28
HETATM   28  C   UNK A   0     -11.896  13.426  64.154  1.00  0.00    -0.442 C  
HETATM   29  O   UNK A   0     -12.498  13.114  63.138  1.00  0.00    -0.686 OA 
BRANCH  28  30
HETATM   30  O   UNK A   0     -12.192  14.517  64.928  1.00  0.00    -0.412 OA 
BRANCH  30  31
HETATM   31  C   UNK A   0     -11.951  15.789  64.305  1.00  0.00    -0.058 C  
HETATM   32  C   UNK A   0     -10.820  16.476  65.053  1.00  0.00    -0.245 C  
ENDBRANCH  30  31
ENDBRANCH  28  30
ENDBRANCH  19  28
ENDBRANCH  17  19
ENDBRANCH  15  17
ENDBRANCH   8  15
TORSDOF 9
ENDMDL
MODEL      184
REMARK 921   NORMALIZED FREE ENERGY PREDICTED BY IDOCK:   -4.02 KCAL/MOL
REMARK 922        TOTAL FREE ENERGY PREDICTED BY IDOCK:   -8.07 KCAL/MOL
REMARK 923 INTER-LIGAND FREE ENERGY PREDICTED BY IDOCK:   -7.27 KCAL/MOL
REMARK 924 INTRA-LIGAND FREE ENERGY PREDICTED BY IDOCK:   -0.80 KCAL/MOL
REMARK 927      BINDING AFFINITY PREDICTED BY RF-SCORE:    0.00 PKD
ROOT
ATOM      1  C   ALA A   1      -7.708  18.997  68.651  1.00  0.00    -0.378 C  
ATOM      2  C   ALA A   1      -9.193  18.722  68.481  1.00  0.00    -0.386 C  
ATOM      3  CA  ALA A   1      -9.185  17.364  67.764  1.00  0.00    -0.248 C  
ATOM      4  N   ALA A   1      -7.919  16.708  68.195  1.00  0.00    -0.172 N  
ATOM      5  C   ALA A   1      -9.272  17.572  66.250  1.00  0.00    -0.203 C  
ATOM      6  C   ALA A   1      -7.175  17.622  69.067  1.00  0.00    -0.214 C  
ATOM      7  O   ALA A   1      -8.085  17.447  65.615  1.00  0.00    -0.485 OA 
ATOM      8  C   ALA A   1      -7.741  15.323  68.291  1.00  0.00    -0.112 C  
ATOM      9  OXT ALA A   1     -10.307  17.870  65.673  1.00  0.00    -0.605 OA 
ATOM     10  C   ALA A   1      -7.316  20.071  69.647  1.00  0.00     0.066 C  
ATOM     11  O   ALA A   1      -6.780  14.843  68.896  1.00  0.00    -0.092 OA 
ATOM     12  C   ALA A   1      -5.647  17.663  69.031  1.00  0.00    -0.182 C  
ATOM     13  C   ALA A   1      -5.789  20.129  69.758  1.00  0.00    -0.366 C  
ATOM     14  C   ALA A   1      -5.150  18.754  70.000  1.00  0.00    -0.192 C  
ENDROOT
BRANCH   8  15
ATOM     15  CA  ALA A   1      -8.827  14.400  67.631  1.00  0.00    -0.193 C  
ATOM     16  CB  ALA A   1      -9.708  13.779  68.719  1.00  0.00    -0.069 C  
BRANCH  15  17
ATOM     17  N   ALA A   1      -8.174  13.377  66.791  1.00  0.00    -0.406 NA 
ATOM     18  H   ALA A   1      -7.178  13.577  66.707  1.00  0.00     0.000 HD 
BRANCH  17  19
HETATM   19  C   UNK A   0      -8.378  11.974  67.227  1.00  0.00    -0.176 C  
BRANCH  19  20
HETATM   20  C   UNK A   0      -9.170  11.145  66.193  1.00  0.00    -0.216 C  
BRANCH  20  21
HETATM   21  C   UNK A   0     -10.693  11.223  66.385  1.00  0.00    -0.320 C  
BRANCH  21  22
HETATM   22  C   UNK A   0     -11.083  10.856  67.795  1.00  0.00    -0.371 A  
HETATM   23  C   UNK A   0     -10.722   9.616  68.337  1.00  0.00    -0.251 A  
HETATM   24  C   UNK A   0     -11.778  11.773  68.598  1.00  0.00    -0.389 A  
HETATM   25  C   UNK A   0     -11.064   9.293  69.651  1.00  0.00    -0.134 A  
HETATM   26  C   UNK A   0     -12.120  11.446  69.911  1.00  0.00    -0.404 A  
HETATM   27  C   UNK A   0     -11.763  10.207  70.438  1.00  0.00    -0.390 A  
ENDBRANCH  21  22
ENDBRANCH  20  21
ENDBRANCH  19  20
BRANCH  19  28
HETATM   28  C   UNK A   0      -7.002  11.311  67.450  1.00  0.00    -0.101 C  
HETATM   29  O   UNK A   0      -6.333  11.395  68.469  1.00  0.00    -0.046 OA 
BRANCH  28  30
HETATM   30  O   UNK A   0      -6.596  10.680  66.305  1.00  0.00    -0.108 OA 
BRANCH  30  31
HETATM   31  C   UNK A   0      -5.893   9.443  66.507  1.00  0.00    -0.058 C  
HETATM   32  C   UNK A   0      -6.915   8.319  66.543  1.00  0.00    -0.068 C  
ENDBRANCH  30  31
ENDBRANCH  28  30
ENDBRANCH  19  28
ENDBRANCH  17  19
ENDBRANCH  15  17
ENDBRANCH   8  15
TORSDOF 9
ENDMDL
MODEL      185
REMARK 921   NORMALIZED FREE ENERGY PREDICTED BY IDOCK:   -4.00 KCAL/MOL
REMARK 922        TOTAL FREE ENERGY PREDICTED BY IDOCK:   -8.05 KCAL/MOL
REMARK 923 INTER-LIGAND FREE ENERGY PREDICTED BY IDOCK:   -7.05 KCAL/MOL
REMARK 924 INTRA-LIGAND FREE ENERGY PREDICTED BY IDOCK:   -1.01 KCAL/MOL
REMARK 927      BINDING AFFINITY PREDICTED BY RF-SCORE:    0.00 PKD
ROOT
ATOM      1  C   ALA A   1     -10.906   7.621  72.690  1.00  0.00    -0.395 C  
ATOM      2  C   ALA A   1     -12.041   7.427  71.700  1.00  0.00    -0.349 C  
ATOM      3  CA  ALA A   1     -11.743   8.514  70.656  1.00  0.00    -0.144 C  
ATOM      4  N   ALA A   1     -10.268   8.710  70.716  1.00  0.00    -0.196 N  
ATOM      5  C   ALA A   1     -12.534   9.783  70.983  1.00  0.00    -0.323 C  
ATOM      6  C   ALA A   1      -9.708   7.848  71.762  1.00  0.00    -0.170 C  
ATOM      7  O   ALA A   1     -11.799  10.743  71.586  1.00  0.00    -0.028 OA 
ATOM      8  C   ALA A   1      -9.482   9.124  69.634  1.00  0.00    -0.172 C  
ATOM      9  OXT ALA A   1     -13.731   9.902  70.763  1.00  0.00    -0.187 OA 
ATOM     10  C   ALA A   1     -10.646   6.493  73.669  1.00  0.00    -0.306 C  
ATOM     11  O   ALA A   1      -8.255   9.018  69.659  1.00  0.00    -0.106 OA 
ATOM     12  C   ALA A   1      -8.523   8.316  72.607  1.00  0.00    -0.248 C  
ATOM     13  C   ALA A   1      -9.407   6.822  74.509  1.00  0.00    -0.248 C  
ATOM     14  C   ALA A   1      -8.197   7.237  73.658  1.00  0.00    -0.155 C  
ENDROOT
BRANCH   8  15
ATOM     15  CA  ALA A   1     -10.222   9.698  68.373  1.00  0.00    -0.188 C  
ATOM     16  CB  ALA A   1     -10.528   8.562  67.392  1.00  0.00    -0.351 C  
BRANCH  15  17
ATOM     17  N   ALA A   1      -9.409  10.764  67.755  1.00  0.00    -0.150 NA 
ATOM     18  H   ALA A   1      -8.955  10.413  66.912  1.00  0.00     0.000 HD 
BRANCH  17  19
HETATM   19  C   UNK A   0     -10.135  12.023  67.456  1.00  0.00    -0.195 C  
BRANCH  19  20
HETATM   20  C   UNK A   0      -9.295  13.277  67.777  1.00  0.00    -0.209 C  
BRANCH  20  21
HETATM   21  C   UNK A   0      -7.792  13.092  67.508  1.00  0.00    -0.178 C  
BRANCH  21  22
HETATM   22  C   UNK A   0      -7.000  13.142  68.791  1.00  0.00    -0.103 A  
HETATM   23  C   UNK A   0      -6.451  11.976  69.339  1.00  0.00    -0.115 A  
HETATM   24  C   UNK A   0      -6.767  14.368  69.431  1.00  0.00    -0.140 A  
HETATM   25  C   UNK A   0      -5.698  12.032  70.512  1.00  0.00    -0.159 A  
HETATM   26  C   UNK A   0      -6.015  14.422  70.605  1.00  0.00    -0.197 A  
HETATM   27  C   UNK A   0      -5.480  13.255  71.146  1.00  0.00    -0.197 A  
ENDBRANCH  21  22
ENDBRANCH  20  21
ENDBRANCH  19  20
BRANCH  19  28
HETATM   28  C   UNK A   0     -10.513  12.044  65.960  1.00  0.00    -0.249 C  
HETATM   29  O   UNK A   0      -9.742  12.261  65.039  1.00  0.00    -0.185 OA 
BRANCH  28  30
HETATM   30  O   UNK A   0     -11.864  11.867  65.819  1.00  0.00    -0.435 OA 
BRANCH  30  31
HETATM   31  C   UNK A   0     -12.475  12.649  64.779  1.00  0.00    -0.484 C  
HETATM   32  C   UNK A   0     -12.607  11.774  63.544  1.00  0.00    -0.485 C  
ENDBRANCH  30  31
ENDBRANCH  28  30
ENDBRANCH  19  28
ENDBRANCH  17  19
ENDBRANCH  15  17
ENDBRANCH   8  15
TORSDOF 9
ENDMDL
MODEL      186
REMARK 921   NORMALIZED FREE ENERGY PREDICTED BY IDOCK:   -3.97 KCAL/MOL
REMARK 922        TOTAL FREE ENERGY PREDICTED BY IDOCK:   -8.00 KCAL/MOL
REMARK 923 INTER-LIGAND FREE ENERGY PREDICTED BY IDOCK:   -8.47 KCAL/MOL
REMARK 924 INTRA-LIGAND FREE ENERGY PREDICTED BY IDOCK:    0.47 KCAL/MOL
REMARK 927      BINDING AFFINITY PREDICTED BY RF-SCORE:    0.00 PKD
ROOT
ATOM      1  C   ALA A   1     -11.405  14.705  70.694  1.00  0.00    -0.192 C  
ATOM      2  C   ALA A   1     -10.844  15.546  69.559  1.00  0.00    -0.267 C  
ATOM      3  CA  ALA A   1     -10.247  14.475  68.634  1.00  0.00    -0.243 C  
ATOM      4  N   ALA A   1     -11.057  13.251  68.890  1.00  0.00    -0.258 N  
ATOM      5  C   ALA A   1      -8.760  14.288  68.941  1.00  0.00    -0.027 C  
ATOM      6  C   ALA A   1     -12.042  13.534  69.939  1.00  0.00    -0.341 C  
ATOM      7  O   ALA A   1      -8.492  13.197  69.693  1.00  0.00     1.205 OA 
ATOM      8  C   ALA A   1     -11.290  12.247  67.942  1.00  0.00    -0.298 C  
ATOM      9  OXT ALA A   1      -7.897  15.077  68.583  1.00  0.00    -0.123 OA 
ATOM     10  C   ALA A   1     -12.399  15.376  71.622  1.00  0.00    -0.444 C  
ATOM     11  O   ALA A   1     -12.169  11.400  68.112  1.00  0.00    -0.602 OA 
ATOM     12  C   ALA A   1     -12.432  12.459  70.952  1.00  0.00    -0.367 C  
ATOM     13  C   ALA A   1     -12.929  14.349  72.628  1.00  0.00    -0.533 C  
ATOM     14  C   ALA A   1     -13.429  13.058  71.964  1.00  0.00    -0.584 C  
ENDROOT
BRANCH   8  15
ATOM     15  CA  ALA A   1     -10.413  12.256  66.639  1.00  0.00    -0.222 C  
ATOM     16  CB  ALA A   1      -9.053  11.613  66.927  1.00  0.00    -0.188 C  
BRANCH  15  17
ATOM     17  N   ALA A   1     -10.281  13.636  66.132  1.00  0.00    -0.297 NA 
ATOM     18  H   ALA A   1      -9.460  13.711  65.531  1.00  0.00     0.000 HD 
BRANCH  17  19
HETATM   19  C   UNK A   0     -11.474  14.171  65.432  1.00  0.00    -0.325 C  
BRANCH  19  20
HETATM   20  C   UNK A   0     -11.483  15.713  65.379  1.00  0.00     0.025 C  
BRANCH  20  21
HETATM   21  C   UNK A   0     -10.086  16.339  65.534  1.00  0.00    -0.276 C  
BRANCH  21  22
HETATM   22  C   UNK A   0     -10.165  17.682  66.217  1.00  0.00    -0.362 A  
HETATM   23  C   UNK A   0      -9.873  17.809  67.581  1.00  0.00    -0.299 A  
HETATM   24  C   UNK A   0     -10.491  18.830  65.481  1.00  0.00     0.017 A  
HETATM   25  C   UNK A   0      -9.922  19.058  68.201  1.00  0.00    -0.449 A  
HETATM   26  C   UNK A   0     -10.542  20.078  66.104  1.00  0.00    -0.464 A  
HETATM   27  C   UNK A   0     -10.258  20.193  67.463  1.00  0.00    -0.520 A  
ENDBRANCH  21  22
ENDBRANCH  20  21
ENDBRANCH  19  20
BRANCH  19  28
HETATM   28  C   UNK A   0     -11.503  13.621  63.990  1.00  0.00    -0.271 C  
HETATM   29  O   UNK A   0     -12.426  13.750  63.202  1.00  0.00    -0.786 OA 
BRANCH  28  30
HETATM   30  O   UNK A   0     -10.371  12.890  63.748  1.00  0.00    -0.367 OA 
BRANCH  30  31
HETATM   31  C   UNK A   0     -10.595  11.594  63.169  1.00  0.00    -0.277 C  
HETATM   32  C   UNK A   0      -9.535  10.646  63.704  1.00  0.00    -0.337 C  
ENDBRANCH  30  31
ENDBRANCH  28  30
ENDBRANCH  19  28
ENDBRANCH  17  19
ENDBRANCH  15  17
ENDBRANCH   8  15
TORSDOF 9
ENDMDL
MODEL      187
REMARK 921   NORMALIZED FREE ENERGY PREDICTED BY IDOCK:   -3.96 KCAL/MOL
REMARK 922        TOTAL FREE ENERGY PREDICTED BY IDOCK:   -7.99 KCAL/MOL
REMARK 923 INTER-LIGAND FREE ENERGY PREDICTED BY IDOCK:   -6.99 KCAL/MOL
REMARK 924 INTRA-LIGAND FREE ENERGY PREDICTED BY IDOCK:   -1.00 KCAL/MOL
REMARK 927      BINDING AFFINITY PREDICTED BY RF-SCORE:    0.00 PKD
ROOT
ATOM      1  C   ALA A   1      -8.137   3.829  69.608  1.00  0.00    -0.062 C  
ATOM      2  C   ALA A   1      -9.649   3.942  69.510  1.00  0.00    -0.248 C  
ATOM      3  CA  ALA A   1      -9.859   5.463  69.568  1.00  0.00    -0.196 C  
ATOM      4  N   ALA A   1      -8.607   6.045  69.009  1.00  0.00    -0.119 N  
ATOM      5  C   ALA A   1     -10.137   5.899  71.008  1.00  0.00    -0.200 C  
ATOM      6  C   ALA A   1      -7.672   4.963  68.687  1.00  0.00    -0.077 C  
ATOM      7  O   ALA A   1      -9.065   6.440  71.629  1.00  0.00    -0.144 OA 
ATOM      8  C   ALA A   1      -8.538   7.273  68.339  1.00  0.00    -0.124 C  
ATOM      9  OXT ALA A   1     -11.213   5.729  71.564  1.00  0.00    -0.253 OA 
ATOM     10  C   ALA A   1      -7.519   2.502  69.213  1.00  0.00    -0.044 C  
ATOM     11  O   ALA A   1      -7.548   7.583  67.674  1.00  0.00    -0.107 OA 
ATOM     12  C   ALA A   1      -6.167   5.151  68.873  1.00  0.00    -0.030 C  
ATOM     13  C   ALA A   1      -5.992   2.614  69.274  1.00  0.00    -0.024 C  
ATOM     14  C   ALA A   1      -5.447   3.835  68.519  1.00  0.00    -0.013 C  
ENDROOT
BRANCH   8  15
ATOM     15  CA  ALA A   1      -9.781   8.228  68.437  1.00  0.00    -0.158 C  
ATOM     16  CB  ALA A   1     -10.709   7.993  67.241  1.00  0.00    -0.280 C  
BRANCH  15  17
ATOM     17  N   ALA A   1      -9.332   9.631  68.526  1.00  0.00    -0.137 NA 
ATOM     18  H   ALA A   1      -9.174  10.008  67.592  1.00  0.00     0.000 HD 
BRANCH  17  19
HETATM   19  C   UNK A   0     -10.221  10.534  69.297  1.00  0.00    -0.225 C  
BRANCH  19  20
HETATM   20  C   UNK A   0     -11.497  10.911  68.516  1.00  0.00    -0.380 C  
BRANCH  20  21
HETATM   21  C   UNK A   0     -11.459  12.333  67.931  1.00  0.00    -0.390 C  
BRANCH  21  22
HETATM   22  C   UNK A   0     -11.392  13.369  69.026  1.00  0.00    -0.335 A  
HETATM   23  C   UNK A   0     -10.468  14.420  68.961  1.00  0.00    -0.227 A  
HETATM   24  C   UNK A   0     -12.285  13.315  70.105  1.00  0.00    -0.376 A  
HETATM   25  C   UNK A   0     -10.428  15.389  69.963  1.00  0.00    -0.301 A  
HETATM   26  C   UNK A   0     -12.242  14.285  71.108  1.00  0.00    -0.431 A  
HETATM   27  C   UNK A   0     -11.314  15.322  71.038  1.00  0.00    -0.393 A  
ENDBRANCH  21  22
ENDBRANCH  20  21
ENDBRANCH  19  20
BRANCH  19  28
HETATM   28  C   UNK A   0     -10.628   9.839  70.613  1.00  0.00    -0.313 C  
HETATM   29  O   UNK A   0      -9.854   9.430  71.466  1.00  0.00    -0.245 OA 
BRANCH  28  30
HETATM   30  O   UNK A   0     -11.986   9.667  70.650  1.00  0.00    -0.272 OA 
BRANCH  30  31
HETATM   31  C   UNK A   0     -12.602   9.954  71.916  1.00  0.00    -0.381 C  
HETATM   32  C   UNK A   0     -13.648   8.886  72.186  1.00  0.00    -0.502 C  
ENDBRANCH  30  31
ENDBRANCH  28  30
ENDBRANCH  19  28
ENDBRANCH  17  19
ENDBRANCH  15  17
ENDBRANCH   8  15
TORSDOF 9
ENDMDL
MODEL      188
REMARK 921   NORMALIZED FREE ENERGY PREDICTED BY IDOCK:   -3.94 KCAL/MOL
REMARK 922        TOTAL FREE ENERGY PREDICTED BY IDOCK:   -7.96 KCAL/MOL
REMARK 923 INTER-LIGAND FREE ENERGY PREDICTED BY IDOCK:   -7.37 KCAL/MOL
REMARK 924 INTRA-LIGAND FREE ENERGY PREDICTED BY IDOCK:   -0.58 KCAL/MOL
REMARK 927      BINDING AFFINITY PREDICTED BY RF-SCORE:    0.00 PKD
ROOT
ATOM      1  C   ALA A   1     -10.534  13.074  66.789  1.00  0.00    -0.264 C  
ATOM      2  C   ALA A   1      -9.975  13.125  68.201  1.00  0.00    -0.234 C  
ATOM      3  CA  ALA A   1     -10.331  11.729  68.735  1.00  0.00    -0.179 C  
ATOM      4  N   ALA A   1     -10.375  10.856  67.529  1.00  0.00    -0.193 N  
ATOM      5  C   ALA A   1     -11.660  11.781  69.491  1.00  0.00    -0.332 C  
ATOM      6  C   ALA A   1     -10.124  11.669  66.334  1.00  0.00    -0.214 C  
ATOM      7  O   ALA A   1     -12.711  11.322  68.777  1.00  0.00    -0.126 OA 
ATOM      8  C   ALA A   1     -10.087   9.486  67.535  1.00  0.00    -0.204 C  
ATOM      9  OXT ALA A   1     -11.772  12.241  70.619  1.00  0.00    -0.108 OA 
ATOM     10  C   ALA A   1     -10.053  14.136  65.819  1.00  0.00    -0.352 C  
ATOM     11  O   ALA A   1      -9.882   8.872  66.487  1.00  0.00    -0.230 OA 
ATOM     12  C   ALA A   1     -10.834  11.359  65.017  1.00  0.00    -0.311 C  
ATOM     13  C   ALA A   1     -10.637  13.859  64.430  1.00  0.00    -0.256 C  
ATOM     14  C   ALA A   1     -10.426  12.411  63.966  1.00  0.00    -0.443 C  
ENDROOT
BRANCH   8  15
ATOM     15  CA  ALA A   1     -10.001   8.766  68.928  1.00  0.00    -0.192 C  
ATOM     16  CB  ALA A   1      -8.651   8.053  69.059  1.00  0.00    -0.137 C  
BRANCH  15  17
ATOM     17  N   ALA A   1     -11.139   7.838  69.086  1.00  0.00    -0.428 NA 
ATOM     18  H   ALA A   1     -11.126   7.139  68.344  1.00  0.00     0.000 HD 
BRANCH  17  19
HETATM   19  C   UNK A   0     -11.238   7.175  70.409  1.00  0.00    -0.287 C  
BRANCH  19  20
HETATM   20  C   UNK A   0     -10.047   6.234  70.687  1.00  0.00    -0.230 C  
BRANCH  20  21
HETATM   21  C   UNK A   0     -10.167   4.872  69.984  1.00  0.00    -0.313 C  
BRANCH  21  22
HETATM   22  C   UNK A   0      -9.406   4.863  68.681  1.00  0.00    -0.182 A  
HETATM   23  C   UNK A   0     -10.050   5.167  67.475  1.00  0.00    -0.213 A  
HETATM   24  C   UNK A   0      -8.030   4.592  68.668  1.00  0.00    -0.078 A  
HETATM   25  C   UNK A   0      -9.336   5.183  66.277  1.00  0.00    -0.155 A  
HETATM   26  C   UNK A   0      -7.318   4.607  67.468  1.00  0.00    -0.074 A  
HETATM   27  C   UNK A   0      -7.970   4.902  66.272  1.00  0.00    -0.107 A  
ENDBRANCH  21  22
ENDBRANCH  20  21
ENDBRANCH  19  20
BRANCH  19  28
HETATM   28  C   UNK A   0     -11.290   8.254  71.511  1.00  0.00    -0.268 C  
HETATM   29  O   UNK A   0     -10.534   8.326  72.467  1.00  0.00    -0.311 OA 
BRANCH  28  30
HETATM   30  O   UNK A   0     -12.367   9.076  71.308  1.00  0.00    -0.306 OA 
BRANCH  30  31
HETATM   31  C   UNK A   0     -13.087   9.442  72.496  1.00  0.00    -0.299 C  
HETATM   32  C   UNK A   0     -14.371   8.631  72.540  1.00  0.00    -0.347 C  
ENDBRANCH  30  31
ENDBRANCH  28  30
ENDBRANCH  19  28
ENDBRANCH  17  19
ENDBRANCH  15  17
ENDBRANCH   8  15
TORSDOF 9
ENDMDL
MODEL      189
REMARK 921   NORMALIZED FREE ENERGY PREDICTED BY IDOCK:   -3.93 KCAL/MOL
REMARK 922        TOTAL FREE ENERGY PREDICTED BY IDOCK:   -7.94 KCAL/MOL
REMARK 923 INTER-LIGAND FREE ENERGY PREDICTED BY IDOCK:   -7.29 KCAL/MOL
REMARK 924 INTRA-LIGAND FREE ENERGY PREDICTED BY IDOCK:   -0.66 KCAL/MOL
REMARK 927      BINDING AFFINITY PREDICTED BY RF-SCORE:    0.00 PKD
ROOT
ATOM      1  C   ALA A   1      -9.182   6.231  67.926  1.00  0.00    -0.116 C  
ATOM      2  C   ALA A   1      -9.623   7.263  68.951  1.00  0.00    -0.143 C  
ATOM      3  CA  ALA A   1      -9.022   8.556  68.379  1.00  0.00    -0.139 C  
ATOM      4  N   ALA A   1      -8.949   8.329  66.909  1.00  0.00    -0.141 N  
ATOM      5  C   ALA A   1      -7.656   8.824  69.016  1.00  0.00    -0.090 C  
ATOM      6  C   ALA A   1      -9.417   6.973  66.606  1.00  0.00    -0.165 C  
ATOM      7  O   ALA A   1      -6.612   8.481  68.230  1.00  0.00    -0.058 OA 
ATOM      8  C   ALA A   1      -9.030   9.345  65.949  1.00  0.00    -0.178 C  
ATOM      9  OXT ALA A   1      -7.520   9.262  70.149  1.00  0.00    -0.071 OA 
ATOM     10  C   ALA A   1      -9.894   4.892  67.947  1.00  0.00    -0.196 C  
ATOM     11  O   ALA A   1      -9.229   9.086  64.760  1.00  0.00    -0.123 OA 
ATOM     12  C   ALA A   1      -8.781   6.163  65.476  1.00  0.00    -0.105 C  
ATOM     13  C   ALA A   1      -9.393   4.031  66.784  1.00  0.00    -0.199 C  
ATOM     14  C   ALA A   1      -9.426   4.763  65.435  1.00  0.00    -0.159 C  
ENDROOT
BRANCH   8  15
ATOM     15  CA  ALA A   1      -8.893  10.829  66.443  1.00  0.00    -0.165 C  
ATOM     16  CB  ALA A   1      -7.430  11.125  66.788  1.00  0.00    -0.146 C  
BRANCH  15  17
ATOM     17  N   ALA A   1      -9.794  11.063  67.589  1.00  0.00    -0.171 NA 
ATOM     18  H   ALA A   1      -9.520  11.913  68.081  1.00  0.00     0.000 HD 
BRANCH  17  19
HETATM   19  C   UNK A   0     -11.240  11.108  67.260  1.00  0.00    -0.277 C  
BRANCH  19  20
HETATM   20  C   UNK A   0     -12.118  11.358  68.504  1.00  0.00    -0.168 C  
BRANCH  20  21
HETATM   21  C   UNK A   0     -11.317  11.436  69.814  1.00  0.00    -0.332 C  
BRANCH  21  22
HETATM   22  C   UNK A   0     -11.767  10.379  70.791  1.00  0.00    -0.464 A  
HETATM   23  C   UNK A   0     -13.128  10.187  71.061  1.00  0.00    -0.458 A  
HETATM   24  C   UNK A   0     -10.827   9.544  71.411  1.00  0.00    -0.382 A  
HETATM   25  C   UNK A   0     -13.540   9.191  71.945  1.00  0.00    -0.493 A  
HETATM   26  C   UNK A   0     -11.241   8.548  72.297  1.00  0.00    -0.432 A  
HETATM   27  C   UNK A   0     -12.597   8.371  72.565  1.00  0.00    -0.311 A  
ENDBRANCH  21  22
ENDBRANCH  20  21
ENDBRANCH  19  20
BRANCH  19  28
HETATM   28  C   UNK A   0     -11.489  12.236  66.237  1.00  0.00    -0.380 C  
HETATM   29  O   UNK A   0     -11.598  12.085  65.030  1.00  0.00    -0.318 OA 
BRANCH  28  30
HETATM   30  O   UNK A   0     -11.486  13.450  66.871  1.00  0.00    -0.314 OA 
BRANCH  30  31
HETATM   31  C   UNK A   0     -10.799  14.501  66.172  1.00  0.00    -0.317 C  
HETATM   32  C   UNK A   0      -9.424  14.667  66.798  1.00  0.00    -0.275 C  
ENDBRANCH  30  31
ENDBRANCH  28  30
ENDBRANCH  19  28
ENDBRANCH  17  19
ENDBRANCH  15  17
ENDBRANCH   8  15
TORSDOF 9
ENDMDL
MODEL      190
REMARK 921   NORMALIZED FREE ENERGY PREDICTED BY IDOCK:   -3.87 KCAL/MOL
REMARK 922        TOTAL FREE ENERGY PREDICTED BY IDOCK:   -7.85 KCAL/MOL
REMARK 923 INTER-LIGAND FREE ENERGY PREDICTED BY IDOCK:   -6.23 KCAL/MOL
REMARK 924 INTRA-LIGAND FREE ENERGY PREDICTED BY IDOCK:   -1.61 KCAL/MOL
REMARK 927      BINDING AFFINITY PREDICTED BY RF-SCORE:    0.00 PKD
ROOT
ATOM      1  C   ALA A   1     -11.465  12.349  66.161  1.00  0.00    -0.430 C  
ATOM      2  C   ALA A   1     -10.828  12.778  67.471  1.00  0.00    -0.263 C  
ATOM      3  CA  ALA A   1      -9.815  11.649  67.718  1.00  0.00    -0.179 C  
ATOM      4  N   ALA A   1      -9.466  11.143  66.361  1.00  0.00    -0.187 N  
ATOM      5  C   ALA A   1     -10.434  10.579  68.619  1.00  0.00    -0.191 C  
ATOM      6  C   ALA A   1     -10.251  11.869  65.358  1.00  0.00    -0.263 C  
ATOM      7  O   ALA A   1     -10.865   9.486  67.951  1.00  0.00    -0.245 OA 
ATOM      8  C   ALA A   1      -8.234  10.568  66.027  1.00  0.00    -0.150 C  
ATOM      9  OXT ALA A   1     -10.573  10.717  69.826  1.00  0.00    -0.226 OA 
ATOM     10  C   ALA A   1     -12.254  13.398  65.403  1.00  0.00    -0.492 C  
ATOM     11  O   ALA A   1      -7.901  10.410  64.850  1.00  0.00    -0.149 OA 
ATOM     12  C   ALA A   1     -10.752  11.162  64.099  1.00  0.00    -0.415 C  
ATOM     13  C   ALA A   1     -12.726  12.815  64.067  1.00  0.00    -0.297 C  
ATOM     14  C   ALA A   1     -11.595  12.149  63.268  1.00  0.00    -0.418 C  
ENDROOT
BRANCH   8  15
ATOM     15  CA  ALA A   1      -7.275  10.162  67.202  1.00  0.00    -0.090 C  
ATOM     16  CB  ALA A   1      -5.829  10.118  66.699  1.00  0.00    -0.055 C  
BRANCH  15  17
ATOM     17  N   ALA A   1      -7.704   8.872  67.778  1.00  0.00    -0.100 NA 
ATOM     18  H   ALA A   1      -7.554   8.121  67.104  1.00  0.00     0.000 HD 
BRANCH  17  19
HETATM   19  C   UNK A   0      -7.084   8.520  69.079  1.00  0.00    -0.065 C  
BRANCH  19  20
HETATM   20  C   UNK A   0      -7.162   9.674  70.099  1.00  0.00    -0.128 C  
BRANCH  20  21
HETATM   21  C   UNK A   0      -5.799  10.322  70.397  1.00  0.00    -0.087 C  
BRANCH  21  22
HETATM   22  C   UNK A   0      -5.900  11.827  70.392  1.00  0.00    -0.156 A  
HETATM   23  C   UNK A   0      -5.358  12.584  71.439  1.00  0.00    -0.052 A  
HETATM   24  C   UNK A   0      -6.503  12.491  69.315  1.00  0.00    -0.104 A  
HETATM   25  C   UNK A   0      -5.431  13.976  71.416  1.00  0.00    -0.218 A  
HETATM   26  C   UNK A   0      -6.577  13.885  69.295  1.00  0.00    -0.113 A  
HETATM   27  C   UNK A   0      -6.042  14.628  70.345  1.00  0.00    -0.173 A  
ENDBRANCH  21  22
ENDBRANCH  20  21
ENDBRANCH  19  20
BRANCH  19  28
HETATM   28  C   UNK A   0      -7.803   7.286  69.663  1.00  0.00    -0.118 C  
HETATM   29  O   UNK A   0      -7.270   6.393  70.303  1.00  0.00    -0.075 OA 
BRANCH  28  30
HETATM   30  O   UNK A   0      -9.119   7.291  69.285  1.00  0.00    -0.139 OA 
BRANCH  30  31
HETATM   31  C   UNK A   0     -10.059   7.065  70.348  1.00  0.00    -0.187 C  
HETATM   32  C   UNK A   0     -11.052   6.011  69.886  1.00  0.00    -0.469 C  
ENDBRANCH  30  31
ENDBRANCH  28  30
ENDBRANCH  19  28
ENDBRANCH  17  19
ENDBRANCH  15  17
ENDBRANCH   8  15
TORSDOF 9
ENDMDL
MODEL      191
REMARK 921   NORMALIZED FREE ENERGY PREDICTED BY IDOCK:   -3.85 KCAL/MOL
REMARK 922        TOTAL FREE ENERGY PREDICTED BY IDOCK:   -7.82 KCAL/MOL
REMARK 923 INTER-LIGAND FREE ENERGY PREDICTED BY IDOCK:   -6.76 KCAL/MOL
REMARK 924 INTRA-LIGAND FREE ENERGY PREDICTED BY IDOCK:   -1.06 KCAL/MOL
REMARK 927      BINDING AFFINITY PREDICTED BY RF-SCORE:    0.00 PKD
ROOT
ATOM      1  C   ALA A   1     -11.825  13.225  66.219  1.00  0.00    -0.444 C  
ATOM      2  C   ALA A   1     -11.366  13.724  67.579  1.00  0.00    -0.334 C  
ATOM      3  CA  ALA A   1     -10.584  12.514  68.114  1.00  0.00    -0.226 C  
ATOM      4  N   ALA A   1     -10.084  11.812  66.900  1.00  0.00    -0.205 N  
ATOM      5  C   ALA A   1     -11.496  11.645  68.982  1.00  0.00    -0.294 C  
ATOM      6  C   ALA A   1     -10.574  12.505  65.704  1.00  0.00    -0.269 C  
ATOM      7  O   ALA A   1     -11.958  10.542  68.352  1.00  0.00    -0.364 OA 
ATOM      8  C   ALA A   1      -8.909  11.052  66.855  1.00  0.00    -0.149 C  
ATOM      9  OXT ALA A   1     -11.817  11.942  70.124  1.00  0.00    -0.329 OA 
ATOM     10  C   ALA A   1     -12.314  14.267  65.232  1.00  0.00    -0.427 C  
ATOM     11  O   ALA A   1      -8.407  10.715  65.781  1.00  0.00    -0.156 OA 
ATOM     12  C   ALA A   1     -10.949  11.722  64.447  1.00  0.00    -0.397 C  
ATOM     13  C   ALA A   1     -12.629  13.592  63.893  1.00  0.00    -0.125 C  
ATOM     14  C   ALA A   1     -11.487  12.701  63.385  1.00  0.00    -0.499 C  
ENDROOT
BRANCH   8  15
ATOM     15  CA  ALA A   1      -8.234  10.671  68.221  1.00  0.00    -0.120 C  
ATOM     16  CB  ALA A   1      -7.502  11.889  68.793  1.00  0.00    -0.100 C  
BRANCH  15  17
ATOM     17  N   ALA A   1      -7.334   9.517  68.033  1.00  0.00    -0.082 NA 
ATOM     18  H   ALA A   1      -6.423   9.712  68.447  1.00  0.00     0.000 HD 
BRANCH  17  19
HETATM   19  C   UNK A   0      -7.853   8.220  68.533  1.00  0.00    -0.121 C  
BRANCH  19  20
HETATM   20  C   UNK A   0      -9.382   8.236  68.734  1.00  0.00    -0.143 C  
BRANCH  20  21
HETATM   21  C   UNK A   0      -9.978   6.846  69.012  1.00  0.00    -0.160 C  
BRANCH  21  22
HETATM   22  C   UNK A   0     -10.055   6.575  70.495  1.00  0.00    -0.213 A  
HETATM   23  C   UNK A   0      -9.554   5.381  71.031  1.00  0.00    -0.224 A  
HETATM   24  C   UNK A   0     -10.592   7.537  71.362  1.00  0.00    -0.229 A  
HETATM   25  C   UNK A   0      -9.605   5.148  72.405  1.00  0.00    -0.176 A  
HETATM   26  C   UNK A   0     -10.643   7.301  72.736  1.00  0.00    -0.322 A  
HETATM   27  C   UNK A   0     -10.151   6.107  73.258  1.00  0.00    -0.205 A  
ENDBRANCH  21  22
ENDBRANCH  20  21
ENDBRANCH  19  20
BRANCH  19  28
HETATM   28  C   UNK A   0      -7.492   7.110  67.522  1.00  0.00    -0.101 C  
HETATM   29  O   UNK A   0      -6.633   6.258  67.684  1.00  0.00    -0.051 OA 
BRANCH  28  30
HETATM   30  O   UNK A   0      -8.221   7.271  66.374  1.00  0.00    -0.110 OA 
BRANCH  30  31
HETATM   31  C   UNK A   0      -7.463   7.188  65.156  1.00  0.00    -0.094 C  
HETATM   32  C   UNK A   0      -8.124   6.157  64.256  1.00  0.00    -0.093 C  
ENDBRANCH  30  31
ENDBRANCH  28  30
ENDBRANCH  19  28
ENDBRANCH  17  19
ENDBRANCH  15  17
ENDBRANCH   8  15
TORSDOF 9
ENDMDL
MODEL      192
REMARK 921   NORMALIZED FREE ENERGY PREDICTED BY IDOCK:   -3.84 KCAL/MOL
REMARK 922        TOTAL FREE ENERGY PREDICTED BY IDOCK:   -7.80 KCAL/MOL
REMARK 923 INTER-LIGAND FREE ENERGY PREDICTED BY IDOCK:   -6.56 KCAL/MOL
REMARK 924 INTRA-LIGAND FREE ENERGY PREDICTED BY IDOCK:   -1.24 KCAL/MOL
REMARK 927      BINDING AFFINITY PREDICTED BY RF-SCORE:    0.00 PKD
ROOT
ATOM      1  C   ALA A   1      -7.666   4.080  65.856  1.00  0.00    -0.090 C  
ATOM      2  C   ALA A   1      -8.052   3.411  67.164  1.00  0.00    -0.083 C  
ATOM      3  CA  ALA A   1      -8.387   4.619  68.053  1.00  0.00    -0.098 C  
ATOM      4  N   ALA A   1      -8.836   5.678  67.107  1.00  0.00    -0.108 N  
ATOM      5  C   ALA A   1      -7.159   5.022  68.872  1.00  0.00    -0.053 C  
ATOM      6  C   ALA A   1      -8.728   5.178  65.733  1.00  0.00    -0.139 C  
ATOM      7  O   ALA A   1      -6.502   6.094  68.376  1.00  0.00    -0.048 OA 
ATOM      8  C   ALA A   1      -9.750   6.689  67.431  1.00  0.00    -0.128 C  
ATOM      9  OXT ALA A   1      -6.777   4.405  69.856  1.00  0.00    -0.032 OA 
ATOM     10  C   ALA A   1      -7.626   3.203  64.619  1.00  0.00    -0.077 C  
ATOM     11  O   ALA A   1     -10.283   7.372  66.554  1.00  0.00    -0.194 OA 
ATOM     12  C   ALA A   1      -8.329   6.113  64.592  1.00  0.00    -0.044 C  
ATOM     13  C   ALA A   1      -7.326   4.068  63.391  1.00  0.00    -0.050 C  
ATOM     14  C   ALA A   1      -8.236   5.300  63.285  1.00  0.00    -0.114 C  
ENDROOT
BRANCH   8  15
ATOM     15  CA  ALA A   1     -10.097   6.900  68.948  1.00  0.00    -0.170 C  
ATOM     16  CB  ALA A   1     -11.136   5.865  69.389  1.00  0.00    -0.369 C  
BRANCH  15  17
ATOM     17  N   ALA A   1     -10.559   8.284  69.170  1.00  0.00    -0.325 NA 
ATOM     18  H   ALA A   1     -11.360   8.288  69.801  1.00  0.00     0.000 HD 
BRANCH  17  19
HETATM   19  C   UNK A   0      -9.524   9.229  69.655  1.00  0.00    -0.179 C  
BRANCH  19  20
HETATM   20  C   UNK A   0      -9.854  10.695  69.304  1.00  0.00    -0.201 C  
BRANCH  20  21
HETATM   21  C   UNK A   0     -11.339  10.926  68.976  1.00  0.00    -0.348 C  
BRANCH  21  22
HETATM   22  C   UNK A   0     -11.965  11.896  69.948  1.00  0.00    -0.398 A  
HETATM   23  C   UNK A   0     -11.923  13.275  69.709  1.00  0.00    -0.391 A  
HETATM   24  C   UNK A   0     -12.637  11.423  71.084  1.00  0.00    -0.490 A  
HETATM   25  C   UNK A   0     -12.526  14.165  70.597  1.00  0.00    -0.432 A  
HETATM   26  C   UNK A   0     -13.238  12.316  71.973  1.00  0.00    -0.508 A  
HETATM   27  C   UNK A   0     -13.183  13.686  71.730  1.00  0.00    -0.477 A  
ENDBRANCH  21  22
ENDBRANCH  20  21
ENDBRANCH  19  20
BRANCH  19  28
HETATM   28  C   UNK A   0      -9.399   9.097  71.188  1.00  0.00    -0.243 C  
HETATM   29  O   UNK A   0     -10.330   8.933  71.962  1.00  0.00    -0.339 OA 
BRANCH  28  30
HETATM   30  O   UNK A   0      -8.096   9.277  71.567  1.00  0.00    -0.330 OA 
BRANCH  30  31
HETATM   31  C   UNK A   0      -7.152   8.390  70.944  1.00  0.00    -0.057 C  
HETATM   32  C   UNK A   0      -5.890   9.180  70.639  1.00  0.00    -0.041 C  
ENDBRANCH  30  31
ENDBRANCH  28  30
ENDBRANCH  19  28
ENDBRANCH  17  19
ENDBRANCH  15  17
ENDBRANCH   8  15
TORSDOF 9
ENDMDL
MODEL      193
REMARK 921   NORMALIZED FREE ENERGY PREDICTED BY IDOCK:   -3.84 KCAL/MOL
REMARK 922        TOTAL FREE ENERGY PREDICTED BY IDOCK:   -7.80 KCAL/MOL
REMARK 923 INTER-LIGAND FREE ENERGY PREDICTED BY IDOCK:   -5.98 KCAL/MOL
REMARK 924 INTRA-LIGAND FREE ENERGY PREDICTED BY IDOCK:   -1.81 KCAL/MOL
REMARK 927      BINDING AFFINITY PREDICTED BY RF-SCORE:    0.00 PKD
ROOT
ATOM      1  C   ALA A   1      -7.141   5.737  65.264  1.00  0.00    -0.065 C  
ATOM      2  C   ALA A   1      -7.426   4.796  66.423  1.00  0.00    -0.086 C  
ATOM      3  CA  ALA A   1      -7.932   5.765  67.502  1.00  0.00    -0.102 C  
ATOM      4  N   ALA A   1      -8.529   6.902  66.749  1.00  0.00    -0.115 N  
ATOM      5  C   ALA A   1      -6.775   6.186  68.411  1.00  0.00    -0.064 C  
ATOM      6  C   ALA A   1      -8.351   6.677  65.311  1.00  0.00    -0.111 C  
ATOM      7  O   ALA A   1      -6.279   7.412  68.130  1.00  0.00    -0.040 OA 
ATOM      8  C   ALA A   1      -9.580   7.698  67.223  1.00  0.00    -0.157 C  
ATOM      9  OXT ALA A   1      -6.307   5.463  69.279  1.00  0.00    -0.031 OA 
ATOM     10  C   ALA A   1      -6.976   5.110  63.893  1.00  0.00    -0.048 C  
ATOM     11  O   ALA A   1     -10.206   8.444  66.468  1.00  0.00    -0.293 OA 
ATOM     12  C   ALA A   1      -8.092   7.848  64.364  1.00  0.00    -0.103 C  
ATOM     13  C   ALA A   1      -6.803   6.215  62.846  1.00  0.00    -0.041 C  
ATOM     14  C   ALA A   1      -7.882   7.304  62.936  1.00  0.00    -0.128 C  
ENDROOT
BRANCH   8  15
ATOM     15  CA  ALA A   1      -9.953   7.583  68.743  1.00  0.00    -0.172 C  
ATOM     16  CB  ALA A   1     -11.281   6.835  68.894  1.00  0.00    -0.196 C  
BRANCH  15  17
ATOM     17  N   ALA A   1      -9.997   8.926  69.354  1.00  0.00    -0.187 NA 
ATOM     18  H   ALA A   1      -9.848   9.640  68.641  1.00  0.00     0.000 HD 
BRANCH  17  19
HETATM   19  C   UNK A   0     -11.224   9.230  70.131  1.00  0.00    -0.208 C  
BRANCH  19  20
HETATM   20  C   UNK A   0     -10.977   9.208  71.654  1.00  0.00    -0.445 C  
BRANCH  20  21
HETATM   21  C   UNK A   0      -9.661   8.519  72.050  1.00  0.00    -0.371 C  
BRANCH  21  22
HETATM   22  C   UNK A   0      -9.871   7.044  72.292  1.00  0.00    -0.170 A  
HETATM   23  C   UNK A   0     -11.018   6.584  72.950  1.00  0.00    -0.282 A  
HETATM   24  C   UNK A   0      -8.937   6.111  71.820  1.00  0.00    -0.141 A  
HETATM   25  C   UNK A   0     -11.220   5.218  73.147  1.00  0.00    -0.382 A  
HETATM   26  C   UNK A   0      -9.139   4.745  72.020  1.00  0.00    -0.152 A  
HETATM   27  C   UNK A   0     -10.280   4.298  72.683  1.00  0.00    -0.232 A  
ENDBRANCH  21  22
ENDBRANCH  20  21
ENDBRANCH  19  20
BRANCH  19  28
HETATM   28  C   UNK A   0     -11.742  10.627  69.728  1.00  0.00    -0.310 C  
HETATM   29  O   UNK A   0     -12.046  11.520  70.504  1.00  0.00    -0.356 OA 
BRANCH  28  30
HETATM   30  O   UNK A   0     -11.894  10.694  68.368  1.00  0.00    -0.439 OA 
BRANCH  30  31
HETATM   31  C   UNK A   0     -11.627  11.981  67.788  1.00  0.00    -0.330 C  
HETATM   32  C   UNK A   0     -10.274  11.917  67.098  1.00  0.00    -0.230 C  
ENDBRANCH  30  31
ENDBRANCH  28  30
ENDBRANCH  19  28
ENDBRANCH  17  19
ENDBRANCH  15  17
ENDBRANCH   8  15
TORSDOF 9
ENDMDL
MODEL      194
REMARK 921   NORMALIZED FREE ENERGY PREDICTED BY IDOCK:   -3.83 KCAL/MOL
REMARK 922        TOTAL FREE ENERGY PREDICTED BY IDOCK:   -7.79 KCAL/MOL
REMARK 923 INTER-LIGAND FREE ENERGY PREDICTED BY IDOCK:   -7.80 KCAL/MOL
REMARK 924 INTRA-LIGAND FREE ENERGY PREDICTED BY IDOCK:    0.00 KCAL/MOL
REMARK 927      BINDING AFFINITY PREDICTED BY RF-SCORE:    0.00 PKD
ROOT
ATOM      1  C   ALA A   1     -12.482  13.734  70.365  1.00  0.00    -0.384 C  
ATOM      2  C   ALA A   1     -11.907  12.442  69.809  1.00  0.00    -0.387 C  
ATOM      3  CA  ALA A   1     -11.032  12.954  68.655  1.00  0.00    -0.261 C  
ATOM      4  N   ALA A   1     -10.632  14.331  69.057  1.00  0.00    -0.249 N  
ATOM      5  C   ALA A   1     -11.820  12.913  67.344  1.00  0.00    -0.360 C  
ATOM      6  C   ALA A   1     -11.264  14.664  70.338  1.00  0.00    -0.124 C  
ATOM      7  O   ALA A   1     -12.304  14.116  66.962  1.00  0.00    -0.396 OA 
ATOM      8  C   ALA A   1      -9.441  14.953  68.664  1.00  0.00    -0.208 C  
ATOM      9  OXT ALA A   1     -12.035  11.882  66.723  1.00  0.00    -0.613 OA 
ATOM     10  C   ALA A   1     -13.105  13.672  71.746  1.00  0.00    -0.468 C  
ATOM     11  O   ALA A   1      -9.038  15.973  69.227  1.00  0.00    -0.246 OA 
ATOM     12  C   ALA A   1     -11.735  16.088  70.628  1.00  0.00    -0.376 C  
ATOM     13  C   ALA A   1     -13.529  15.080  72.177  1.00  0.00    -0.508 C  
ATOM     14  C   ALA A   1     -12.412  16.122  72.013  1.00  0.00    -0.412 C  
ENDROOT
BRANCH   8  15
ATOM     15  CA  ALA A   1      -8.619  14.288  67.503  1.00  0.00    -0.196 C  
ATOM     16  CB  ALA A   1      -9.388  14.418  66.185  1.00  0.00    -0.221 C  
BRANCH  15  17
ATOM     17  N   ALA A   1      -8.321  12.882  67.839  1.00  0.00    -0.157 NA 
ATOM     18  H   ALA A   1      -8.421  12.296  67.011  1.00  0.00     0.000 HD 
BRANCH  17  19
HETATM   19  C   UNK A   0      -7.001  12.647  68.474  1.00  0.00    -0.094 C  
BRANCH  19  20
HETATM   20  C   UNK A   0      -6.860  11.212  69.023  1.00  0.00    -0.092 C  
BRANCH  20  21
HETATM   21  C   UNK A   0      -8.207  10.547  69.352  1.00  0.00    -0.128 C  
BRANCH  21  22
HETATM   22  C   UNK A   0      -8.716   9.742  68.181  1.00  0.00    -0.119 A  
HETATM   23  C   UNK A   0      -9.960   9.100  68.241  1.00  0.00    -0.199 A  
HETATM   24  C   UNK A   0      -7.965   9.661  67.000  1.00  0.00    -0.109 A  
HETATM   25  C   UNK A   0     -10.436   8.379  67.147  1.00  0.00    -0.380 A  
HETATM   26  C   UNK A   0      -8.443   8.937  65.906  1.00  0.00    -0.147 A  
HETATM   27  C   UNK A   0      -9.678   8.296  65.979  1.00  0.00    -0.100 A  
ENDBRANCH  21  22
ENDBRANCH  20  21
ENDBRANCH  19  20
BRANCH  19  28
HETATM   28  C   UNK A   0      -5.890  12.895  67.432  1.00  0.00    -0.060 C  
HETATM   29  O   UNK A   0      -5.529  12.100  66.579  1.00  0.00    -0.305 OA 
BRANCH  28  30
HETATM   30  O   UNK A   0      -5.303  14.112  67.657  1.00  0.00    -0.307 OA 
BRANCH  30  31
HETATM   31  C   UNK A   0      -5.126  14.456  69.042  1.00  0.00    -0.082 C  
HETATM   32  C   UNK A   0      -5.324  15.956  69.186  1.00  0.00    -0.109 C  
ENDBRANCH  30  31
ENDBRANCH  28  30
ENDBRANCH  19  28
ENDBRANCH  17  19
ENDBRANCH  15  17
ENDBRANCH   8  15
TORSDOF 9
ENDMDL
MODEL      195
REMARK 921   NORMALIZED FREE ENERGY PREDICTED BY IDOCK:   -3.80 KCAL/MOL
REMARK 922        TOTAL FREE ENERGY PREDICTED BY IDOCK:   -7.75 KCAL/MOL
REMARK 923 INTER-LIGAND FREE ENERGY PREDICTED BY IDOCK:   -6.58 KCAL/MOL
REMARK 924 INTRA-LIGAND FREE ENERGY PREDICTED BY IDOCK:   -1.17 KCAL/MOL
REMARK 927      BINDING AFFINITY PREDICTED BY RF-SCORE:    0.00 PKD
ROOT
ATOM      1  C   ALA A   1     -10.569   6.504  70.652  1.00  0.00    -0.280 C  
ATOM      2  C   ALA A   1     -10.009   6.346  69.248  1.00  0.00    -0.178 C  
ATOM      3  CA  ALA A   1      -9.293   7.689  69.038  1.00  0.00    -0.146 C  
ATOM      4  N   ALA A   1      -8.906   8.136  70.405  1.00  0.00    -0.139 N  
ATOM      5  C   ALA A   1     -10.222   8.671  68.323  1.00  0.00    -0.198 C  
ATOM      6  C   ALA A   1      -9.400   7.168  71.389  1.00  0.00    -0.154 C  
ATOM      7  O   ALA A   1     -10.795   9.577  69.146  1.00  0.00    -0.222 OA 
ATOM      8  C   ALA A   1      -7.793   8.938  70.688  1.00  0.00    -0.115 C  
ATOM      9  OXT ALA A   1     -10.465   8.614  67.126  1.00  0.00    -0.285 OA 
ATOM     10  C   ALA A   1     -11.027   5.242  71.357  1.00  0.00    -0.076 C  
ATOM     11  O   ALA A   1      -7.370   9.060  71.839  1.00  0.00    -0.317 OA 
ATOM     12  C   ALA A   1      -9.893   7.631  72.760  1.00  0.00    -0.283 C  
ATOM     13  C   ALA A   1     -11.456   5.585  72.787  1.00  0.00    -0.339 C  
ATOM     14  C   ALA A   1     -10.408   6.410  73.548  1.00  0.00    -0.281 C  
ENDROOT
BRANCH   8  15
ATOM     15  CA  ALA A   1      -7.082   9.650  69.482  1.00  0.00    -0.072 C  
ATOM     16  CB  ALA A   1      -5.576   9.733  69.746  1.00  0.00    -0.037 C  
BRANCH  15  17
ATOM     17  N   ALA A   1      -7.683  10.980  69.259  1.00  0.00    -0.294 NA 
ATOM     18  H   ALA A   1      -7.056  11.709  69.598  1.00  0.00     0.000 HD 
BRANCH  17  19
HETATM   19  C   UNK A   0      -8.088  11.266  67.861  1.00  0.00    -0.121 C  
BRANCH  19  20
HETATM   20  C   UNK A   0      -8.869  12.591  67.734  1.00  0.00    -0.178 C  
BRANCH  20  21
HETATM   21  C   UNK A   0     -10.395  12.403  67.713  1.00  0.00    -0.222 C  
BRANCH  21  22
HETATM   22  C   UNK A   0     -11.087  13.484  68.506  1.00  0.00    -0.300 A  
HETATM   23  C   UNK A   0     -11.009  14.824  68.107  1.00  0.00    -0.274 A  
HETATM   24  C   UNK A   0     -11.854  13.153  69.632  1.00  0.00    -0.390 A  
HETATM   25  C   UNK A   0     -11.672  15.816  68.829  1.00  0.00    -0.387 A  
HETATM   26  C   UNK A   0     -12.516  14.148  70.354  1.00  0.00    -0.424 A  
HETATM   27  C   UNK A   0     -12.425  15.479  69.953  1.00  0.00    -0.243 A  
ENDBRANCH  21  22
ENDBRANCH  20  21
ENDBRANCH  19  20
BRANCH  19  28
HETATM   28  C   UNK A   0      -6.826  11.343  66.976  1.00  0.00    -0.137 C  
HETATM   29  O   UNK A   0      -6.024  12.264  66.966  1.00  0.00    -0.208 OA 
BRANCH  28  30
HETATM   30  O   UNK A   0      -6.779  10.262  66.136  1.00  0.00    -0.095 OA 
BRANCH  30  31
HETATM   31  C   UNK A   0      -7.526  10.405  64.917  1.00  0.00    -0.065 C  
HETATM   32  C   UNK A   0      -6.713   9.792  63.789  1.00  0.00    -0.120 C  
ENDBRANCH  30  31
ENDBRANCH  28  30
ENDBRANCH  19  28
ENDBRANCH  17  19
ENDBRANCH  15  17
ENDBRANCH   8  15
TORSDOF 9
ENDMDL
MODEL      196
REMARK 921   NORMALIZED FREE ENERGY PREDICTED BY IDOCK:   -3.79 KCAL/MOL
REMARK 922        TOTAL FREE ENERGY PREDICTED BY IDOCK:   -7.72 KCAL/MOL
REMARK 923 INTER-LIGAND FREE ENERGY PREDICTED BY IDOCK:   -6.35 KCAL/MOL
REMARK 924 INTRA-LIGAND FREE ENERGY PREDICTED BY IDOCK:   -1.37 KCAL/MOL
REMARK 927      BINDING AFFINITY PREDICTED BY RF-SCORE:    0.00 PKD
ROOT
ATOM      1  C   ALA A   1      -8.215  13.430  68.236  1.00  0.00    -0.160 C  
ATOM      2  C   ALA A   1      -6.917  12.856  67.696  1.00  0.00    -0.152 C  
ATOM      3  CA  ALA A   1      -7.382  11.515  67.107  1.00  0.00    -0.139 C  
ATOM      4  N   ALA A   1      -8.806  11.734  66.731  1.00  0.00    -0.187 N  
ATOM      5  C   ALA A   1      -7.195  10.398  68.137  1.00  0.00    -0.087 C  
ATOM      6  C   ALA A   1      -9.204  13.092  67.116  1.00  0.00    -0.227 C  
ATOM      7  O   ALA A   1      -8.336  10.044  68.769  1.00  0.00    -0.109 OA 
ATOM      8  C   ALA A   1      -9.459  11.066  65.688  1.00  0.00    -0.217 C  
ATOM      9  OXT ALA A   1      -6.108   9.905  68.400  1.00  0.00    -0.046 OA 
ATOM     10  C   ALA A   1      -8.229  14.910  68.565  1.00  0.00    -0.153 C  
ATOM     11  O   ALA A   1     -10.541  11.466  65.252  1.00  0.00    -0.273 OA 
ATOM     12  C   ALA A   1     -10.620  13.378  67.616  1.00  0.00    -0.249 C  
ATOM     13  C   ALA A   1      -9.642  15.324  68.990  1.00  0.00    -0.237 C  
ATOM     14  C   ALA A   1     -10.726  14.867  68.004  1.00  0.00    -0.253 C  
ENDROOT
BRANCH   8  15
ATOM     15  CA  ALA A   1      -8.750   9.809  65.071  1.00  0.00    -0.174 C  
ATOM     16  CB  ALA A   1      -8.490  10.042  63.580  1.00  0.00    -0.187 C  
BRANCH  15  17
ATOM     17  N   ALA A   1      -9.565   8.602  65.313  1.00  0.00    -0.343 NA 
ATOM     18  H   ALA A   1      -9.597   8.027  64.471  1.00  0.00     0.000 HD 
BRANCH  17  19
HETATM   19  C   UNK A   0      -9.152   7.779  66.476  1.00  0.00    -0.170 C  
BRANCH  19  20
HETATM   20  C   UNK A   0     -10.308   7.542  67.470  1.00  0.00    -0.321 C  
BRANCH  20  21
HETATM   21  C   UNK A   0      -9.871   6.821  68.756  1.00  0.00    -0.143 C  
BRANCH  21  22
HETATM   22  C   UNK A   0     -10.684   7.283  69.941  1.00  0.00    -0.257 A  
HETATM   23  C   UNK A   0     -11.888   6.648  70.273  1.00  0.00    -0.378 A  
HETATM   24  C   UNK A   0     -10.221   8.329  70.751  1.00  0.00    -0.219 A  
HETATM   25  C   UNK A   0     -12.622   7.063  71.384  1.00  0.00    -0.428 A  
HETATM   26  C   UNK A   0     -10.958   8.743  71.861  1.00  0.00    -0.435 A  
HETATM   27  C   UNK A   0     -12.158   8.111  72.178  1.00  0.00    -0.408 A  
ENDBRANCH  21  22
ENDBRANCH  20  21
ENDBRANCH  19  20
BRANCH  19  28
HETATM   28  C   UNK A   0      -8.638   6.414  65.971  1.00  0.00    -0.147 C  
HETATM   29  O   UNK A   0      -9.329   5.537  65.477  1.00  0.00    -0.113 OA 
BRANCH  28  30
HETATM   30  O   UNK A   0      -7.300   6.293  66.236  1.00  0.00    -0.077 OA 
BRANCH  30  31
HETATM   31  C   UNK A   0      -6.565   5.487  65.300  1.00  0.00    -0.040 C  
HETATM   32  C   UNK A   0      -6.006   6.403  64.224  1.00  0.00    -0.023 C  
ENDBRANCH  30  31
ENDBRANCH  28  30
ENDBRANCH  19  28
ENDBRANCH  17  19
ENDBRANCH  15  17
ENDBRANCH   8  15
TORSDOF 9
ENDMDL
MODEL      197
REMARK 921   NORMALIZED FREE ENERGY PREDICTED BY IDOCK:   -3.78 KCAL/MOL
REMARK 922        TOTAL FREE ENERGY PREDICTED BY IDOCK:   -7.72 KCAL/MOL
REMARK 923 INTER-LIGAND FREE ENERGY PREDICTED BY IDOCK:   -7.14 KCAL/MOL
REMARK 924 INTRA-LIGAND FREE ENERGY PREDICTED BY IDOCK:   -0.58 KCAL/MOL
REMARK 927      BINDING AFFINITY PREDICTED BY RF-SCORE:    0.00 PKD
ROOT
ATOM      1  C   ALA A   1     -11.119  12.470  69.006  1.00  0.00    -0.287 C  
ATOM      2  C   ALA A   1      -9.807  12.807  68.318  1.00  0.00    -0.224 C  
ATOM      3  CA  ALA A   1      -9.974  14.307  68.032  1.00  0.00    -0.220 C  
ATOM      4  N   ALA A   1     -10.896  14.801  69.093  1.00  0.00    -0.252 N  
ATOM      5  C   ALA A   1     -10.519  14.512  66.617  1.00  0.00    -0.274 C  
ATOM      6  C   ALA A   1     -11.312  13.674  69.935  1.00  0.00    -0.056 C  
ATOM      7  O   ALA A   1     -11.843  14.779  66.577  1.00  0.00    -0.332 OA 
ATOM      8  C   ALA A   1     -10.891  16.107  69.597  1.00  0.00    -0.338 C  
ATOM      9  OXT ALA A   1      -9.833  14.397  65.611  1.00  0.00    -0.324 OA 
ATOM     10  C   ALA A   1     -11.179  11.162  69.772  1.00  0.00    -0.318 C  
ATOM     11  O   ALA A   1     -11.482  16.390  70.641  1.00  0.00    -0.347 OA 
ATOM     12  C   ALA A   1     -12.723  13.616  70.518  1.00  0.00    -0.260 C  
ATOM     13  C   ALA A   1     -12.533  11.048  70.480  1.00  0.00    -0.432 C  
ATOM     14  C   ALA A   1     -12.891  12.297  71.298  1.00  0.00    -0.337 C  
ENDROOT
BRANCH   8  15
ATOM     15  CA  ALA A   1     -10.079  17.192  68.805  1.00  0.00    -0.329 C  
ATOM     16  CB  ALA A   1     -10.860  17.613  67.557  1.00  0.00    -0.205 C  
BRANCH  15  17
ATOM     17  N   ALA A   1      -8.737  16.673  68.473  1.00  0.00    -0.232 NA 
ATOM     18  H   ALA A   1      -8.579  16.728  67.468  1.00  0.00     0.000 HD 
BRANCH  17  19
HETATM   19  C   UNK A   0      -7.612  17.312  69.201  1.00  0.00    -0.103 C  
BRANCH  19  20
HETATM   20  C   UNK A   0      -6.394  16.375  69.339  1.00  0.00    -0.200 C  
BRANCH  20  21
HETATM   21  C   UNK A   0      -6.135  15.518  68.089  1.00  0.00    -0.140 C  
BRANCH  21  22
HETATM   22  C   UNK A   0      -6.191  14.046  68.418  1.00  0.00    -0.102 A  
HETATM   23  C   UNK A   0      -6.066  13.604  69.741  1.00  0.00    -0.126 A  
HETATM   24  C   UNK A   0      -6.412  13.104  67.403  1.00  0.00    -0.079 A  
HETATM   25  C   UNK A   0      -6.144  12.244  70.042  1.00  0.00    -0.130 A  
HETATM   26  C   UNK A   0      -6.488  11.743  67.707  1.00  0.00    -0.075 A  
HETATM   27  C   UNK A   0      -6.353  11.313  69.025  1.00  0.00    -0.060 A  
ENDBRANCH  21  22
ENDBRANCH  20  21
ENDBRANCH  19  20
BRANCH  19  28
HETATM   28  C   UNK A   0      -7.181  18.585  68.443  1.00  0.00    -0.276 C  
HETATM   29  O   UNK A   0      -6.724  19.594  68.959  1.00  0.00    -0.307 OA 
BRANCH  28  30
HETATM   30  O   UNK A   0      -7.464  18.454  67.110  1.00  0.00    -0.213 OA 
BRANCH  30  31
HETATM   31  C   UNK A   0      -7.510  19.687  66.373  1.00  0.00    -0.275 C  
HETATM   32  C   UNK A   0      -6.616  19.541  65.152  1.00  0.00    -0.286 C  
ENDBRANCH  30  31
ENDBRANCH  28  30
ENDBRANCH  19  28
ENDBRANCH  17  19
ENDBRANCH  15  17
ENDBRANCH   8  15
TORSDOF 9
ENDMDL
MODEL      198
REMARK 921   NORMALIZED FREE ENERGY PREDICTED BY IDOCK:   -3.74 KCAL/MOL
REMARK 922        TOTAL FREE ENERGY PREDICTED BY IDOCK:   -7.65 KCAL/MOL
REMARK 923 INTER-LIGAND FREE ENERGY PREDICTED BY IDOCK:   -6.51 KCAL/MOL
REMARK 924 INTRA-LIGAND FREE ENERGY PREDICTED BY IDOCK:   -1.13 KCAL/MOL
REMARK 927      BINDING AFFINITY PREDICTED BY RF-SCORE:    0.00 PKD
ROOT
ATOM      1  C   ALA A   1      -9.360   3.943  71.657  1.00  0.00    -0.202 C  
ATOM      2  C   ALA A   1     -10.143   4.249  72.923  1.00  0.00    -0.212 C  
ATOM      3  CA  ALA A   1     -10.605   5.693  72.670  1.00  0.00    -0.225 C  
ATOM      4  N   ALA A   1     -10.689   5.816  71.188  1.00  0.00    -0.260 N  
ATOM      5  C   ALA A   1      -9.617   6.676  73.301  1.00  0.00    -0.157 C  
ATOM      6  C   ALA A   1     -10.253   4.557  70.573  1.00  0.00    -0.082 C  
ATOM      7  O   ALA A   1      -8.762   7.234  72.416  1.00  0.00    -0.118 OA 
ATOM      8  C   ALA A   1     -11.568   6.673  70.515  1.00  0.00    -0.390 C  
ATOM      9  OXT ALA A   1      -9.572   6.902  74.502  1.00  0.00    -0.251 OA 
ATOM     10  C   ALA A   1      -9.059   2.485  71.370  1.00  0.00    -0.165 C  
ATOM     11  O   ALA A   1     -11.783   6.549  69.308  1.00  0.00    -0.250 OA 
ATOM     12  C   ALA A   1      -9.481   4.560  69.254  1.00  0.00    -0.242 C  
ATOM     13  C   ALA A   1      -8.363   2.367  70.010  1.00  0.00    -0.073 C  
ATOM     14  C   ALA A   1      -9.103   3.111  68.889  1.00  0.00    -0.208 C  
ENDROOT
BRANCH   8  15
ATOM     15  CA  ALA A   1     -12.296   7.779  71.359  1.00  0.00    -0.323 C  
ATOM     16  CB  ALA A   1     -13.506   7.170  72.074  1.00  0.00    -0.175 C  
BRANCH  15  17
ATOM     17  N   ALA A   1     -12.674   8.910  70.488  1.00  0.00    -0.247 NA 
ATOM     18  H   ALA A   1     -13.676   9.083  70.555  1.00  0.00     0.000 HD 
BRANCH  17  19
HETATM   19  C   UNK A   0     -11.922  10.167  70.720  1.00  0.00    -0.348 C  
BRANCH  19  20
HETATM   20  C   UNK A   0     -11.391  10.786  69.410  1.00  0.00    -0.351 C  
BRANCH  20  21
HETATM   21  C   UNK A   0     -10.451   9.852  68.629  1.00  0.00    -0.231 C  
BRANCH  21  22
HETATM   22  C   UNK A   0      -9.164  10.552  68.271  1.00  0.00    -0.152 A  
HETATM   23  C   UNK A   0      -8.996  11.139  67.011  1.00  0.00    -0.156 A  
HETATM   24  C   UNK A   0      -8.132  10.661  69.215  1.00  0.00    -0.133 A  
HETATM   25  C   UNK A   0      -7.813  11.808  66.694  1.00  0.00    -0.043 A  
HETATM   26  C   UNK A   0      -6.949  11.329  68.896  1.00  0.00    -0.099 A  
HETATM   27  C   UNK A   0      -6.789  11.902  67.636  1.00  0.00    -0.112 A  
ENDBRANCH  21  22
ENDBRANCH  20  21
ENDBRANCH  19  20
BRANCH  19  28
HETATM   28  C   UNK A   0     -12.849  11.187  71.415  1.00  0.00    -0.439 C  
HETATM   29  O   UNK A   0     -13.690  10.919  72.258  1.00  0.00    -0.129 OA 
BRANCH  28  30
HETATM   30  O   UNK A   0     -12.649  12.435  70.886  1.00  0.00    -0.340 OA 
BRANCH  30  31
HETATM   31  C   UNK A   0     -12.489  13.487  71.851  1.00  0.00    -0.004 C  
HETATM   32  C   UNK A   0     -12.373  14.804  71.101  1.00  0.00    -0.397 C  
ENDBRANCH  30  31
ENDBRANCH  28  30
ENDBRANCH  19  28
ENDBRANCH  17  19
ENDBRANCH  15  17
ENDBRANCH   8  15
TORSDOF 9
ENDMDL
MODEL      199
REMARK 921   NORMALIZED FREE ENERGY PREDICTED BY IDOCK:   -3.72 KCAL/MOL
REMARK 922        TOTAL FREE ENERGY PREDICTED BY IDOCK:   -7.62 KCAL/MOL
REMARK 923 INTER-LIGAND FREE ENERGY PREDICTED BY IDOCK:   -7.20 KCAL/MOL
REMARK 924 INTRA-LIGAND FREE ENERGY PREDICTED BY IDOCK:   -0.42 KCAL/MOL
REMARK 927      BINDING AFFINITY PREDICTED BY RF-SCORE:    0.00 PKD
ROOT
ATOM      1  C   ALA A   1      -7.841   8.219  66.907  1.00  0.00    -0.096 C  
ATOM      2  C   ALA A   1      -9.348   8.348  66.765  1.00  0.00    -0.235 C  
ATOM      3  CA  ALA A   1      -9.825   8.115  68.207  1.00  0.00    -0.171 C  
ATOM      4  N   ALA A   1      -8.691   8.562  69.063  1.00  0.00    -0.134 N  
ATOM      5  C   ALA A   1     -10.187   6.642  68.407  1.00  0.00    -0.171 C  
ATOM      6  C   ALA A   1      -7.576   8.983  68.209  1.00  0.00    -0.091 C  
ATOM      7  O   ALA A   1      -9.234   5.929  69.046  1.00  0.00    -0.123 OA 
ATOM      8  C   ALA A   1      -8.836   9.078  70.357  1.00  0.00    -0.200 C  
ATOM      9  OXT ALA A   1     -11.221   6.143  67.985  1.00  0.00    -0.310 OA 
ATOM     10  C   ALA A   1      -6.993   8.750  65.768  1.00  0.00    -0.076 C  
ATOM     11  O   ALA A   1      -7.910   9.671  70.915  1.00  0.00    -0.317 OA 
ATOM     12  C   ALA A   1      -6.130   8.731  68.634  1.00  0.00    -0.045 C  
ATOM     13  C   ALA A   1      -5.511   8.631  66.136  1.00  0.00    -0.034 C  
ATOM     14  C   ALA A   1      -5.185   9.218  67.517  1.00  0.00    -0.037 C  
ENDROOT
BRANCH   8  15
ATOM     15  CA  ALA A   1     -10.229   8.905  71.060  1.00  0.00    -0.254 C  
ATOM     16  CB  ALA A   1     -10.443   7.433  71.426  1.00  0.00    -0.218 C  
BRANCH  15  17
ATOM     17  N   ALA A   1     -11.301   9.424  70.188  1.00  0.00    -0.364 NA 
ATOM     18  H   ALA A   1     -12.164   8.906  70.349  1.00  0.00     0.000 HD 
BRANCH  17  19
HETATM   19  C   UNK A   0     -11.555  10.882  70.294  1.00  0.00    -0.334 C  
BRANCH  19  20
HETATM   20  C   UNK A   0     -11.892  11.521  68.931  1.00  0.00    -0.406 C  
BRANCH  20  21
HETATM   21  C   UNK A   0     -10.694  11.578  67.969  1.00  0.00    -0.241 C  
BRANCH  21  22
HETATM   22  C   UNK A   0      -9.823  12.777  68.254  1.00  0.00    -0.224 A  
HETATM   23  C   UNK A   0      -8.427  12.678  68.191  1.00  0.00    -0.177 A  
HETATM   24  C   UNK A   0     -10.405  14.019  68.546  1.00  0.00    -0.247 A  
HETATM   25  C   UNK A   0      -7.629  13.796  68.431  1.00  0.00    -0.135 A  
HETATM   26  C   UNK A   0      -9.604  15.136  68.787  1.00  0.00    -0.219 A  
HETATM   27  C   UNK A   0      -8.216  15.025  68.730  1.00  0.00    -0.168 A  
ENDBRANCH  21  22
ENDBRANCH  20  21
ENDBRANCH  19  20
BRANCH  19  28
HETATM   28  C   UNK A   0     -12.732  11.120  71.263  1.00  0.00    -0.426 C  
HETATM   29  O   UNK A   0     -13.215  10.282  72.009  1.00  0.00    -0.450 OA 
BRANCH  28  30
HETATM   30  O   UNK A   0     -13.218  12.390  71.104  1.00  0.00    -0.125 OA 
BRANCH  30  31
HETATM   31  C   UNK A   0     -13.542  13.075  72.325  1.00  0.00    -0.547 C  
HETATM   32  C   UNK A   0     -14.310  14.338  71.970  1.00  0.00    -0.629 C  
ENDBRANCH  30  31
ENDBRANCH  28  30
ENDBRANCH  19  28
ENDBRANCH  17  19
ENDBRANCH  15  17
ENDBRANCH   8  15
TORSDOF 9
ENDMDL
MODEL      200
REMARK 921   NORMALIZED FREE ENERGY PREDICTED BY IDOCK:   -3.71 KCAL/MOL
REMARK 922        TOTAL FREE ENERGY PREDICTED BY IDOCK:   -7.60 KCAL/MOL
REMARK 923 INTER-LIGAND FREE ENERGY PREDICTED BY IDOCK:   -7.43 KCAL/MOL
REMARK 924 INTRA-LIGAND FREE ENERGY PREDICTED BY IDOCK:   -0.18 KCAL/MOL
REMARK 927      BINDING AFFINITY PREDICTED BY RF-SCORE:    0.00 PKD
ROOT
ATOM      1  C   ALA A   1     -12.047  15.414  69.005  1.00  0.00    -0.254 C  
ATOM      2  C   ALA A   1     -11.824  14.771  67.647  1.00  0.00    -0.319 C  
ATOM      3  CA  ALA A   1     -10.389  15.211  67.318  1.00  0.00    -0.261 C  
ATOM      4  N   ALA A   1      -9.732  15.400  68.641  1.00  0.00    -0.203 N  
ATOM      5  C   ALA A   1     -10.414  16.485  66.470  1.00  0.00    -0.270 C  
ATOM      6  C   ALA A   1     -10.709  15.151  69.706  1.00  0.00    -0.274 C  
ATOM      7  O   ALA A   1     -10.158  17.611  67.171  1.00  0.00    -0.304 OA 
ATOM      8  C   ALA A   1      -8.362  15.229  68.874  1.00  0.00    -0.196 C  
ATOM      9  OXT ALA A   1     -10.689  16.491  65.278  1.00  0.00    -0.531 OA 
ATOM     10  C   ALA A   1     -13.215  14.902  69.825  1.00  0.00     0.602 C  
ATOM     11  O   ALA A   1      -7.915  15.138  70.019  1.00  0.00    -0.032 OA 
ATOM     12  C   ALA A   1     -10.674  15.961  71.001  1.00  0.00     0.134 C  
ATOM     13  C   ALA A   1     -13.215  15.588  71.195  1.00  0.00    -0.576 C  
ATOM     14  C   ALA A   1     -11.851  15.528  71.898  1.00  0.00    -0.514 C  
ENDROOT
BRANCH   8  15
ATOM     15  CA  ALA A   1      -7.418  15.123  67.624  1.00  0.00    -0.181 C  
ATOM     16  CB  ALA A   1      -7.452  16.437  66.837  1.00  0.00    -0.269 C  
BRANCH  15  17
ATOM     17  N   ALA A   1      -7.809  13.966  66.794  1.00  0.00    -0.243 NA 
ATOM     18  H   ALA A   1      -7.298  13.979  65.912  1.00  0.00     0.000 HD 
BRANCH  17  19
HETATM   19  C   UNK A   0      -7.669  12.641  67.445  1.00  0.00    -0.161 C  
BRANCH  19  20
HETATM   20  C   UNK A   0      -8.252  11.499  66.588  1.00  0.00    -0.156 C  
BRANCH  20  21
HETATM   21  C   UNK A   0      -9.755  11.267  66.816  1.00  0.00    -0.218 C  
BRANCH  21  22
HETATM   22  C   UNK A   0     -10.558  11.671  65.604  1.00  0.00    -0.324 A  
HETATM   23  C   UNK A   0     -11.870  12.140  65.740  1.00  0.00    -0.342 A  
HETATM   24  C   UNK A   0      -9.981  11.622  64.327  1.00  0.00    -0.303 A  
HETATM   25  C   UNK A   0     -12.598  12.536  64.618  1.00  0.00    -0.507 A  
HETATM   26  C   UNK A   0     -10.712  12.017  63.206  1.00  0.00    -0.400 A  
HETATM   27  C   UNK A   0     -12.021  12.474  63.350  1.00  0.00    -0.602 A  
ENDBRANCH  21  22
ENDBRANCH  20  21
ENDBRANCH  19  20
BRANCH  19  28
HETATM   28  C   UNK A   0      -6.173  12.361  67.701  1.00  0.00    -0.132 C  
HETATM   29  O   UNK A   0      -5.297  12.362  66.850  1.00  0.00    -0.333 OA 
BRANCH  28  30
HETATM   30  O   UNK A   0      -5.979  12.026  69.014  1.00  0.00    -0.060 OA 
BRANCH  30  31
HETATM   31  C   UNK A   0      -5.893  10.615  69.276  1.00  0.00    -0.041 C  
HETATM   32  C   UNK A   0      -7.149  10.195  70.022  1.00  0.00    -0.156 C  
ENDBRANCH  30  31
ENDBRANCH  28  30
ENDBRANCH  19  28
ENDBRANCH  17  19
ENDBRANCH  15  17
ENDBRANCH   8  15
TORSDOF 9
ENDMDL
MODEL      201
REMARK 921   NORMALIZED FREE ENERGY PREDICTED BY IDOCK:   -3.70 KCAL/MOL
REMARK 922        TOTAL FREE ENERGY PREDICTED BY IDOCK:   -7.59 KCAL/MOL
REMARK 923 INTER-LIGAND FREE ENERGY PREDICTED BY IDOCK:   -7.24 KCAL/MOL
REMARK 924 INTRA-LIGAND FREE ENERGY PREDICTED BY IDOCK:   -0.35 KCAL/MOL
REMARK 927      BINDING AFFINITY PREDICTED BY RF-SCORE:    0.00 PKD
ROOT
ATOM      1  C   ALA A   1     -12.368  14.901  70.183  1.00  0.00    -0.376 C  
ATOM      2  C   ALA A   1     -12.026  15.168  68.728  1.00  0.00    -0.280 C  
ATOM      3  CA  ALA A   1     -11.022  14.046  68.425  1.00  0.00    -0.252 C  
ATOM      4  N   ALA A   1     -11.389  12.941  69.353  1.00  0.00    -0.233 N  
ATOM      5  C   ALA A   1      -9.593  14.554  68.629  1.00  0.00    -0.219 C  
ATOM      6  C   ALA A   1     -12.502  13.374  70.205  1.00  0.00    -0.174 C  
ATOM      7  O   ALA A   1      -9.040  14.169  69.800  1.00  0.00     0.711 OA 
ATOM      8  C   ALA A   1     -11.183  11.582  69.084  1.00  0.00    -0.274 C  
ATOM      9  OXT ALA A   1      -9.020  15.281  67.830  1.00  0.00    -0.168 OA 
ATOM     10  C   ALA A   1     -13.609  15.576  70.735  1.00  0.00    -0.147 C  
ATOM     11  O   ALA A   1     -11.735  10.707  69.753  1.00  0.00    -0.268 OA 
ATOM     12  C   ALA A   1     -12.594  12.916  71.660  1.00  0.00    -0.207 C  
ATOM     13  C   ALA A   1     -13.848  15.106  72.173  1.00  0.00    -0.607 C  
ATOM     14  C   ALA A   1     -13.821  13.577  72.319  1.00  0.00    -0.680 C  
ENDROOT
BRANCH   8  15
ATOM     15  CA  ALA A   1     -10.248  11.212  67.877  1.00  0.00    -0.180 C  
ATOM     16  CB  ALA A   1      -8.782  11.354  68.296  1.00  0.00    -0.160 C  
BRANCH  15  17
ATOM     17  N   ALA A   1     -10.578  12.052  66.709  1.00  0.00    -0.221 NA 
ATOM     18  H   ALA A   1     -10.472  13.038  66.946  1.00  0.00     0.000 HD 
BRANCH  17  19
HETATM   19  C   UNK A   0      -9.822  11.742  65.471  1.00  0.00    -0.234 C  
BRANCH  19  20
HETATM   20  C   UNK A   0     -10.076  10.304  64.972  1.00  0.00    -0.353 C  
BRANCH  20  21
HETATM   21  C   UNK A   0      -8.786   9.491  64.768  1.00  0.00    -0.244 C  
BRANCH  21  22
HETATM   22  C   UNK A   0      -8.833   8.195  65.540  1.00  0.00    -0.130 A  
HETATM   23  C   UNK A   0      -9.774   8.004  66.559  1.00  0.00    -0.297 A  
HETATM   24  C   UNK A   0      -7.959   7.148  65.216  1.00  0.00    -0.127 A  
HETATM   25  C   UNK A   0      -9.829   6.795  67.252  1.00  0.00    -0.187 A  
HETATM   26  C   UNK A   0      -8.015   5.939  65.911  1.00  0.00    -0.109 A  
HETATM   27  C   UNK A   0      -8.949   5.762  66.930  1.00  0.00    -0.114 A  
ENDBRANCH  21  22
ENDBRANCH  20  21
ENDBRANCH  19  20
BRANCH  19  28
HETATM   28  C   UNK A   0     -10.237  12.736  64.365  1.00  0.00    -0.319 C  
HETATM   29  O   UNK A   0     -10.148  12.535  63.164  1.00  0.00    -0.290 OA 
BRANCH  28  30
HETATM   30  O   UNK A   0     -10.642  13.916  64.928  1.00  0.00    -0.372 OA 
BRANCH  30  31
HETATM   31  C   UNK A   0     -11.855  14.465  64.385  1.00  0.00    -0.415 C  
HETATM   32  C   UNK A   0     -13.011  14.017  65.262  1.00  0.00    -0.315 C  
ENDBRANCH  30  31
ENDBRANCH  28  30
ENDBRANCH  19  28
ENDBRANCH  17  19
ENDBRANCH  15  17
ENDBRANCH   8  15
TORSDOF 9
ENDMDL
MODEL      202
REMARK 921   NORMALIZED FREE ENERGY PREDICTED BY IDOCK:   -3.68 KCAL/MOL
REMARK 922        TOTAL FREE ENERGY PREDICTED BY IDOCK:   -7.57 KCAL/MOL
REMARK 923 INTER-LIGAND FREE ENERGY PREDICTED BY IDOCK:   -5.75 KCAL/MOL
REMARK 924 INTRA-LIGAND FREE ENERGY PREDICTED BY IDOCK:   -1.81 KCAL/MOL
REMARK 927      BINDING AFFINITY PREDICTED BY RF-SCORE:    0.00 PKD
ROOT
ATOM      1  C   ALA A   1     -11.690  10.008  69.849  1.00  0.00    -0.190 C  
ATOM      2  C   ALA A   1     -12.331   9.667  71.183  1.00  0.00    -0.427 C  
ATOM      3  CA  ALA A   1     -11.421   8.541  71.696  1.00  0.00    -0.298 C  
ATOM      4  N   ALA A   1     -10.095   8.805  71.073  1.00  0.00    -0.217 N  
ATOM      5  C   ALA A   1     -12.007   7.180  71.312  1.00  0.00    -0.337 C  
ATOM      6  C   ALA A   1     -10.197   9.975  70.195  1.00  0.00    -0.242 C  
ATOM      7  O   ALA A   1     -11.410   6.613  70.241  1.00  0.00    -0.318 OA 
ATOM      8  C   ALA A   1      -8.868   8.447  71.645  1.00  0.00    -0.186 C  
ATOM      9  OXT ALA A   1     -12.958   6.673  71.889  1.00  0.00    -0.306 OA 
ATOM     10  C   ALA A   1     -12.085  11.326  69.212  1.00  0.00    -0.372 C  
ATOM     11  O   ALA A   1      -7.807   8.914  71.227  1.00  0.00    -0.137 OA 
ATOM     12  C   ALA A   1      -9.397  10.047  68.895  1.00  0.00    -0.172 C  
ATOM     13  C   ALA A   1     -11.262  11.543  67.938  1.00  0.00    -0.344 C  
ATOM     14  C   ALA A   1      -9.754  11.353  68.155  1.00  0.00    -0.194 C  
ENDROOT
BRANCH   8  15
ATOM     15  CA  ALA A   1      -8.894   7.453  72.861  1.00  0.00    -0.134 C  
ATOM     16  CB  ALA A   1      -8.456   8.182  74.134  1.00  0.00    -0.250 C  
BRANCH  15  17
ATOM     17  N   ALA A   1      -8.045   6.281  72.570  1.00  0.00    -0.103 NA 
ATOM     18  H   ALA A   1      -7.403   6.113  73.345  1.00  0.00     0.000 HD 
BRANCH  17  19
HETATM   19  C   UNK A   0      -8.777   5.034  72.236  1.00  0.00    -0.125 C  
BRANCH  19  20
HETATM   20  C   UNK A   0      -8.136   4.274  71.056  1.00  0.00    -0.072 C  
BRANCH  20  21
HETATM   21  C   UNK A   0      -8.818   4.554  69.706  1.00  0.00    -0.129 C  
BRANCH  21  22
HETATM   22  C   UNK A   0      -7.855   5.190  68.733  1.00  0.00    -0.079 A  
HETATM   23  C   UNK A   0      -6.991   6.212  69.147  1.00  0.00    -0.068 A  
HETATM   24  C   UNK A   0      -7.785   4.734  67.409  1.00  0.00    -0.090 A  
HETATM   25  C   UNK A   0      -6.086   6.778  68.249  1.00  0.00    -0.029 A  
HETATM   26  C   UNK A   0      -6.879   5.303  66.512  1.00  0.00    -0.063 A  
HETATM   27  C   UNK A   0      -6.030   6.325  66.931  1.00  0.00    -0.024 A  
ENDBRANCH  21  22
ENDBRANCH  20  21
ENDBRANCH  19  20
BRANCH  19  28
HETATM   28  C   UNK A   0      -8.794   4.113  73.474  1.00  0.00    -0.093 C  
HETATM   29  O   UNK A   0      -7.944   3.279  73.747  1.00  0.00    -0.068 OA 
BRANCH  28  30
HETATM   30  O   UNK A   0      -9.949   4.306  74.183  1.00  0.00    -0.130 OA 
BRANCH  30  31
HETATM   31  C   UNK A   0     -11.160   4.021  73.463  1.00  0.00    -0.259 C  
HETATM   32  C   UNK A   0     -11.392   2.520  73.501  1.00  0.00    -0.295 C  
ENDBRANCH  30  31
ENDBRANCH  28  30
ENDBRANCH  19  28
ENDBRANCH  17  19
ENDBRANCH  15  17
ENDBRANCH   8  15
TORSDOF 9
ENDMDL
MODEL      203
REMARK 921   NORMALIZED FREE ENERGY PREDICTED BY IDOCK:   -3.63 KCAL/MOL
REMARK 922        TOTAL FREE ENERGY PREDICTED BY IDOCK:   -7.49 KCAL/MOL
REMARK 923 INTER-LIGAND FREE ENERGY PREDICTED BY IDOCK:   -6.92 KCAL/MOL
REMARK 924 INTRA-LIGAND FREE ENERGY PREDICTED BY IDOCK:   -0.57 KCAL/MOL
REMARK 927      BINDING AFFINITY PREDICTED BY RF-SCORE:    0.00 PKD
ROOT
ATOM      1  C   ALA A   1      -9.959  11.847  65.400  1.00  0.00    -0.281 C  
ATOM      2  C   ALA A   1     -10.266  10.368  65.234  1.00  0.00    -0.332 C  
ATOM      3  CA  ALA A   1      -9.043   9.713  65.894  1.00  0.00    -0.178 C  
ATOM      4  N   ALA A   1      -8.578  10.701  66.907  1.00  0.00    -0.125 N  
ATOM      5  C   ALA A   1      -7.987   9.390  64.836  1.00  0.00    -0.120 C  
ATOM      6  C   ALA A   1      -9.417  11.901  66.832  1.00  0.00    -0.199 C  
ATOM      7  O   ALA A   1      -6.969  10.279  64.794  1.00  0.00    -0.138 OA 
ATOM      8  C   ALA A   1      -7.917  10.363  68.094  1.00  0.00    -0.110 C  
ATOM      9  OXT ALA A   1      -8.076   8.445  64.066  1.00  0.00    -0.150 OA 
ATOM     10  C   ALA A   1     -11.109  12.815  65.202  1.00  0.00    -0.323 C  
ATOM     11  O   ALA A   1      -7.791  11.179  69.009  1.00  0.00    -0.138 OA 
ATOM     12  C   ALA A   1      -8.819  13.287  67.072  1.00  0.00    -0.216 C  
ATOM     13  C   ALA A   1     -10.635  14.239  65.513  1.00  0.00    -0.351 C  
ATOM     14  C   ALA A   1      -9.916  14.351  66.865  1.00  0.00    -0.261 C  
ENDROOT
BRANCH   8  15
ATOM     15  CA  ALA A   1      -7.372   8.897  68.233  1.00  0.00    -0.083 C  
ATOM     16  CB  ALA A   1      -6.026   8.775  67.514  1.00  0.00    -0.047 C  
BRANCH  15  17
ATOM     17  N   ALA A   1      -8.369   7.938  67.717  1.00  0.00    -0.128 NA 
ATOM     18  H   ALA A   1      -7.929   7.296  67.059  1.00  0.00     0.000 HD 
BRANCH  17  19
HETATM   19  C   UNK A   0      -9.113   7.177  68.751  1.00  0.00    -0.134 C  
BRANCH  19  20
HETATM   20  C   UNK A   0     -10.512   7.767  69.022  1.00  0.00    -0.215 C  
BRANCH  20  21
HETATM   21  C   UNK A   0     -10.735   8.165  70.491  1.00  0.00    -0.233 C  
BRANCH  21  22
HETATM   22  C   UNK A   0     -11.454   9.488  70.593  1.00  0.00    -0.362 A  
HETATM   23  C   UNK A   0     -12.361   9.730  71.631  1.00  0.00    -0.495 A  
HETATM   24  C   UNK A   0     -11.188  10.509  69.669  1.00  0.00    -0.342 A  
HETATM   25  C   UNK A   0     -13.004  10.964  71.735  1.00  0.00    -0.557 A  
HETATM   26  C   UNK A   0     -11.833  11.743  69.774  1.00  0.00    -0.420 A  
HETATM   27  C   UNK A   0     -12.741  11.970  70.806  1.00  0.00    -0.231 A  
ENDBRANCH  21  22
ENDBRANCH  20  21
ENDBRANCH  19  20
BRANCH  19  28
HETATM   28  C   UNK A   0      -9.268   5.714  68.286  1.00  0.00    -0.110 C  
HETATM   29  O   UNK A   0      -8.478   4.811  68.516  1.00  0.00    -0.093 OA 
BRANCH  28  30
HETATM   30  O   UNK A   0     -10.383   5.590  67.500  1.00  0.00    -0.196 OA 
BRANCH  30  31
HETATM   31  C   UNK A   0     -10.251   4.680  66.396  1.00  0.00    -0.260 C  
HETATM   32  C   UNK A   0      -9.254   5.271  65.412  1.00  0.00    -0.091 C  
ENDBRANCH  30  31
ENDBRANCH  28  30
ENDBRANCH  19  28
ENDBRANCH  17  19
ENDBRANCH  15  17
ENDBRANCH   8  15
TORSDOF 9
ENDMDL
MODEL      204
REMARK 921   NORMALIZED FREE ENERGY PREDICTED BY IDOCK:   -3.61 KCAL/MOL
REMARK 922        TOTAL FREE ENERGY PREDICTED BY IDOCK:   -7.46 KCAL/MOL
REMARK 923 INTER-LIGAND FREE ENERGY PREDICTED BY IDOCK:   -6.01 KCAL/MOL
REMARK 924 INTRA-LIGAND FREE ENERGY PREDICTED BY IDOCK:   -1.45 KCAL/MOL
REMARK 927      BINDING AFFINITY PREDICTED BY RF-SCORE:    0.00 PKD
ROOT
ATOM      1  C   ALA A   1     -10.362   8.412  70.508  1.00  0.00    -0.220 C  
ATOM      2  C   ALA A   1     -11.014   8.485  69.137  1.00  0.00     0.054 C  
ATOM      3  CA  ALA A   1     -10.422   9.786  68.573  1.00  0.00    -0.210 C  
ATOM      4  N   ALA A   1      -9.101   9.931  69.246  1.00  0.00    -0.177 N  
ATOM      5  C   ALA A   1     -11.370  10.955  68.847  1.00  0.00    -0.288 C  
ATOM      6  C   ALA A   1      -8.921   8.831  70.199  1.00  0.00    -0.166 C  
ATOM      7  O   ALA A   1     -10.997  11.725  69.892  1.00  0.00    -0.019 OA 
ATOM      8  C   ALA A   1      -7.994  10.577  68.682  1.00  0.00    -0.124 C  
ATOM      9  OXT ALA A   1     -12.397  11.147  68.212  1.00  0.00    -0.532 OA 
ATOM     10  C   ALA A   1     -10.412   7.076  71.223  1.00  0.00    -0.224 C  
ATOM     11  O   ALA A   1      -6.865  10.443  69.159  1.00  0.00    -0.055 OA 
ATOM     12  C   ALA A   1      -8.189   9.057  71.522  1.00  0.00    -0.055 C  
ATOM     13  C   ALA A   1      -9.618   7.168  72.530  1.00  0.00    -0.172 C  
ATOM     14  C   ALA A   1      -8.210   7.750  72.339  1.00  0.00    -0.155 C  
ENDROOT
BRANCH   8  15
ATOM     15  CA  ALA A   1      -8.236  11.453  67.402  1.00  0.00    -0.145 C  
ATOM     16  CB  ALA A   1      -8.589  12.886  67.814  1.00  0.00    -0.185 C  
BRANCH  15  17
ATOM     17  N   ALA A   1      -9.284  10.840  66.563  1.00  0.00    -0.165 NA 
ATOM     18  H   ALA A   1     -10.058  11.492  66.438  1.00  0.00     0.000 HD 
BRANCH  17  19
HETATM   19  C   UNK A   0      -8.828  10.333  65.246  1.00  0.00    -0.180 C  
BRANCH  19  20
HETATM   20  C   UNK A   0      -8.947   8.799  65.132  1.00  0.00    -0.152 C  
BRANCH  20  21
HETATM   21  C   UNK A   0      -7.883   8.041  65.945  1.00  0.00    -0.099 C  
BRANCH  21  22
HETATM   22  C   UNK A   0      -8.511   6.949  66.777  1.00  0.00    -0.118 A  
HETATM   23  C   UNK A   0      -7.876   6.476  67.932  1.00  0.00    -0.108 A  
HETATM   24  C   UNK A   0      -9.763   6.425  66.426  1.00  0.00    -0.140 A  
HETATM   25  C   UNK A   0      -8.473   5.485  68.711  1.00  0.00    -0.101 A  
HETATM   26  C   UNK A   0     -10.358   5.433  67.206  1.00  0.00    -0.273 A  
HETATM   27  C   UNK A   0      -9.714   4.962  68.348  1.00  0.00    -0.212 A  
ENDBRANCH  21  22
ENDBRANCH  20  21
ENDBRANCH  19  20
BRANCH  19  28
HETATM   28  C   UNK A   0      -9.676  10.984  64.133  1.00  0.00    -0.285 C  
HETATM   29  O   UNK A   0      -9.730  10.607  62.973  1.00  0.00    -0.314 OA 
BRANCH  28  30
HETATM   30  O   UNK A   0     -10.298  12.104  64.616  1.00  0.00    -0.276 OA 
BRANCH  30  31
HETATM   31  C   UNK A   0     -11.685  12.231  64.263  1.00  0.00    -0.381 C  
HETATM   32  C   UNK A   0     -12.330  13.215  65.225  1.00  0.00    -0.532 C  
ENDBRANCH  30  31
ENDBRANCH  28  30
ENDBRANCH  19  28
ENDBRANCH  17  19
ENDBRANCH  15  17
ENDBRANCH   8  15
TORSDOF 9
ENDMDL
MODEL      205
REMARK 921   NORMALIZED FREE ENERGY PREDICTED BY IDOCK:   -3.61 KCAL/MOL
REMARK 922        TOTAL FREE ENERGY PREDICTED BY IDOCK:   -7.45 KCAL/MOL
REMARK 923 INTER-LIGAND FREE ENERGY PREDICTED BY IDOCK:   -5.78 KCAL/MOL
REMARK 924 INTRA-LIGAND FREE ENERGY PREDICTED BY IDOCK:   -1.67 KCAL/MOL
REMARK 927      BINDING AFFINITY PREDICTED BY RF-SCORE:    0.00 PKD
ROOT
ATOM      1  C   ALA A   1     -11.316  11.091  70.203  1.00  0.00    -0.335 C  
ATOM      2  C   ALA A   1     -10.727  11.462  68.853  1.00  0.00    -0.248 C  
ATOM      3  CA  ALA A   1      -9.821  10.257  68.559  1.00  0.00    -0.164 C  
ATOM      4  N   ALA A   1     -10.449   9.118  69.283  1.00  0.00    -0.219 N  
ATOM      5  C   ALA A   1      -8.392  10.551  69.021  1.00  0.00    -0.154 C  
ATOM      6  C   ALA A   1     -11.623   9.600  70.018  1.00  0.00    -0.088 C  
ATOM      7  O   ALA A   1      -8.073   9.977  70.202  1.00  0.00    -0.175 OA 
ATOM      8  C   ALA A   1     -10.358   7.779  68.881  1.00  0.00    -0.213 C  
ATOM      9  OXT ALA A   1      -7.625  11.277  68.405  1.00  0.00    -0.105 OA 
ATOM     10  C   ALA A   1     -12.543  11.860  70.654  1.00  0.00    -0.269 C  
ATOM     11  O   ALA A   1     -11.102   6.918  69.355  1.00  0.00    -0.244 OA 
ATOM     12  C   ALA A   1     -11.989   9.009  71.379  1.00  0.00    -0.400 C  
ATOM     13  C   ALA A   1     -13.052  11.277  71.976  1.00  0.00    -0.431 C  
ATOM     14  C   ALA A   1     -13.220   9.751  71.936  1.00  0.00    -0.545 C  
ENDROOT
BRANCH   8  15
ATOM     15  CA  ALA A   1      -9.298   7.419  67.781  1.00  0.00    -0.136 C  
ATOM     16  CB  ALA A   1      -9.982   7.326  66.414  1.00  0.00    -0.094 C  
BRANCH  15  17
ATOM     17  N   ALA A   1      -8.602   6.168  68.142  1.00  0.00    -0.116 NA 
ATOM     18  H   ALA A   1      -8.504   5.572  67.321  1.00  0.00     0.000 HD 
BRANCH  17  19
HETATM   19  C   UNK A   0      -7.287   6.342  68.805  1.00  0.00    -0.086 C  
BRANCH  19  20
HETATM   20  C   UNK A   0      -7.239   5.682  70.199  1.00  0.00    -0.068 C  
BRANCH  20  21
HETATM   21  C   UNK A   0      -7.553   6.655  71.348  1.00  0.00    -0.093 C  
BRANCH  21  22
HETATM   22  C   UNK A   0      -8.710   6.158  72.179  1.00  0.00    -0.131 A  
HETATM   23  C   UNK A   0      -9.228   4.871  71.988  1.00  0.00    -0.164 A  
HETATM   24  C   UNK A   0      -9.256   6.968  73.186  1.00  0.00    -0.165 A  
HETATM   25  C   UNK A   0     -10.281   4.408  72.777  1.00  0.00    -0.233 A  
HETATM   26  C   UNK A   0     -10.311   6.503  73.973  1.00  0.00    -0.362 A  
HETATM   27  C   UNK A   0     -10.824   5.224  73.769  1.00  0.00    -0.315 A  
ENDBRANCH  21  22
ENDBRANCH  20  21
ENDBRANCH  19  20
BRANCH  19  28
HETATM   28  C   UNK A   0      -6.189   5.719  67.918  1.00  0.00    -0.029 C  
HETATM   29  O   UNK A   0      -5.165   6.280  67.560  1.00  0.00    -0.004 OA 
BRANCH  28  30
HETATM   30  O   UNK A   0      -6.569   4.466  67.517  1.00  0.00    -0.044 OA 
BRANCH  30  31
HETATM   31  C   UNK A   0      -6.714   4.299  66.097  1.00  0.00    -0.049 C  
HETATM   32  C   UNK A   0      -8.170   3.980  65.803  1.00  0.00    -0.105 C  
ENDBRANCH  30  31
ENDBRANCH  28  30
ENDBRANCH  19  28
ENDBRANCH  17  19
ENDBRANCH  15  17
ENDBRANCH   8  15
TORSDOF 9
ENDMDL
MODEL      206
REMARK 921   NORMALIZED FREE ENERGY PREDICTED BY IDOCK:   -3.60 KCAL/MOL
REMARK 922        TOTAL FREE ENERGY PREDICTED BY IDOCK:   -7.43 KCAL/MOL
REMARK 923 INTER-LIGAND FREE ENERGY PREDICTED BY IDOCK:   -6.21 KCAL/MOL
REMARK 924 INTRA-LIGAND FREE ENERGY PREDICTED BY IDOCK:   -1.22 KCAL/MOL
REMARK 927      BINDING AFFINITY PREDICTED BY RF-SCORE:    0.00 PKD
ROOT
ATOM      1  C   ALA A   1      -6.956   4.280  66.337  1.00  0.00    -0.059 C  
ATOM      2  C   ALA A   1      -6.623   4.216  67.818  1.00  0.00    -0.042 C  
ATOM      3  CA  ALA A   1      -7.581   5.263  68.406  1.00  0.00    -0.080 C  
ATOM      4  N   ALA A   1      -8.740   5.291  67.471  1.00  0.00    -0.107 N  
ATOM      5  C   ALA A   1      -6.871   6.613  68.525  1.00  0.00    -0.070 C  
ATOM      6  C   ALA A   1      -8.486   4.370  66.358  1.00  0.00    -0.112 C  
ATOM      7  O   ALA A   1      -7.186   7.483  67.540  1.00  0.00    -0.085 OA 
ATOM      8  C   ALA A   1     -10.050   5.613  67.847  1.00  0.00    -0.168 C  
ATOM      9  OXT ALA A   1      -6.058   6.867  69.402  1.00  0.00    -0.031 OA 
ATOM     10  C   ALA A   1      -6.478   3.129  65.474  1.00  0.00    -0.032 C  
ATOM     11  O   ALA A   1     -11.005   5.368  67.107  1.00  0.00    -0.115 OA 
ATOM     12  C   ALA A   1      -8.971   4.700  64.946  1.00  0.00    -0.153 C  
ATOM     13  C   ALA A   1      -6.996   3.315  64.044  1.00  0.00    -0.048 C  
ATOM     14  C   ALA A   1      -8.506   3.591  63.982  1.00  0.00    -0.090 C  
ENDROOT
BRANCH   8  15
ATOM     15  CA  ALA A   1     -10.264   6.267  69.258  1.00  0.00    -0.193 C  
ATOM     16  CB  ALA A   1     -10.682   5.194  70.268  1.00  0.00    -0.121 C  
BRANCH  15  17
ATOM     17  N   ALA A   1     -11.253   7.358  69.162  1.00  0.00    -0.437 NA 
ATOM     18  H   ALA A   1     -12.082   7.128  69.709  1.00  0.00     0.000 HD 
BRANCH  17  19
HETATM   19  C   UNK A   0     -10.753   8.704  69.537  1.00  0.00    -0.182 C  
BRANCH  19  20
HETATM   20  C   UNK A   0     -10.909   9.729  68.395  1.00  0.00    -0.244 C  
BRANCH  20  21
HETATM   21  C   UNK A   0     -10.041  10.985  68.578  1.00  0.00    -0.198 C  
BRANCH  21  22
HETATM   22  C   UNK A   0     -10.754  12.217  68.076  1.00  0.00    -0.242 A  
HETATM   23  C   UNK A   0     -11.257  12.269  66.770  1.00  0.00    -0.371 A  
HETATM   24  C   UNK A   0     -10.960  13.311  68.928  1.00  0.00    -0.278 A  
HETATM   25  C   UNK A   0     -11.939  13.400  66.320  1.00  0.00    -0.460 A  
HETATM   26  C   UNK A   0     -11.641  14.442  68.476  1.00  0.00    -0.347 A  
HETATM   27  C   UNK A   0     -12.130  14.487  67.172  1.00  0.00    -0.301 A  
ENDBRANCH  21  22
ENDBRANCH  20  21
ENDBRANCH  19  20
BRANCH  19  28
HETATM   28  C   UNK A   0     -11.534   9.206  70.770  1.00  0.00    -0.282 C  
HETATM   29  O   UNK A   0     -12.625   9.754  70.742  1.00  0.00    -0.276 OA 
BRANCH  28  30
HETATM   30  O   UNK A   0     -10.785   9.024  71.902  1.00  0.00    -0.347 OA 
BRANCH  30  31
HETATM   31  C   UNK A   0     -11.291   8.036  72.815  1.00  0.00    -0.374 C  
HETATM   32  C   UNK A   0     -10.106   7.312  73.433  1.00  0.00    -0.367 C  
ENDBRANCH  30  31
ENDBRANCH  28  30
ENDBRANCH  19  28
ENDBRANCH  17  19
ENDBRANCH  15  17
ENDBRANCH   8  15
TORSDOF 9
ENDMDL
MODEL      207
REMARK 921   NORMALIZED FREE ENERGY PREDICTED BY IDOCK:   -3.59 KCAL/MOL
REMARK 922        TOTAL FREE ENERGY PREDICTED BY IDOCK:   -7.43 KCAL/MOL
REMARK 923 INTER-LIGAND FREE ENERGY PREDICTED BY IDOCK:   -5.79 KCAL/MOL
REMARK 924 INTRA-LIGAND FREE ENERGY PREDICTED BY IDOCK:   -1.64 KCAL/MOL
REMARK 927      BINDING AFFINITY PREDICTED BY RF-SCORE:    0.00 PKD
ROOT
ATOM      1  C   ALA A   1      -6.184  17.352  68.019  1.00  0.00    -0.149 C  
ATOM      2  C   ALA A   1      -5.252  16.158  68.127  1.00  0.00    -0.110 C  
ATOM      3  CA  ALA A   1      -6.231  15.019  68.452  1.00  0.00    -0.106 C  
ATOM      4  N   ALA A   1      -7.524  15.438  67.844  1.00  0.00    -0.129 N  
ATOM      5  C   ALA A   1      -6.314  14.816  69.966  1.00  0.00    -0.164 C  
ATOM      6  C   ALA A   1      -7.367  16.766  67.240  1.00  0.00    -0.175 C  
ATOM      7  O   ALA A   1      -7.413  15.365  70.529  1.00  0.00     0.435 OA 
ATOM      8  C   ALA A   1      -8.500  14.551  67.374  1.00  0.00    -0.205 C  
ATOM      9  OXT ALA A   1      -5.445  14.254  70.616  1.00  0.00    -0.116 OA 
ATOM     10  C   ALA A   1      -5.635  18.595  67.345  1.00  0.00    -0.142 C  
ATOM     11  O   ALA A   1      -9.420  14.938  66.651  1.00  0.00    -0.237 OA 
ATOM     12  C   ALA A   1      -8.513  17.776  67.267  1.00  0.00    -0.239 C  
ATOM     13  C   ALA A   1      -6.744  19.646  67.234  1.00  0.00    -0.226 C  
ATOM     14  C   ALA A   1      -8.039  19.093  66.622  1.00  0.00    -0.290 C  
ENDROOT
BRANCH   8  15
ATOM     15  CA  ALA A   1      -8.365  13.039  67.775  1.00  0.00    -0.175 C  
ATOM     16  CB  ALA A   1      -7.924  12.220  66.558  1.00  0.00     0.202 C  
BRANCH  15  17
ATOM     17  N   ALA A   1      -9.637  12.553  68.343  1.00  0.00    -0.310 NA 
ATOM     18  H   ALA A   1     -10.192  13.338  68.683  1.00  0.00     0.000 HD 
BRANCH  17  19
HETATM   19  C   UNK A   0     -10.453  11.705  67.440  1.00  0.00    -0.210 C  
BRANCH  19  20
HETATM   20  C   UNK A   0     -10.880  10.379  68.103  1.00  0.00    -0.311 C  
BRANCH  20  21
HETATM   21  C   UNK A   0     -10.779   9.165  67.165  1.00  0.00    -0.213 C  
BRANCH  21  22
HETATM   22  C   UNK A   0      -9.341   8.765  66.945  1.00  0.00    -0.213 A  
HETATM   23  C   UNK A   0      -8.757   8.863  65.676  1.00  0.00    -0.213 A  
HETATM   24  C   UNK A   0      -8.557   8.330  68.023  1.00  0.00    -0.132 A  
HETATM   25  C   UNK A   0      -7.420   8.517  65.484  1.00  0.00    -0.085 A  
HETATM   26  C   UNK A   0      -7.219   7.982  67.828  1.00  0.00    -0.091 A  
HETATM   27  C   UNK A   0      -6.650   8.075  66.560  1.00  0.00    -0.055 A  
ENDBRANCH  21  22
ENDBRANCH  20  21
ENDBRANCH  19  20
BRANCH  19  28
HETATM   28  C   UNK A   0     -11.717  12.485  67.022  1.00  0.00    -0.367 C  
HETATM   29  O   UNK A   0     -12.200  13.428  67.630  1.00  0.00    -0.302 OA 
BRANCH  28  30
HETATM   30  O   UNK A   0     -12.274  11.911  65.910  1.00  0.00    -0.435 OA 
BRANCH  30  31
HETATM   31  C   UNK A   0     -12.716  12.837  64.904  1.00  0.00    -0.404 C  
HETATM   32  C   UNK A   0     -11.947  12.549  63.625  1.00  0.00    -0.621 C  
ENDBRANCH  30  31
ENDBRANCH  28  30
ENDBRANCH  19  28
ENDBRANCH  17  19
ENDBRANCH  15  17
ENDBRANCH   8  15
TORSDOF 9
ENDMDL
MODEL      208
REMARK 921   NORMALIZED FREE ENERGY PREDICTED BY IDOCK:   -3.57 KCAL/MOL
REMARK 922        TOTAL FREE ENERGY PREDICTED BY IDOCK:   -7.39 KCAL/MOL
REMARK 923 INTER-LIGAND FREE ENERGY PREDICTED BY IDOCK:   -6.39 KCAL/MOL
REMARK 924 INTRA-LIGAND FREE ENERGY PREDICTED BY IDOCK:   -1.00 KCAL/MOL
REMARK 927      BINDING AFFINITY PREDICTED BY RF-SCORE:    0.00 PKD
ROOT
ATOM      1  C   ALA A   1      -9.283  17.185  67.619  1.00  0.00    -0.238 C  
ATOM      2  C   ALA A   1     -10.778  17.006  67.414  1.00  0.00    -0.240 C  
ATOM      3  CA  ALA A   1     -10.864  15.535  66.978  1.00  0.00    -0.314 C  
ATOM      4  N   ALA A   1      -9.686  14.877  67.607  1.00  0.00    -0.211 N  
ATOM      5  C   ALA A   1     -10.863  15.442  65.450  1.00  0.00    -0.391 C  
ATOM      6  C   ALA A   1      -8.899  15.882  68.329  1.00  0.00    -0.179 C  
ATOM      7  O   ALA A   1      -9.666  15.096  64.927  1.00  0.00    -0.070 OA 
ATOM      8  C   ALA A   1      -9.642  13.529  67.983  1.00  0.00    -0.221 C  
ATOM      9  OXT ALA A   1     -11.839  15.704  64.762  1.00  0.00    -0.185 OA 
ATOM     10  C   ALA A   1      -8.838  18.401  68.409  1.00  0.00    -0.340 C  
ATOM     11  O   ALA A   1      -8.758  13.103  68.728  1.00  0.00    -0.010 OA 
ATOM     12  C   ALA A   1      -7.374  15.790  68.380  1.00  0.00    -0.117 C  
ATOM     13  C   ALA A   1      -7.318  18.355  68.601  1.00  0.00    -0.311 C  
ATOM     14  C   ALA A   1      -6.822  17.008  69.147  1.00  0.00    -0.240 C  
ENDROOT
BRANCH   8  15
ATOM     15  CA  ALA A   1     -10.778  12.586  67.449  1.00  0.00    -0.229 C  
ATOM     16  CB  ALA A   1     -11.901  12.491  68.486  1.00  0.00    -0.341 C  
BRANCH  15  17
ATOM     17  N   ALA A   1     -10.217  11.262  67.113  1.00  0.00    -0.196 NA 
ATOM     18  H   ALA A   1     -10.935  10.675  66.691  1.00  0.00     0.000 HD 
BRANCH  17  19
HETATM   19  C   UNK A   0      -9.007  11.285  66.255  1.00  0.00    -0.197 C  
BRANCH  19  20
HETATM   20  C   UNK A   0      -7.913  10.318  66.753  1.00  0.00    -0.114 C  
BRANCH  20  21
HETATM   21  C   UNK A   0      -8.422   8.885  66.984  1.00  0.00    -0.112 C  
BRANCH  21  22
HETATM   22  C   UNK A   0      -7.445   7.868  66.447  1.00  0.00    -0.087 A  
HETATM   23  C   UNK A   0      -7.810   6.522  66.323  1.00  0.00    -0.105 A  
HETATM   24  C   UNK A   0      -6.169   8.269  66.025  1.00  0.00    -0.049 A  
HETATM   25  C   UNK A   0      -6.911   5.591  65.802  1.00  0.00    -0.066 A  
HETATM   26  C   UNK A   0      -5.271   7.336  65.506  1.00  0.00    -0.028 A  
HETATM   27  C   UNK A   0      -5.641   5.997  65.394  1.00  0.00    -0.017 A  
ENDBRANCH  21  22
ENDBRANCH  20  21
ENDBRANCH  19  20
BRANCH  19  28
HETATM   28  C   UNK A   0      -9.403  10.894  64.815  1.00  0.00    -0.226 C  
HETATM   29  O   UNK A   0      -8.642  10.458  63.966  1.00  0.00    -0.171 OA 
BRANCH  28  30
HETATM   30  O   UNK A   0     -10.723  11.188  64.599  1.00  0.00    -0.325 OA 
BRANCH  30  31
HETATM   31  C   UNK A   0     -10.972  12.132  63.544  1.00  0.00    -0.453 C  
HETATM   32  C   UNK A   0     -12.459  12.445  63.531  1.00  0.00    -0.605 C  
ENDBRANCH  30  31
ENDBRANCH  28  30
ENDBRANCH  19  28
ENDBRANCH  17  19
ENDBRANCH  15  17
ENDBRANCH   8  15
TORSDOF 9
ENDMDL
MODEL      209
REMARK 921   NORMALIZED FREE ENERGY PREDICTED BY IDOCK:   -3.56 KCAL/MOL
REMARK 922        TOTAL FREE ENERGY PREDICTED BY IDOCK:   -7.37 KCAL/MOL
REMARK 923 INTER-LIGAND FREE ENERGY PREDICTED BY IDOCK:   -6.11 KCAL/MOL
REMARK 924 INTRA-LIGAND FREE ENERGY PREDICTED BY IDOCK:   -1.26 KCAL/MOL
REMARK 927      BINDING AFFINITY PREDICTED BY RF-SCORE:    0.00 PKD
ROOT
ATOM      1  C   ALA A   1     -10.346  17.170  66.871  1.00  0.00    -0.308 C  
ATOM      2  C   ALA A   1     -11.191  16.151  67.617  1.00  0.00    -0.147 C  
ATOM      3  CA  ALA A   1     -10.519  14.828  67.220  1.00  0.00    -0.264 C  
ATOM      4  N   ALA A   1      -9.101  15.186  66.939  1.00  0.00    -0.231 N  
ATOM      5  C   ALA A   1     -11.237  14.218  66.015  1.00  0.00    -0.324 C  
ATOM      6  C   ALA A   1      -8.928  16.634  67.095  1.00  0.00    -0.210 C  
ATOM      7  O   ALA A   1     -10.596  14.416  64.842  1.00  0.00    -0.405 OA 
ATOM      8  C   ALA A   1      -8.018  14.315  67.109  1.00  0.00    -0.101 C  
ATOM      9  OXT ALA A   1     -12.314  13.645  66.096  1.00  0.00    -0.431 OA 
ATOM     10  C   ALA A   1     -10.470  18.617  67.305  1.00  0.00    -0.468 C  
ATOM     11  O   ALA A   1      -6.858  14.731  67.117  1.00  0.00    -0.242 OA 
ATOM     12  C   ALA A   1      -7.969  17.407  66.189  1.00  0.00    -0.275 C  
ATOM     13  C   ALA A   1      -9.472  19.472  66.516  1.00  0.00    -0.450 C  
ATOM     14  C   ALA A   1      -8.045  18.907  66.540  1.00  0.00    -0.298 C  
ENDROOT
BRANCH   8  15
ATOM     15  CA  ALA A   1      -8.334  12.791  67.321  1.00  0.00    -0.187 C  
ATOM     16  CB  ALA A   1      -8.715  12.541  68.783  1.00  0.00     0.158 C  
BRANCH  15  17
ATOM     17  N   ALA A   1      -7.180  11.974  66.898  1.00  0.00    -0.339 NA 
ATOM     18  H   ALA A   1      -6.515  11.884  67.665  1.00  0.00     0.000 HD 
BRANCH  17  19
HETATM   19  C   UNK A   0      -7.516  10.635  66.354  1.00  0.00    -0.138 C  
BRANCH  19  20
HETATM   20  C   UNK A   0      -7.544   9.547  67.448  1.00  0.00    -0.095 C  
BRANCH  20  21
HETATM   21  C   UNK A   0      -6.565   9.814  68.603  1.00  0.00    -0.051 C  
BRANCH  21  22
HETATM   22  C   UNK A   0      -7.108   9.287  69.909  1.00  0.00    -0.064 A  
HETATM   23  C   UNK A   0      -6.245   8.949  70.958  1.00  0.00    -0.052 A  
HETATM   24  C   UNK A   0      -8.492   9.170  70.102  1.00  0.00    -0.186 A  
HETATM   25  C   UNK A   0      -6.754   8.487  72.171  1.00  0.00    -0.089 A  
HETATM   26  C   UNK A   0      -9.000   8.706  71.316  1.00  0.00    -0.268 A  
HETATM   27  C   UNK A   0      -8.132   8.364  72.351  1.00  0.00    -0.185 A  
ENDBRANCH  21  22
ENDBRANCH  20  21
ENDBRANCH  19  20
BRANCH  19  28
HETATM   28  C   UNK A   0      -8.900  10.699  65.676  1.00  0.00    -0.186 C  
HETATM   29  O   UNK A   0      -9.215  11.468  64.781  1.00  0.00    -0.114 OA 
BRANCH  28  30
HETATM   30  O   UNK A   0      -9.758   9.822  66.284  1.00  0.00    -0.199 OA 
BRANCH  30  31
HETATM   31  C   UNK A   0     -11.057  10.354  66.592  1.00  0.00     0.109 C  
HETATM   32  C   UNK A   0     -11.364  10.040  68.046  1.00  0.00    -0.069 C  
ENDBRANCH  30  31
ENDBRANCH  28  30
ENDBRANCH  19  28
ENDBRANCH  17  19
ENDBRANCH  15  17
ENDBRANCH   8  15
TORSDOF 9
ENDMDL
MODEL      210
REMARK 921   NORMALIZED FREE ENERGY PREDICTED BY IDOCK:   -3.53 KCAL/MOL
REMARK 922        TOTAL FREE ENERGY PREDICTED BY IDOCK:   -7.34 KCAL/MOL
REMARK 923 INTER-LIGAND FREE ENERGY PREDICTED BY IDOCK:   -5.84 KCAL/MOL
REMARK 924 INTRA-LIGAND FREE ENERGY PREDICTED BY IDOCK:   -1.50 KCAL/MOL
REMARK 927      BINDING AFFINITY PREDICTED BY RF-SCORE:    0.00 PKD
ROOT
ATOM      1  C   ALA A   1      -8.511   4.577  65.259  1.00  0.00    -0.124 C  
ATOM      2  C   ALA A   1      -9.411   3.536  65.905  1.00  0.00    -0.159 C  
ATOM      3  CA  ALA A   1      -9.458   4.018  67.363  1.00  0.00    -0.192 C  
ATOM      4  N   ALA A   1      -9.243   5.490  67.289  1.00  0.00    -0.110 N  
ATOM      5  C   ALA A   1      -8.392   3.294  68.188  1.00  0.00    -0.079 C  
ATOM      6  C   ALA A   1      -9.021   5.876  65.892  1.00  0.00    -0.140 C  
ATOM      7  O   ALA A   1      -7.284   4.032  68.415  1.00  0.00    -0.054 OA 
ATOM      8  C   ALA A   1      -9.755   6.410  68.213  1.00  0.00    -0.127 C  
ATOM      9  OXT ALA A   1      -8.510   2.137  68.567  1.00  0.00    -0.056 OA 
ATOM     10  C   ALA A   1      -8.524   4.653  63.745  1.00  0.00    -0.126 C  
ATOM     11  O   ALA A   1      -9.773   7.617  67.967  1.00  0.00    -0.146 OA 
ATOM     12  C   ALA A   1      -8.047   7.001  65.539  1.00  0.00    -0.132 C  
ATOM     13  C   ALA A   1      -7.645   5.821  63.286  1.00  0.00    -0.081 C  
ATOM     14  C   ALA A   1      -7.971   7.138  64.006  1.00  0.00    -0.078 C  
ENDROOT
BRANCH   8  15
ATOM     15  CA  ALA A   1     -10.334   5.846  69.559  1.00  0.00    -0.248 C  
ATOM     16  CB  ALA A   1     -11.702   6.476  69.837  1.00  0.00    -0.349 C  
BRANCH  15  17
ATOM     17  N   ALA A   1      -9.377   6.084  70.657  1.00  0.00    -0.159 NA 
ATOM     18  H   ALA A   1      -8.988   5.199  70.980  1.00  0.00     0.000 HD 
BRANCH  17  19
HETATM   19  C   UNK A   0      -8.285   7.040  70.352  1.00  0.00    -0.124 C  
BRANCH  19  20
HETATM   20  C   UNK A   0      -8.466   8.392  71.073  1.00  0.00    -0.167 C  
BRANCH  20  21
HETATM   21  C   UNK A   0      -9.549   8.362  72.165  1.00  0.00    -0.367 C  
BRANCH  21  22
HETATM   22  C   UNK A   0     -10.791   9.094  71.719  1.00  0.00    -0.416 A  
HETATM   23  C   UNK A   0     -10.738  10.016  70.667  1.00  0.00    -0.325 A  
HETATM   24  C   UNK A   0     -12.025   8.827  72.328  1.00  0.00    -0.415 A  
HETATM   25  C   UNK A   0     -11.894  10.671  70.242  1.00  0.00    -0.430 A  
HETATM   26  C   UNK A   0     -13.181   9.484  71.903  1.00  0.00    -0.524 A  
HETATM   27  C   UNK A   0     -13.116  10.406  70.860  1.00  0.00    -0.412 A  
ENDBRANCH  21  22
ENDBRANCH  20  21
ENDBRANCH  19  20
BRANCH  19  28
HETATM   28  C   UNK A   0      -6.938   6.421  70.781  1.00  0.00    -0.068 C  
HETATM   29  O   UNK A   0      -5.835   6.827  70.451  1.00  0.00    -0.023 OA 
BRANCH  28  30
HETATM   30  O   UNK A   0      -7.160   5.290  71.521  1.00  0.00    -0.062 OA 
BRANCH  30  31
HETATM   31  C   UNK A   0      -6.501   5.259  72.798  1.00  0.00    -0.060 C  
HETATM   32  C   UNK A   0      -7.532   5.572  73.870  1.00  0.00    -0.090 C  
ENDBRANCH  30  31
ENDBRANCH  28  30
ENDBRANCH  19  28
ENDBRANCH  17  19
ENDBRANCH  15  17
ENDBRANCH   8  15
TORSDOF 9
ENDMDL
MODEL      211
REMARK 921   NORMALIZED FREE ENERGY PREDICTED BY IDOCK:   -3.53 KCAL/MOL
REMARK 922        TOTAL FREE ENERGY PREDICTED BY IDOCK:   -7.33 KCAL/MOL
REMARK 923 INTER-LIGAND FREE ENERGY PREDICTED BY IDOCK:   -7.07 KCAL/MOL
REMARK 924 INTRA-LIGAND FREE ENERGY PREDICTED BY IDOCK:   -0.26 KCAL/MOL
REMARK 927      BINDING AFFINITY PREDICTED BY RF-SCORE:    0.00 PKD
ROOT
ATOM      1  C   ALA A   1      -8.400   5.327  67.338  1.00  0.00    -0.106 C  
ATOM      2  C   ALA A   1      -8.873   5.868  68.676  1.00  0.00    -0.111 C  
ATOM      3  CA  ALA A   1      -8.517   7.358  68.561  1.00  0.00    -0.125 C  
ATOM      4  N   ALA A   1      -8.563   7.652  67.101  1.00  0.00    -0.120 N  
ATOM      5  C   ALA A   1      -7.145   7.618  69.185  1.00  0.00    -0.077 C  
ATOM      6  C   ALA A   1      -8.867   6.419  66.369  1.00  0.00    -0.141 C  
ATOM      7  O   ALA A   1      -6.148   7.735  68.281  1.00  0.00    -0.038 OA 
ATOM      8  C   ALA A   1      -8.880   8.903  66.558  1.00  0.00    -0.136 C  
ATOM      9  OXT ALA A   1      -6.957   7.667  70.393  1.00  0.00    -0.046 OA 
ATOM     10  C   ALA A   1      -8.915   3.961  66.927  1.00  0.00    -0.147 C  
ATOM     11  O   ALA A   1      -9.160   9.029  65.364  1.00  0.00    -0.209 OA 
ATOM     12  C   ALA A   1      -8.243   6.151  65.000  1.00  0.00    -0.132 C  
ATOM     13  C   ALA A   1      -8.420   3.634  65.514  1.00  0.00    -0.110 C  
ATOM     14  C   ALA A   1      -8.690   4.761  64.506  1.00  0.00    -0.153 C  
ENDROOT
BRANCH   8  15
ATOM     15  CA  ALA A   1      -8.899  10.137  67.529  1.00  0.00    -0.125 C  
ATOM     16  CB  ALA A   1      -7.489  10.724  67.648  1.00  0.00    -0.095 C  
BRANCH  15  17
ATOM     17  N   ALA A   1      -9.448   9.737  68.840  1.00  0.00    -0.155 NA 
ATOM     18  H   ALA A   1      -8.698   9.664  69.526  1.00  0.00     0.000 HD 
BRANCH  17  19
HETATM   19  C   UNK A   0     -10.535  10.601  69.363  1.00  0.00    -0.225 C  
BRANCH  19  20
HETATM   20  C   UNK A   0     -11.587  10.939  68.287  1.00  0.00    -0.335 C  
BRANCH  20  21
HETATM   21  C   UNK A   0     -11.775  12.450  68.069  1.00  0.00    -0.414 C  
BRANCH  21  22
HETATM   22  C   UNK A   0     -11.846  12.782  66.599  1.00  0.00    -0.462 A  
HETATM   23  C   UNK A   0     -12.325  14.026  66.169  1.00  0.00    -0.491 A  
HETATM   24  C   UNK A   0     -11.391  11.862  65.644  1.00  0.00    -0.339 A  
HETATM   25  C   UNK A   0     -12.364  14.337  64.810  1.00  0.00    -0.440 A  
HETATM   26  C   UNK A   0     -11.432  12.174  64.284  1.00  0.00    -0.437 A  
HETATM   27  C   UNK A   0     -11.919  13.411  63.867  1.00  0.00    -0.520 A  
ENDBRANCH  21  22
ENDBRANCH  20  21
ENDBRANCH  19  20
BRANCH  19  28
HETATM   28  C   UNK A   0     -11.232   9.879  70.535  1.00  0.00    -0.330 C  
HETATM   29  O   UNK A   0     -12.176  10.316  71.175  1.00  0.00    -0.333 OA 
BRANCH  28  30
HETATM   30  O   UNK A   0     -10.583   8.706  70.813  1.00  0.00    -0.197 OA 
BRANCH  30  31
HETATM   31  C   UNK A   0     -10.492   8.376  72.209  1.00  0.00    -0.337 C  
HETATM   32  C   UNK A   0     -10.008   6.940  72.326  1.00  0.00    -0.176 C  
ENDBRANCH  30  31
ENDBRANCH  28  30
ENDBRANCH  19  28
ENDBRANCH  17  19
ENDBRANCH  15  17
ENDBRANCH   8  15
TORSDOF 9
ENDMDL
MODEL      212
REMARK 921   NORMALIZED FREE ENERGY PREDICTED BY IDOCK:   -3.51 KCAL/MOL
REMARK 922        TOTAL FREE ENERGY PREDICTED BY IDOCK:   -7.30 KCAL/MOL
REMARK 923 INTER-LIGAND FREE ENERGY PREDICTED BY IDOCK:   -7.61 KCAL/MOL
REMARK 924 INTRA-LIGAND FREE ENERGY PREDICTED BY IDOCK:    0.31 KCAL/MOL
REMARK 927      BINDING AFFINITY PREDICTED BY RF-SCORE:    0.00 PKD
ROOT
ATOM      1  C   ALA A   1     -10.648  11.619  65.165  1.00  0.00    -0.343 C  
ATOM      2  C   ALA A   1     -10.259  10.154  65.263  1.00  0.00    -0.261 C  
ATOM      3  CA  ALA A   1      -9.642  10.081  66.668  1.00  0.00    -0.186 C  
ATOM      4  N   ALA A   1     -10.315  11.164  67.439  1.00  0.00    -0.189 N  
ATOM      5  C   ALA A   1      -8.124  10.255  66.583  1.00  0.00    -0.119 C  
ATOM      6  C   ALA A   1     -11.234  11.887  66.555  1.00  0.00    -0.327 C  
ATOM      7  O   ALA A   1      -7.699  11.495  66.911  1.00  0.00    -0.150 OA 
ATOM      8  C   ALA A   1     -10.530  11.131  68.822  1.00  0.00    -0.203 C  
ATOM      9  OXT ALA A   1      -7.369   9.371  66.206  1.00  0.00    -0.094 OA 
ATOM     10  C   ALA A   1     -11.621  12.001  64.067  1.00  0.00    -0.495 C  
ATOM     11  O   ALA A   1     -11.312  11.913  69.366  1.00  0.00    -0.259 OA 
ATOM     12  C   ALA A   1     -11.443  13.393  66.711  1.00  0.00    -0.376 C  
ATOM     13  C   ALA A   1     -11.974  13.487  64.193  1.00  0.00    -0.498 C  
ATOM     14  C   ALA A   1     -12.406  13.884  65.612  1.00  0.00    -0.511 C  
ENDROOT
BRANCH   8  15
ATOM     15  CA  ALA A   1      -9.765  10.040  69.654  1.00  0.00    -0.229 C  
ATOM     16  CB  ALA A   1      -8.264  10.347  69.651  1.00  0.00    -0.099 C  
BRANCH  15  17
ATOM     17  N   ALA A   1     -10.060   8.698  69.115  1.00  0.00    -0.193 NA 
ATOM     18  H   ALA A   1      -9.193   8.223  68.863  1.00  0.00     0.000 HD 
BRANCH  17  19
HETATM   19  C   UNK A   0     -10.880   7.828  69.993  1.00  0.00    -0.241 C  
BRANCH  19  20
HETATM   20  C   UNK A   0     -11.341   6.540  69.281  1.00  0.00    -0.359 C  
BRANCH  20  21
HETATM   21  C   UNK A   0     -10.317   5.395  69.362  1.00  0.00    -0.339 C  
BRANCH  21  22
HETATM   22  C   UNK A   0      -9.790   5.040  67.994  1.00  0.00    -0.202 A  
HETATM   23  C   UNK A   0      -8.453   4.660  67.819  1.00  0.00    -0.103 A  
HETATM   24  C   UNK A   0     -10.646   5.043  66.884  1.00  0.00    -0.183 A  
HETATM   25  C   UNK A   0      -7.978   4.308  66.556  1.00  0.00    -0.098 A  
HETATM   26  C   UNK A   0     -10.168   4.691  65.620  1.00  0.00    -0.255 A  
HETATM   27  C   UNK A   0      -8.835   4.324  65.456  1.00  0.00    -0.124 A  
ENDBRANCH  21  22
ENDBRANCH  20  21
ENDBRANCH  19  20
BRANCH  19  28
HETATM   28  C   UNK A   0     -10.052   7.443  71.237  1.00  0.00    -0.188 C  
HETATM   29  O   UNK A   0      -8.838   7.315  71.267  1.00  0.00    -0.134 OA 
BRANCH  28  30
HETATM   30  O   UNK A   0     -10.887   7.181  72.290  1.00  0.00    -0.217 OA 
BRANCH  30  31
HETATM   31  C   UNK A   0     -10.412   6.184  73.210  1.00  0.00    -0.243 C  
HETATM   32  C   UNK A   0     -11.402   5.030  73.210  1.00  0.00    -0.393 C  
ENDBRANCH  30  31
ENDBRANCH  28  30
ENDBRANCH  19  28
ENDBRANCH  17  19
ENDBRANCH  15  17
ENDBRANCH   8  15
TORSDOF 9
ENDMDL
MODEL      213
REMARK 921   NORMALIZED FREE ENERGY PREDICTED BY IDOCK:   -3.49 KCAL/MOL
REMARK 922        TOTAL FREE ENERGY PREDICTED BY IDOCK:   -7.27 KCAL/MOL
REMARK 923 INTER-LIGAND FREE ENERGY PREDICTED BY IDOCK:   -5.67 KCAL/MOL
REMARK 924 INTRA-LIGAND FREE ENERGY PREDICTED BY IDOCK:   -1.61 KCAL/MOL
REMARK 927      BINDING AFFINITY PREDICTED BY RF-SCORE:    0.00 PKD
ROOT
ATOM      1  C   ALA A   1      -8.421   9.581  63.825  1.00  0.00    -0.198 C  
ATOM      2  C   ALA A   1      -8.170   8.084  63.886  1.00  0.00    -0.044 C  
ATOM      3  CA  ALA A   1      -8.428   7.778  65.369  1.00  0.00    -0.110 C  
ATOM      4  N   ALA A   1      -9.398   8.817  65.812  1.00  0.00    -0.218 N  
ATOM      5  C   ALA A   1      -7.111   7.811  66.147  1.00  0.00    -0.069 C  
ATOM      6  C   ALA A   1      -9.671   9.731  64.698  1.00  0.00    -0.096 C  
ATOM      7  O   ALA A   1      -6.919   8.954  66.843  1.00  0.00    -0.076 OA 
ATOM      8  C   ALA A   1     -10.339   8.635  66.834  1.00  0.00    -0.285 C  
ATOM      9  OXT ALA A   1      -6.285   6.911  66.106  1.00  0.00    -0.039 OA 
ATOM     10  C   ALA A   1      -8.625  10.189  62.451  1.00  0.00    -0.216 C  
ATOM     11  O   ALA A   1     -11.280   9.417  66.983  1.00  0.00     0.149 OA 
ATOM     12  C   ALA A   1      -9.910  11.219  64.951  1.00  0.00    -0.310 C  
ATOM     13  C   ALA A   1      -8.968  11.675  62.598  1.00  0.00     0.174 C  
ATOM     14  C   ALA A   1     -10.104  11.934  63.599  1.00  0.00    -0.450 C  
ENDROOT
BRANCH   8  15
ATOM     15  CA  ALA A   1     -10.172   7.380  67.763  1.00  0.00    -0.196 C  
ATOM     16  CB  ALA A   1     -10.690   6.131  67.044  1.00  0.00    -0.423 C  
BRANCH  15  17
ATOM     17  N   ALA A   1     -10.861   7.610  69.048  1.00  0.00    -0.409 NA 
ATOM     18  H   ALA A   1     -11.655   6.977  69.138  1.00  0.00     0.000 HD 
BRANCH  17  19
HETATM   19  C   UNK A   0     -10.001   7.524  70.254  1.00  0.00    -0.192 C  
BRANCH  19  20
HETATM   20  C   UNK A   0      -8.622   6.902  69.950  1.00  0.00    -0.141 C  
BRANCH  20  21
HETATM   21  C   UNK A   0      -8.463   5.472  70.492  1.00  0.00    -0.123 C  
BRANCH  21  22
HETATM   22  C   UNK A   0      -8.415   4.466  69.368  1.00  0.00    -0.091 A  
HETATM   23  C   UNK A   0      -7.358   4.471  68.449  1.00  0.00    -0.065 A  
HETATM   24  C   UNK A   0      -9.410   3.485  69.256  1.00  0.00    -0.242 A  
HETATM   25  C   UNK A   0      -7.306   3.523  67.427  1.00  0.00    -0.063 A  
HETATM   26  C   UNK A   0      -9.356   2.538  68.232  1.00  0.00    -0.262 A  
HETATM   27  C   UNK A   0      -8.306   2.557  67.317  1.00  0.00    -0.094 A  
ENDBRANCH  21  22
ENDBRANCH  20  21
ENDBRANCH  19  20
BRANCH  19  28
HETATM   28  C   UNK A   0      -9.795   8.941  70.829  1.00  0.00    -0.223 C  
HETATM   29  O   UNK A   0      -8.740   9.555  70.836  1.00  0.00    -0.243 OA 
BRANCH  28  30
HETATM   30  O   UNK A   0     -10.954   9.380  71.412  1.00  0.00    -0.335 OA 
BRANCH  30  31
HETATM   31  C   UNK A   0     -11.579   8.445  72.306  1.00  0.00    -0.383 C  
HETATM   32  C   UNK A   0     -13.085   8.569  72.143  1.00  0.00    -0.393 C  
ENDBRANCH  30  31
ENDBRANCH  28  30
ENDBRANCH  19  28
ENDBRANCH  17  19
ENDBRANCH  15  17
ENDBRANCH   8  15
TORSDOF 9
ENDMDL
MODEL      214
REMARK 921   NORMALIZED FREE ENERGY PREDICTED BY IDOCK:   -3.49 KCAL/MOL
REMARK 922        TOTAL FREE ENERGY PREDICTED BY IDOCK:   -7.27 KCAL/MOL
REMARK 923 INTER-LIGAND FREE ENERGY PREDICTED BY IDOCK:   -6.08 KCAL/MOL
REMARK 924 INTRA-LIGAND FREE ENERGY PREDICTED BY IDOCK:   -1.19 KCAL/MOL
REMARK 927      BINDING AFFINITY PREDICTED BY RF-SCORE:    0.00 PKD
ROOT
ATOM      1  C   ALA A   1     -10.355   6.192  70.202  1.00  0.00    -0.269 C  
ATOM      2  C   ALA A   1      -9.129   5.622  69.511  1.00  0.00    -0.143 C  
ATOM      3  CA  ALA A   1      -8.782   6.734  68.509  1.00  0.00    -0.124 C  
ATOM      4  N   ALA A   1      -9.294   7.986  69.132  1.00  0.00    -0.151 N  
ATOM      5  C   ALA A   1      -9.421   6.432  67.151  1.00  0.00    -0.129 C  
ATOM      6  C   ALA A   1      -9.958   7.660  70.398  1.00  0.00    -0.188 C  
ATOM      7  O   ALA A   1     -10.549   7.136  66.911  1.00  0.00    -0.305 OA 
ATOM      8  C   ALA A   1      -8.741   9.255  68.921  1.00  0.00    -0.131 C  
ATOM      9  OXT ALA A   1      -8.981   5.596  66.375  1.00  0.00    -0.126 OA 
ATOM     10  C   ALA A   1     -10.769   5.548  71.511  1.00  0.00    -0.290 C  
ATOM     11  O   ALA A   1      -9.027  10.206  69.652  1.00  0.00    -0.202 OA 
ATOM     12  C   ALA A   1     -11.192   8.438  70.855  1.00  0.00    -0.294 C  
ATOM     13  C   ALA A   1     -11.951   6.321  72.107  1.00  0.00    -0.338 C  
ATOM     14  C   ALA A   1     -11.707   7.835  72.177  1.00  0.00    -0.368 C  
ENDROOT
BRANCH   8  15
ATOM     15  CA  ALA A   1      -7.719   9.419  67.740  1.00  0.00    -0.088 C  
ATOM     16  CB  ALA A   1      -6.358   9.855  68.291  1.00  0.00    -0.054 C  
BRANCH  15  17
ATOM     17  N   ALA A   1      -8.249  10.371  66.745  1.00  0.00    -0.124 NA 
ATOM     18  H   ALA A   1      -7.640  11.187  66.681  1.00  0.00     0.000 HD 
BRANCH  17  19
HETATM   19  C   UNK A   0      -8.489   9.809  65.393  1.00  0.00    -0.145 C  
BRANCH  19  20
HETATM   20  C   UNK A   0      -8.992  10.872  64.394  1.00  0.00    -0.121 C  
BRANCH  20  21
HETATM   21  C   UNK A   0     -10.507  10.805  64.139  1.00  0.00    -0.309 C  
BRANCH  21  22
HETATM   22  C   UNK A   0     -11.179  12.102  64.514  1.00  0.00    -0.385 A  
HETATM   23  C   UNK A   0     -12.547  12.139  64.812  1.00  0.00    -0.178 A  
HETATM   24  C   UNK A   0     -10.430  13.284  64.610  1.00  0.00    -0.420 A  
HETATM   25  C   UNK A   0     -13.158  13.337  65.183  1.00  0.00    -0.043 A  
HETATM   26  C   UNK A   0     -11.044  14.482  64.980  1.00  0.00    -0.393 A  
HETATM   27  C   UNK A   0     -12.407  14.509  65.266  1.00  0.00    -0.300 A  
ENDBRANCH  21  22
ENDBRANCH  20  21
ENDBRANCH  19  20
BRANCH  19  28
HETATM   28  C   UNK A   0      -7.175   9.202  64.859  1.00  0.00    -0.097 C  
HETATM   29  O   UNK A   0      -6.171   9.834  64.566  1.00  0.00    -0.091 OA 
BRANCH  28  30
HETATM   30  O   UNK A   0      -7.323   7.853  64.678  1.00  0.00    -0.075 OA 
BRANCH  30  31
HETATM   31  C   UNK A   0      -7.791   7.461  63.377  1.00  0.00    -0.113 C  
HETATM   32  C   UNK A   0      -6.753   7.886  62.352  1.00  0.00    -0.085 C  
ENDBRANCH  30  31
ENDBRANCH  28  30
ENDBRANCH  19  28
ENDBRANCH  17  19
ENDBRANCH  15  17
ENDBRANCH   8  15
TORSDOF 9
ENDMDL
MODEL      215
REMARK 921   NORMALIZED FREE ENERGY PREDICTED BY IDOCK:   -3.45 KCAL/MOL
REMARK 922        TOTAL FREE ENERGY PREDICTED BY IDOCK:   -7.21 KCAL/MOL
REMARK 923 INTER-LIGAND FREE ENERGY PREDICTED BY IDOCK:   -8.16 KCAL/MOL
REMARK 924 INTRA-LIGAND FREE ENERGY PREDICTED BY IDOCK:    0.95 KCAL/MOL
REMARK 927      BINDING AFFINITY PREDICTED BY RF-SCORE:    0.00 PKD
ROOT
ATOM      1  C   ALA A   1     -10.652  15.409  67.487  1.00  0.00    -0.283 C  
ATOM      2  C   ALA A   1      -9.864  15.107  68.750  1.00  0.00    -0.223 C  
ATOM      3  CA  ALA A   1     -10.724  14.018  69.410  1.00  0.00    -0.052 C  
ATOM      4  N   ALA A   1     -11.421  13.343  68.281  1.00  0.00    -0.293 N  
ATOM      5  C   ALA A   1     -11.684  14.651  70.420  1.00  0.00    -0.295 C  
ATOM      6  C   ALA A   1     -11.061  14.007  67.024  1.00  0.00    -0.304 C  
ATOM      7  O   ALA A   1     -12.947  14.787  69.959  1.00  0.00    -0.159 OA 
ATOM      8  C   ALA A   1     -11.824  12.002  68.291  1.00  0.00    -0.287 C  
ATOM      9  OXT ALA A   1     -11.333  15.042  71.524  1.00  0.00    -0.350 OA 
ATOM     10  C   ALA A   1      -9.931  16.170  66.391  1.00  0.00    -0.315 C  
ATOM     11  O   ALA A   1     -12.153  11.426  67.252  1.00  0.00    -0.464 OA 
ATOM     12  C   ALA A   1     -12.083  14.148  65.896  1.00  0.00    -0.441 C  
ATOM     13  C   ALA A   1     -10.845  16.285  65.166  1.00  0.00    -0.333 C  
ATOM     14  C   ALA A   1     -11.446  14.939  64.736  1.00  0.00    -0.410 C  
ENDROOT
BRANCH   8  15
ATOM     15  CA  ALA A   1     -11.812  11.247  69.668  1.00  0.00    -0.360 C  
ATOM     16  CB  ALA A   1     -12.384  12.155  70.761  1.00  0.00    -0.391 C  
BRANCH  15  17
ATOM     17  N   ALA A   1     -10.442  10.794  69.981  1.00  0.00    -0.435 NA 
ATOM     18  H   ALA A   1     -10.172  11.113  70.911  1.00  0.00     0.000 HD 
BRANCH  17  19
HETATM   19  C   UNK A   0     -10.213   9.333  69.857  1.00  0.00    -0.214 C  
BRANCH  19  20
HETATM   20  C   UNK A   0      -9.099   8.996  68.844  1.00  0.00    -0.140 C  
BRANCH  20  21
HETATM   21  C   UNK A   0      -9.183   9.816  67.546  1.00  0.00    -0.145 C  
BRANCH  21  22
HETATM   22  C   UNK A   0      -7.929  10.626  67.331  1.00  0.00    -0.111 A  
HETATM   23  C   UNK A   0      -7.873  11.973  67.711  1.00  0.00    -0.145 A  
HETATM   24  C   UNK A   0      -6.785  10.026  66.786  1.00  0.00    -0.076 A  
HETATM   25  C   UNK A   0      -6.703  12.710  67.535  1.00  0.00    -0.156 A  
HETATM   26  C   UNK A   0      -5.614  10.765  66.609  1.00  0.00    -0.075 A  
HETATM   27  C   UNK A   0      -5.573  12.107  66.982  1.00  0.00    -0.079 A  
ENDBRANCH  21  22
ENDBRANCH  20  21
ENDBRANCH  19  20
BRANCH  19  28
HETATM   28  C   UNK A   0      -9.823   8.765  71.238  1.00  0.00    -0.266 C  
HETATM   29  O   UNK A   0      -8.834   9.082  71.879  1.00  0.00    -0.360 OA 
BRANCH  28  30
HETATM   30  O   UNK A   0     -10.706   7.785  71.605  1.00  0.00    -0.216 OA 
BRANCH  30  31
HETATM   31  C   UNK A   0     -11.932   8.257  72.189  1.00  0.00    -0.369 C  
HETATM   32  C   UNK A   0     -13.063   7.369  71.699  1.00  0.00    -0.412 C  
ENDBRANCH  30  31
ENDBRANCH  28  30
ENDBRANCH  19  28
ENDBRANCH  17  19
ENDBRANCH  15  17
ENDBRANCH   8  15
TORSDOF 9
ENDMDL
MODEL      216
REMARK 921   NORMALIZED FREE ENERGY PREDICTED BY IDOCK:   -3.44 KCAL/MOL
REMARK 922        TOTAL FREE ENERGY PREDICTED BY IDOCK:   -7.19 KCAL/MOL
REMARK 923 INTER-LIGAND FREE ENERGY PREDICTED BY IDOCK:   -7.08 KCAL/MOL
REMARK 924 INTRA-LIGAND FREE ENERGY PREDICTED BY IDOCK:   -0.11 KCAL/MOL
REMARK 927      BINDING AFFINITY PREDICTED BY RF-SCORE:    0.00 PKD
ROOT
ATOM      1  C   ALA A   1     -11.031  12.018  65.280  1.00  0.00    -0.356 C  
ATOM      2  C   ALA A   1     -11.122  10.608  65.840  1.00  0.00     0.201 C  
ATOM      3  CA  ALA A   1      -9.777  10.468  66.569  1.00  0.00    -0.192 C  
ATOM      4  N   ALA A   1      -9.404  11.856  66.959  1.00  0.00    -0.183 N  
ATOM      5  C   ALA A   1      -8.750   9.803  65.649  1.00  0.00    -0.148 C  
ATOM      6  C   ALA A   1     -10.417  12.788  66.454  1.00  0.00    -0.250 C  
ATOM      7  O   ALA A   1      -7.883  10.672  65.085  1.00  0.00    -0.119 OA 
ATOM      8  C   ALA A   1      -8.629  12.180  68.079  1.00  0.00    -0.175 C  
ATOM      9  OXT ALA A   1      -8.744   8.605  65.407  1.00  0.00    -0.173 OA 
ATOM     10  C   ALA A   1     -12.323  12.656  64.809  1.00  0.00    -0.556 C  
ATOM     11  O   ALA A   1      -8.570  13.336  68.502  1.00  0.00    -0.152 OA 
ATOM     12  C   ALA A   1     -10.020  14.181  65.965  1.00  0.00    -0.340 C  
ATOM     13  C   ALA A   1     -12.050  14.102  64.382  1.00  0.00    -0.486 C  
ATOM     14  C   ALA A   1     -11.275  14.905  65.437  1.00  0.00    -0.359 C  
ENDROOT
BRANCH   8  15
ATOM     15  CA  ALA A   1      -7.862  11.013  68.798  1.00  0.00    -0.138 C  
ATOM     16  CB  ALA A   1      -6.545  10.733  68.068  1.00  0.00    -0.063 C  
BRANCH  15  17
ATOM     17  N   ALA A   1      -8.724   9.816  68.873  1.00  0.00    -0.129 NA 
ATOM     18  H   ALA A   1      -8.182   8.981  68.654  1.00  0.00     0.000 HD 
BRANCH  17  19
HETATM   19  C   UNK A   0      -9.446   9.634  70.156  1.00  0.00    -0.253 C  
BRANCH  19  20
HETATM   20  C   UNK A   0     -10.820   8.957  69.967  1.00  0.00    -0.239 C  
BRANCH  20  21
HETATM   21  C   UNK A   0     -10.828   7.469  70.356  1.00  0.00    -0.255 C  
BRANCH  21  22
HETATM   22  C   UNK A   0     -10.546   6.594  69.160  1.00  0.00    -0.280 A  
HETATM   23  C   UNK A   0     -10.868   7.023  67.867  1.00  0.00    -0.252 A  
HETATM   24  C   UNK A   0      -9.916   5.352  69.327  1.00  0.00    -0.277 A  
HETATM   25  C   UNK A   0     -10.581   6.220  66.763  1.00  0.00    -0.335 A  
HETATM   26  C   UNK A   0      -9.631   4.549  68.221  1.00  0.00    -0.203 A  
HETATM   27  C   UNK A   0      -9.964   4.982  66.939  1.00  0.00    -0.238 A  
ENDBRANCH  21  22
ENDBRANCH  20  21
ENDBRANCH  19  20
BRANCH  19  28
HETATM   28  C   UNK A   0      -8.586   8.766  71.099  1.00  0.00    -0.195 C  
HETATM   29  O   UNK A   0      -7.734   7.967  70.744  1.00  0.00    -0.079 OA 
BRANCH  28  30
HETATM   30  O   UNK A   0      -8.978   8.959  72.397  1.00  0.00    -0.383 OA 
BRANCH  30  31
HETATM   31  C   UNK A   0      -8.421   8.034  73.345  1.00  0.00    -0.235 C  
HETATM   32  C   UNK A   0      -9.483   6.998  73.675  1.00  0.00    -0.239 C  
ENDBRANCH  30  31
ENDBRANCH  28  30
ENDBRANCH  19  28
ENDBRANCH  17  19
ENDBRANCH  15  17
ENDBRANCH   8  15
TORSDOF 9
ENDMDL
MODEL      217
REMARK 921   NORMALIZED FREE ENERGY PREDICTED BY IDOCK:   -3.42 KCAL/MOL
REMARK 922        TOTAL FREE ENERGY PREDICTED BY IDOCK:   -7.17 KCAL/MOL
REMARK 923 INTER-LIGAND FREE ENERGY PREDICTED BY IDOCK:   -7.34 KCAL/MOL
REMARK 924 INTRA-LIGAND FREE ENERGY PREDICTED BY IDOCK:    0.17 KCAL/MOL
REMARK 927      BINDING AFFINITY PREDICTED BY RF-SCORE:    0.00 PKD
ROOT
ATOM      1  C   ALA A   1      -9.309   4.511  65.921  1.00  0.00    -0.159 C  
ATOM      2  C   ALA A   1     -10.360   5.196  66.777  1.00  0.00    -0.306 C  
ATOM      3  CA  ALA A   1      -9.645   6.495  67.180  1.00  0.00    -0.136 C  
ATOM      4  N   ALA A   1      -8.684   6.764  66.075  1.00  0.00    -0.148 N  
ATOM      5  C   ALA A   1      -8.965   6.317  68.540  1.00  0.00    -0.123 C  
ATOM      6  C   ALA A   1      -8.761   5.678  65.092  1.00  0.00    -0.093 C  
ATOM      7  O   ALA A   1      -7.634   6.097  68.458  1.00  0.00    -0.089 OA 
ATOM      8  C   ALA A   1      -8.254   8.042  65.696  1.00  0.00    -0.135 C  
ATOM      9  OXT ALA A   1      -9.574   6.324  69.600  1.00  0.00    -0.145 OA 
ATOM     10  C   ALA A   1      -9.777   3.372  65.036  1.00  0.00    -0.115 C  
ATOM     11  O   ALA A   1      -7.676   8.229  64.624  1.00  0.00    -0.102 OA 
ATOM     12  C   ALA A   1      -7.510   5.203  64.354  1.00  0.00    -0.065 C  
ATOM     13  C   ALA A   1      -8.608   2.881  64.176  1.00  0.00    -0.090 C  
ATOM     14  C   ALA A   1      -7.883   4.018  63.442  1.00  0.00    -0.078 C  
ENDROOT
BRANCH   8  15
ATOM     15  CA  ALA A   1      -8.564   9.234  66.670  1.00  0.00    -0.127 C  
ATOM     16  CB  ALA A   1      -7.514   9.278  67.784  1.00  0.00    -0.088 C  
BRANCH  15  17
ATOM     17  N   ALA A   1      -9.935   9.106  67.201  1.00  0.00    -0.200 NA 
ATOM     18  H   ALA A   1      -9.906   8.856  68.189  1.00  0.00     0.000 HD 
BRANCH  17  19
HETATM   19  C   UNK A   0     -10.806  10.290  67.001  1.00  0.00    -0.181 C  
BRANCH  19  20
HETATM   20  C   UNK A   0     -11.036  11.079  68.306  1.00  0.00    -0.316 C  
BRANCH  20  21
HETATM   21  C   UNK A   0     -10.282  10.497  69.514  1.00  0.00    -0.230 C  
BRANCH  21  22
HETATM   22  C   UNK A   0     -11.242   9.945  70.539  1.00  0.00    -0.399 A  
HETATM   23  C   UNK A   0     -12.565  10.401  70.599  1.00  0.00    -0.435 A  
HETATM   24  C   UNK A   0     -10.831   8.934  71.419  1.00  0.00    -0.378 A  
HETATM   25  C   UNK A   0     -13.455   9.868  71.531  1.00  0.00    -0.393 A  
HETATM   26  C   UNK A   0     -11.723   8.403  72.352  1.00  0.00    -0.452 A  
HETATM   27  C   UNK A   0     -13.034   8.870  72.409  1.00  0.00    -0.467 A  
ENDBRANCH  21  22
ENDBRANCH  20  21
ENDBRANCH  19  20
BRANCH  19  28
HETATM   28  C   UNK A   0     -10.156  11.224  65.959  1.00  0.00    -0.239 C  
HETATM   29  O   UNK A   0      -9.499  12.222  66.216  1.00  0.00    -0.234 OA 
BRANCH  28  30
HETATM   30  O   UNK A   0     -10.493  10.820  64.695  1.00  0.00    -0.344 OA 
BRANCH  30  31
HETATM   31  C   UNK A   0     -10.701  11.883  63.751  1.00  0.00    -0.418 C  
HETATM   32  C   UNK A   0     -12.195  12.016  63.508  1.00  0.00    -0.653 C  
ENDBRANCH  30  31
ENDBRANCH  28  30
ENDBRANCH  19  28
ENDBRANCH  17  19
ENDBRANCH  15  17
ENDBRANCH   8  15
TORSDOF 9
ENDMDL
MODEL      218
REMARK 921   NORMALIZED FREE ENERGY PREDICTED BY IDOCK:   -3.41 KCAL/MOL
REMARK 922        TOTAL FREE ENERGY PREDICTED BY IDOCK:   -7.15 KCAL/MOL
REMARK 923 INTER-LIGAND FREE ENERGY PREDICTED BY IDOCK:   -7.54 KCAL/MOL
REMARK 924 INTRA-LIGAND FREE ENERGY PREDICTED BY IDOCK:    0.39 KCAL/MOL
REMARK 927      BINDING AFFINITY PREDICTED BY RF-SCORE:    0.00 PKD
ROOT
ATOM      1  C   ALA A   1     -11.139  13.320  65.214  1.00  0.00    -0.306 C  
ATOM      2  C   ALA A   1     -11.689  11.999  65.725  1.00  0.00    -0.313 C  
ATOM      3  CA  ALA A   1     -10.491  11.436  66.504  1.00  0.00    -0.249 C  
ATOM      4  N   ALA A   1      -9.727  12.633  66.953  1.00  0.00    -0.228 N  
ATOM      5  C   ALA A   1      -9.676  10.502  65.607  1.00  0.00    -0.234 C  
ATOM      6  C   ALA A   1     -10.376  13.842  66.437  1.00  0.00    -0.289 C  
ATOM      7  O   ALA A   1      -8.555  11.068  65.107  1.00  0.00    -0.133 OA 
ATOM      8  C   ALA A   1      -8.946  12.681  68.114  1.00  0.00    -0.199 C  
ATOM      9  OXT ALA A   1     -10.028   9.365  65.327  1.00  0.00    -0.177 OA 
ATOM     10  C   ALA A   1     -12.146  14.337  64.711  1.00  0.00    -0.457 C  
ATOM     11  O   ALA A   1      -8.553  13.754  68.576  1.00  0.00    -0.171 OA 
ATOM     12  C   ALA A   1      -9.545  15.051  66.009  1.00  0.00    -0.359 C  
ATOM     13  C   ALA A   1     -11.418  15.634  64.342  1.00  0.00    -0.266 C  
ATOM     14  C   ALA A   1     -10.486  16.138  65.453  1.00  0.00    -0.396 C  
ENDROOT
BRANCH   8  15
ATOM     15  CA  ALA A   1      -8.614  11.321  68.826  1.00  0.00    -0.108 C  
ATOM     16  CB  ALA A   1      -7.386  10.680  68.171  1.00  0.00    -0.088 C  
BRANCH  15  17
ATOM     17  N   ALA A   1      -9.792  10.433  68.790  1.00  0.00    -0.176 NA 
ATOM     18  H   ALA A   1      -9.997  10.162  67.829  1.00  0.00     0.000 HD 
BRANCH  17  19
HETATM   19  C   UNK A   0      -9.706   9.229  69.652  1.00  0.00    -0.182 C  
BRANCH  19  20
HETATM   20  C   UNK A   0     -10.888   9.126  70.639  1.00  0.00    -0.321 C  
BRANCH  20  21
HETATM   21  C   UNK A   0     -11.527   7.727  70.685  1.00  0.00    -0.259 C  
BRANCH  21  22
HETATM   22  C   UNK A   0     -11.108   6.980  71.927  1.00  0.00    -0.274 A  
HETATM   23  C   UNK A   0     -11.420   5.624  72.085  1.00  0.00    -0.243 A  
HETATM   24  C   UNK A   0     -10.362   7.626  72.923  1.00  0.00    -0.380 A  
HETATM   25  C   UNK A   0     -11.009   4.932  73.224  1.00  0.00    -0.390 A  
HETATM   26  C   UNK A   0      -9.952   6.932  74.062  1.00  0.00    -0.371 A  
HETATM   27  C   UNK A   0     -10.275   5.585  74.214  1.00  0.00    -0.292 A  
ENDBRANCH  21  22
ENDBRANCH  20  21
ENDBRANCH  19  20
BRANCH  19  28
HETATM   28  C   UNK A   0      -9.688   7.970  68.760  1.00  0.00    -0.156 C  
HETATM   29  O   UNK A   0     -10.643   7.531  68.137  1.00  0.00    -0.198 OA 
BRANCH  28  30
HETATM   30  O   UNK A   0      -8.463   7.364  68.833  1.00  0.00    -0.128 OA 
BRANCH  30  31
HETATM   31  C   UNK A   0      -8.357   6.323  69.819  1.00  0.00    -0.125 C  
HETATM   32  C   UNK A   0      -7.271   6.717  70.807  1.00  0.00    -0.070 C  
ENDBRANCH  30  31
ENDBRANCH  28  30
ENDBRANCH  19  28
ENDBRANCH  17  19
ENDBRANCH  15  17
ENDBRANCH   8  15
TORSDOF 9
ENDMDL
MODEL      219
REMARK 921   NORMALIZED FREE ENERGY PREDICTED BY IDOCK:   -3.36 KCAL/MOL
REMARK 922        TOTAL FREE ENERGY PREDICTED BY IDOCK:   -7.07 KCAL/MOL
REMARK 923 INTER-LIGAND FREE ENERGY PREDICTED BY IDOCK:   -5.62 KCAL/MOL
REMARK 924 INTRA-LIGAND FREE ENERGY PREDICTED BY IDOCK:   -1.45 KCAL/MOL
REMARK 927      BINDING AFFINITY PREDICTED BY RF-SCORE:    0.00 PKD
ROOT
ATOM      1  C   ALA A   1     -11.049   8.100  70.472  1.00  0.00    -0.257 C  
ATOM      2  C   ALA A   1     -11.113   8.194  68.957  1.00  0.00     0.223 C  
ATOM      3  CA  ALA A   1     -10.212   9.407  68.675  1.00  0.00    -0.201 C  
ATOM      4  N   ALA A   1      -9.244   9.437  69.806  1.00  0.00    -0.181 N  
ATOM      5  C   ALA A   1     -11.061  10.676  68.574  1.00  0.00    -0.263 C  
ATOM      6  C   ALA A   1      -9.563   8.357  70.745  1.00  0.00    -0.173 C  
ATOM      7  O   ALA A   1     -11.035  11.439  69.689  1.00  0.00    -0.207 OA 
ATOM      8  C   ALA A   1      -7.942   9.945  69.717  1.00  0.00    -0.174 C  
ATOM      9  OXT ALA A   1     -11.739  10.953  67.595  1.00  0.00    -0.566 OA 
ATOM     10  C   ALA A   1     -11.514   6.801  71.102  1.00  0.00    -0.361 C  
ATOM     11  O   ALA A   1      -7.104   9.711  70.589  1.00  0.00    -0.123 OA 
ATOM     12  C   ALA A   1      -9.373   8.550  72.250  1.00  0.00    -0.363 C  
ATOM     13  C   ALA A   1     -11.277   6.855  72.614  1.00  0.00    -0.297 C  
ATOM     14  C   ALA A   1      -9.848   7.281  72.984  1.00  0.00    -0.254 C  
ENDROOT
BRANCH   8  15
ATOM     15  CA  ALA A   1      -7.577  10.798  68.449  1.00  0.00    -0.102 C  
ATOM     16  CB  ALA A   1      -8.032  12.246  68.652  1.00  0.00    -0.050 C  
BRANCH  15  17
ATOM     17  N   ALA A   1      -8.175  10.189  67.245  1.00  0.00    -0.117 NA 
ATOM     18  H   ALA A   1      -8.531  10.916  66.625  1.00  0.00     0.000 HD 
BRANCH  17  19
HETATM   19  C   UNK A   0      -7.288   9.268  66.492  1.00  0.00    -0.092 C  
BRANCH  19  20
HETATM   20  C   UNK A   0      -7.668   7.787  66.696  1.00  0.00    -0.098 C  
BRANCH  20  21
HETATM   21  C   UNK A   0      -6.958   7.132  67.893  1.00  0.00    -0.080 C  
BRANCH  21  22
HETATM   22  C   UNK A   0      -7.834   6.089  68.541  1.00  0.00    -0.100 A  
HETATM   23  C   UNK A   0      -8.869   5.477  67.822  1.00  0.00    -0.105 A  
HETATM   24  C   UNK A   0      -7.596   5.689  69.864  1.00  0.00    -0.075 A  
HETATM   25  C   UNK A   0      -9.660   4.496  68.419  1.00  0.00    -0.207 A  
HETATM   26  C   UNK A   0      -8.389   4.707  70.459  1.00  0.00    -0.096 A  
HETATM   27  C   UNK A   0      -9.421   4.111  69.738  1.00  0.00    -0.265 A  
ENDBRANCH  21  22
ENDBRANCH  20  21
ENDBRANCH  19  20
BRANCH  19  28
HETATM   28  C   UNK A   0      -7.372   9.604  64.988  1.00  0.00    -0.117 C  
HETATM   29  O   UNK A   0      -6.481  10.110  64.325  1.00  0.00    -0.127 OA 
BRANCH  28  30
HETATM   30  O   UNK A   0      -8.629   9.329  64.519  1.00  0.00    -0.178 OA 
BRANCH  30  31
HETATM   31  C   UNK A   0      -9.413  10.481  64.167  1.00  0.00    -0.293 C  
HETATM   32  C   UNK A   0      -9.498  10.551  62.651  1.00  0.00    -0.326 C  
ENDBRANCH  30  31
ENDBRANCH  28  30
ENDBRANCH  19  28
ENDBRANCH  17  19
ENDBRANCH  15  17
ENDBRANCH   8  15
TORSDOF 9
ENDMDL
MODEL      220
REMARK 921   NORMALIZED FREE ENERGY PREDICTED BY IDOCK:   -3.36 KCAL/MOL
REMARK 922        TOTAL FREE ENERGY PREDICTED BY IDOCK:   -7.07 KCAL/MOL
REMARK 923 INTER-LIGAND FREE ENERGY PREDICTED BY IDOCK:   -5.51 KCAL/MOL
REMARK 924 INTRA-LIGAND FREE ENERGY PREDICTED BY IDOCK:   -1.56 KCAL/MOL
REMARK 927      BINDING AFFINITY PREDICTED BY RF-SCORE:    0.00 PKD
ROOT
ATOM      1  C   ALA A   1     -10.422  11.832  67.055  1.00  0.00    -0.252 C  
ATOM      2  C   ALA A   1     -11.386  10.865  67.719  1.00  0.00    -0.366 C  
ATOM      3  CA  ALA A   1     -10.445   9.737  68.172  1.00  0.00    -0.216 C  
ATOM      4  N   ALA A   1      -9.127  10.398  68.381  1.00  0.00    -0.141 N  
ATOM      5  C   ALA A   1     -10.405   8.633  67.114  1.00  0.00    -0.299 C  
ATOM      6  C   ALA A   1      -9.236  11.817  68.025  1.00  0.00    -0.181 C  
ATOM      7  O   ALA A   1      -9.307   8.672  66.327  1.00  0.00    -0.187 OA 
ATOM      8  C   ALA A   1      -8.162   9.962  69.297  1.00  0.00    -0.138 C  
ATOM      9  OXT ALA A   1     -11.305   7.819  66.960  1.00  0.00     0.331 OA 
ATOM     10  C   ALA A   1     -10.922  13.243  66.809  1.00  0.00    -0.302 C  
ATOM     11  O   ALA A   1      -7.215  10.683  69.618  1.00  0.00    -0.129 OA 
ATOM     12  C   ALA A   1      -8.064  12.548  67.370  1.00  0.00    -0.180 C  
ATOM     13  C   ALA A   1      -9.784  14.094  66.236  1.00  0.00    -0.315 C  
ATOM     14  C   ALA A   1      -8.488  13.997  67.055  1.00  0.00    -0.168 C  
ENDROOT
BRANCH   8  15
ATOM     15  CA  ALA A   1      -8.347   8.536  69.927  1.00  0.00    -0.123 C  
ATOM     16  CB  ALA A   1      -7.710   8.500  71.320  1.00  0.00    -0.126 C  
BRANCH  15  17
ATOM     17  N   ALA A   1      -7.781   7.511  69.028  1.00  0.00    -0.115 NA 
ATOM     18  H   ALA A   1      -6.890   7.832  68.650  1.00  0.00     0.000 HD 
BRANCH  17  19
HETATM   19  C   UNK A   0      -7.626   6.161  69.623  1.00  0.00    -0.093 C  
BRANCH  19  20
HETATM   20  C   UNK A   0      -8.823   5.239  69.309  1.00  0.00    -0.115 C  
BRANCH  20  21
HETATM   21  C   UNK A   0      -9.559   4.743  70.564  1.00  0.00    -0.258 C  
BRANCH  21  22
HETATM   22  C   UNK A   0     -10.385   5.844  71.181  1.00  0.00    -0.276 A  
HETATM   23  C   UNK A   0     -10.172   6.241  72.507  1.00  0.00    -0.203 A  
HETATM   24  C   UNK A   0     -11.352   6.515  70.417  1.00  0.00    -0.443 A  
HETATM   25  C   UNK A   0     -10.922   7.278  73.064  1.00  0.00    -0.388 A  
HETATM   26  C   UNK A   0     -12.101   7.550  70.976  1.00  0.00    -0.305 A  
HETATM   27  C   UNK A   0     -11.888   7.932  72.299  1.00  0.00    -0.404 A  
ENDBRANCH  21  22
ENDBRANCH  20  21
ENDBRANCH  19  20
BRANCH  19  28
HETATM   28  C   UNK A   0      -6.338   5.513  69.073  1.00  0.00    -0.034 C  
HETATM   29  O   UNK A   0      -5.764   5.839  68.046  1.00  0.00    -0.011 OA 
BRANCH  28  30
HETATM   30  O   UNK A   0      -5.973   4.456  69.864  1.00  0.00    -0.017 OA 
BRANCH  30  31
HETATM   31  C   UNK A   0      -5.529   3.289  69.153  1.00  0.00    -0.017 C  
HETATM   32  C   UNK A   0      -6.441   3.089  67.954  1.00  0.00    -0.036 C  
ENDBRANCH  30  31
ENDBRANCH  28  30
ENDBRANCH  19  28
ENDBRANCH  17  19
ENDBRANCH  15  17
ENDBRANCH   8  15
TORSDOF 9
ENDMDL
MODEL      221
REMARK 921   NORMALIZED FREE ENERGY PREDICTED BY IDOCK:   -3.32 KCAL/MOL
REMARK 922        TOTAL FREE ENERGY PREDICTED BY IDOCK:   -7.02 KCAL/MOL
REMARK 923 INTER-LIGAND FREE ENERGY PREDICTED BY IDOCK:   -6.94 KCAL/MOL
REMARK 924 INTRA-LIGAND FREE ENERGY PREDICTED BY IDOCK:   -0.08 KCAL/MOL
REMARK 927      BINDING AFFINITY PREDICTED BY RF-SCORE:    0.00 PKD
ROOT
ATOM      1  C   ALA A   1     -10.120  11.648  64.898  1.00  0.00    -0.303 C  
ATOM      2  C   ALA A   1      -9.811  10.243  64.410  1.00  0.00    -0.374 C  
ATOM      3  CA  ALA A   1      -8.931   9.699  65.545  1.00  0.00    -0.183 C  
ATOM      4  N   ALA A   1      -9.366  10.443  66.760  1.00  0.00    -0.155 N  
ATOM      5  C   ALA A   1      -7.453   9.907  65.207  1.00  0.00    -0.131 C  
ATOM      6  C   ALA A   1     -10.397  11.416  66.387  1.00  0.00    -0.242 C  
ATOM      7  O   ALA A   1      -6.894  10.963  65.838  1.00  0.00    -0.113 OA 
ATOM      8  C   ALA A   1      -9.300   9.934  68.063  1.00  0.00    -0.130 C  
ATOM      9  OXT ALA A   1      -6.845   9.214  64.404  1.00  0.00    -0.085 OA 
ATOM     10  C   ALA A   1     -11.269  12.374  64.224  1.00  0.00    -0.408 C  
ATOM     11  O   ALA A   1      -9.906  10.474  68.990  1.00  0.00    -0.194 OA 
ATOM     12  C   ALA A   1     -10.476  12.774  67.083  1.00  0.00    -0.240 C  
ATOM     13  C   ALA A   1     -11.495  13.722  64.916  1.00  0.00    -0.351 C  
ATOM     14  C   ALA A   1     -11.608  13.603  66.443  1.00  0.00    -0.375 C  
ENDROOT
BRANCH   8  15
ATOM     15  CA  ALA A   1      -8.453   8.633  68.296  1.00  0.00    -0.131 C  
ATOM     16  CB  ALA A   1      -6.975   9.001  68.463  1.00  0.00    -0.064 C  
BRANCH  15  17
ATOM     17  N   ALA A   1      -8.669   7.686  67.184  1.00  0.00    -0.123 NA 
ATOM     18  H   ALA A   1      -7.800   7.546  66.669  1.00  0.00     0.000 HD 
BRANCH  17  19
HETATM   19  C   UNK A   0      -9.248   6.376  67.570  1.00  0.00    -0.112 C  
BRANCH  19  20
HETATM   20  C   UNK A   0     -10.731   6.487  67.984  1.00  0.00    -0.351 C  
BRANCH  20  21
HETATM   21  C   UNK A   0     -11.091   5.626  69.206  1.00  0.00    -0.084 C  
BRANCH  21  22
HETATM   22  C   UNK A   0     -11.040   6.438  70.477  1.00  0.00    -0.388 A  
HETATM   23  C   UNK A   0     -12.188   7.075  70.965  1.00  0.00    -0.419 A  
HETATM   24  C   UNK A   0      -9.847   6.530  71.209  1.00  0.00    -0.197 A  
HETATM   25  C   UNK A   0     -12.140   7.803  72.154  1.00  0.00    -0.346 A  
HETATM   26  C   UNK A   0      -9.802   7.260  72.398  1.00  0.00    -0.188 A  
HETATM   27  C   UNK A   0     -10.948   7.897  72.870  1.00  0.00    -0.452 A  
ENDBRANCH  21  22
ENDBRANCH  20  21
ENDBRANCH  19  20
BRANCH  19  28
HETATM   28  C   UNK A   0      -9.134   5.403  66.377  1.00  0.00    -0.141 C  
HETATM   29  O   UNK A   0      -8.839   5.717  65.234  1.00  0.00    -0.147 OA 
BRANCH  28  30
HETATM   30  O   UNK A   0      -9.495   4.141  66.768  1.00  0.00    -0.166 OA 
BRANCH  30  31
HETATM   31  C   UNK A   0      -8.563   3.485  67.643  1.00  0.00    -0.101 C  
HETATM   32  C   UNK A   0      -9.353   2.636  68.625  1.00  0.00    -0.244 C  
ENDBRANCH  30  31
ENDBRANCH  28  30
ENDBRANCH  19  28
ENDBRANCH  17  19
ENDBRANCH  15  17
ENDBRANCH   8  15
TORSDOF 9
ENDMDL
MODEL      222
REMARK 921   NORMALIZED FREE ENERGY PREDICTED BY IDOCK:   -3.28 KCAL/MOL
REMARK 922        TOTAL FREE ENERGY PREDICTED BY IDOCK:   -6.95 KCAL/MOL
REMARK 923 INTER-LIGAND FREE ENERGY PREDICTED BY IDOCK:   -6.38 KCAL/MOL
REMARK 924 INTRA-LIGAND FREE ENERGY PREDICTED BY IDOCK:   -0.57 KCAL/MOL
REMARK 927      BINDING AFFINITY PREDICTED BY RF-SCORE:    0.00 PKD
ROOT
ATOM      1  C   ALA A   1      -7.911  10.256  68.006  1.00  0.00    -0.100 C  
ATOM      2  C   ALA A   1      -9.026   9.226  68.065  1.00  0.00    -0.128 C  
ATOM      3  CA  ALA A   1      -8.485   8.230  69.102  1.00  0.00    -0.127 C  
ATOM      4  N   ALA A   1      -7.594   9.037  69.982  1.00  0.00    -0.064 N  
ATOM      5  C   ALA A   1      -7.757   7.084  68.397  1.00  0.00    -0.120 C  
ATOM      6  C   ALA A   1      -7.545  10.416  69.486  1.00  0.00    -0.156 C  
ATOM      7  O   ALA A   1      -6.411   7.199  68.416  1.00  0.00    -0.038 OA 
ATOM      8  C   ALA A   1      -7.350   8.754  71.331  1.00  0.00    -0.097 C  
ATOM      9  OXT ALA A   1      -8.338   6.172  67.825  1.00  0.00    -0.116 OA 
ATOM     10  C   ALA A   1      -8.239  11.591  67.366  1.00  0.00    -0.149 C  
ATOM     11  O   ALA A   1      -6.827   9.586  72.074  1.00  0.00    -0.261 OA 
ATOM     12  C   ALA A   1      -6.258  11.234  69.581  1.00  0.00    -0.113 C  
ATOM     13  C   ALA A   1      -7.034  12.528  67.494  1.00  0.00    -0.149 C  
ATOM     14  C   ALA A   1      -6.486  12.611  68.927  1.00  0.00    -0.091 C  
ENDROOT
BRANCH   8  15
ATOM     15  CA  ALA A   1      -7.798   7.350  71.874  1.00  0.00    -0.090 C  
ATOM     16  CB  ALA A   1      -6.763   6.290  71.482  1.00  0.00    -0.056 C  
BRANCH  15  17
ATOM     17  N   ALA A   1      -9.147   7.023  71.373  1.00  0.00    -0.147 NA 
ATOM     18  H   ALA A   1      -9.219   6.024  71.185  1.00  0.00     0.000 HD 
BRANCH  17  19
HETATM   19  C   UNK A   0     -10.269   7.459  72.241  1.00  0.00    -0.200 C  
BRANCH  19  20
HETATM   20  C   UNK A   0     -11.612   7.513  71.483  1.00  0.00    -0.301 C  
BRANCH  20  21
HETATM   21  C   UNK A   0     -12.650   8.436  72.143  1.00  0.00    -0.412 C  
BRANCH  21  22
HETATM   22  C   UNK A   0     -12.557   9.839  71.595  1.00  0.00    -0.509 A  
HETATM   23  C   UNK A   0     -13.340  10.869  72.130  1.00  0.00    -0.294 A  
HETATM   24  C   UNK A   0     -11.651  10.137  70.567  1.00  0.00    -0.411 A  
HETATM   25  C   UNK A   0     -13.231  12.169  71.636  1.00  0.00    -0.358 A  
HETATM   26  C   UNK A   0     -11.544  11.438  70.073  1.00  0.00    -0.382 A  
HETATM   27  C   UNK A   0     -12.334  12.454  70.607  1.00  0.00    -0.367 A  
ENDBRANCH  21  22
ENDBRANCH  20  21
ENDBRANCH  19  20
BRANCH  19  28
HETATM   28  C   UNK A   0     -10.402   6.478  73.424  1.00  0.00    -0.260 C  
HETATM   29  O   UNK A   0      -9.988   6.674  74.556  1.00  0.00    -0.327 OA 
BRANCH  28  30
HETATM   30  O   UNK A   0     -10.979   5.311  73.000  1.00  0.00    -0.251 OA 
BRANCH  30  31
HETATM   31  C   UNK A   0     -10.187   4.129  73.207  1.00  0.00    -0.154 C  
HETATM   32  C   UNK A   0     -10.136   3.358  71.899  1.00  0.00    -0.156 C  
ENDBRANCH  30  31
ENDBRANCH  28  30
ENDBRANCH  19  28
ENDBRANCH  17  19
ENDBRANCH  15  17
ENDBRANCH   8  15
TORSDOF 9
ENDMDL
MODEL      223
REMARK 921   NORMALIZED FREE ENERGY PREDICTED BY IDOCK:   -3.26 KCAL/MOL
REMARK 922        TOTAL FREE ENERGY PREDICTED BY IDOCK:   -6.92 KCAL/MOL
REMARK 923 INTER-LIGAND FREE ENERGY PREDICTED BY IDOCK:   -5.32 KCAL/MOL
REMARK 924 INTRA-LIGAND FREE ENERGY PREDICTED BY IDOCK:   -1.60 KCAL/MOL
REMARK 927      BINDING AFFINITY PREDICTED BY RF-SCORE:    0.00 PKD
ROOT
ATOM      1  C   ALA A   1     -11.418  11.451  70.204  1.00  0.00    -0.302 C  
ATOM      2  C   ALA A   1     -10.719  11.199  68.878  1.00  0.00    -0.246 C  
ATOM      3  CA  ALA A   1     -10.169   9.777  69.073  1.00  0.00    -0.203 C  
ATOM      4  N   ALA A   1     -11.100   9.135  70.042  1.00  0.00    -0.221 N  
ATOM      5  C   ALA A   1      -8.725   9.840  69.575  1.00  0.00    -0.185 C  
ATOM      6  C   ALA A   1     -12.114  10.110  70.458  1.00  0.00    -0.291 C  
ATOM      7  O   ALA A   1      -8.600   9.625  70.903  1.00  0.00    -0.233 OA 
ATOM      8  C   ALA A   1     -11.368   7.761  70.088  1.00  0.00    -0.110 C  
ATOM      9  OXT ALA A   1      -7.776  10.107  68.853  1.00  0.00    -0.081 OA 
ATOM     10  C   ALA A   1     -12.398  12.606  70.256  1.00  0.00    -0.269 C  
ATOM     11  O   ALA A   1     -12.328   7.318  70.720  1.00  0.00    -0.278 OA 
ATOM     12  C   ALA A   1     -12.657  10.109  71.886  1.00  0.00    -0.437 C  
ATOM     13  C   ALA A   1     -13.076  12.637  71.630  1.00  0.00    -0.421 C  
ATOM     14  C   ALA A   1     -13.652  11.276  72.047  1.00  0.00    -0.134 C  
ENDROOT
BRANCH   8  15
ATOM     15  CA  ALA A   1     -10.421   6.807  69.277  1.00  0.00    -0.215 C  
ATOM     16  CB  ALA A   1     -11.096   6.403  67.963  1.00  0.00    -0.365 C  
BRANCH  15  17
ATOM     17  N   ALA A   1     -10.060   5.636  70.101  1.00  0.00    -0.208 NA 
ATOM     18  H   ALA A   1     -10.543   4.806  69.759  1.00  0.00     0.000 HD 
BRANCH  17  19
HETATM   19  C   UNK A   0      -8.606   5.367  70.220  1.00  0.00    -0.124 C  
BRANCH  19  20
HETATM   20  C   UNK A   0      -7.766   6.245  69.269  1.00  0.00    -0.100 C  
BRANCH  20  21
HETATM   21  C   UNK A   0      -7.358   5.527  67.972  1.00  0.00    -0.073 C  
BRANCH  21  22
HETATM   22  C   UNK A   0      -7.098   6.515  66.862  1.00  0.00    -0.073 A  
HETATM   23  C   UNK A   0      -8.059   6.745  65.870  1.00  0.00    -0.123 A  
HETATM   24  C   UNK A   0      -5.903   7.248  66.835  1.00  0.00    -0.030 A  
HETATM   25  C   UNK A   0      -7.823   7.678  64.860  1.00  0.00    -0.128 A  
HETATM   26  C   UNK A   0      -5.669   8.181  65.823  1.00  0.00    -0.037 A  
HETATM   27  C   UNK A   0      -6.628   8.396  64.836  1.00  0.00    -0.067 A  
ENDBRANCH  21  22
ENDBRANCH  20  21
ENDBRANCH  19  20
BRANCH  19  28
HETATM   28  C   UNK A   0      -8.161   5.636  71.673  1.00  0.00    -0.119 C  
HETATM   29  O   UNK A   0      -7.877   6.730  72.136  1.00  0.00    -0.095 OA 
BRANCH  28  30
HETATM   30  O   UNK A   0      -8.048   4.452  72.352  1.00  0.00    -0.096 OA 
BRANCH  30  31
HETATM   31  C   UNK A   0      -6.742   4.178  72.885  1.00  0.00    -0.046 C  
HETATM   32  C   UNK A   0      -6.106   3.085  72.042  1.00  0.00    -0.013 C  
ENDBRANCH  30  31
ENDBRANCH  28  30
ENDBRANCH  19  28
ENDBRANCH  17  19
ENDBRANCH  15  17
ENDBRANCH   8  15
TORSDOF 9
ENDMDL
MODEL      224
REMARK 921   NORMALIZED FREE ENERGY PREDICTED BY IDOCK:   -3.25 KCAL/MOL
REMARK 922        TOTAL FREE ENERGY PREDICTED BY IDOCK:   -6.90 KCAL/MOL
REMARK 923 INTER-LIGAND FREE ENERGY PREDICTED BY IDOCK:   -5.47 KCAL/MOL
REMARK 924 INTRA-LIGAND FREE ENERGY PREDICTED BY IDOCK:   -1.43 KCAL/MOL
REMARK 927      BINDING AFFINITY PREDICTED BY RF-SCORE:    0.00 PKD
ROOT
ATOM      1  C   ALA A   1     -12.015   8.915  71.591  1.00  0.00    -0.415 C  
ATOM      2  C   ALA A   1     -11.523   8.186  72.830  1.00  0.00    -0.397 C  
ATOM      3  CA  ALA A   1     -10.360   7.354  72.268  1.00  0.00    -0.214 C  
ATOM      4  N   ALA A   1      -9.864   8.128  71.096  1.00  0.00    -0.166 N  
ATOM      5  C   ALA A   1     -10.849   5.951  71.902  1.00  0.00    -0.254 C  
ATOM      6  C   ALA A   1     -10.701   9.319  70.915  1.00  0.00    -0.301 C  
ATOM      7  O   ALA A   1     -11.066   5.779  70.580  1.00  0.00    -0.289 OA 
ATOM      8  C   ALA A   1      -8.541   8.106  70.638  1.00  0.00    -0.130 C  
ATOM      9  OXT ALA A   1     -11.070   5.081  72.732  1.00  0.00    -0.247 OA 
ATOM     10  C   ALA A   1     -12.919  10.112  71.810  1.00  0.00    -0.567 C  
ATOM     11  O   ALA A   1      -8.127   8.952  69.843  1.00  0.00    -0.099 OA 
ATOM     12  C   ALA A   1     -11.017   9.843  69.514  1.00  0.00    -0.274 C  
ATOM     13  C   ALA A   1     -13.223  10.775  70.462  1.00  0.00     0.010 C  
ATOM     14  C   ALA A   1     -11.961  11.056  69.633  1.00  0.00    -0.424 C  
ENDROOT
BRANCH   8  15
ATOM     15  CA  ALA A   1      -7.594   6.987  71.199  1.00  0.00    -0.086 C  
ATOM     16  CB  ALA A   1      -6.398   7.630  71.909  1.00  0.00    -0.039 C  
BRANCH  15  17
ATOM     17  N   ALA A   1      -7.175   6.088  70.106  1.00  0.00    -0.074 NA 
ATOM     18  H   ALA A   1      -6.372   5.532  70.398  1.00  0.00     0.000 HD 
BRANCH  17  19
HETATM   19  C   UNK A   0      -8.238   5.203  69.569  1.00  0.00    -0.093 C  
BRANCH  19  20
HETATM   20  C   UNK A   0      -8.333   5.264  68.031  1.00  0.00    -0.098 C  
BRANCH  20  21
HETATM   21  C   UNK A   0      -9.601   4.599  67.469  1.00  0.00    -0.198 C  
BRANCH  21  22
HETATM   22  C   UNK A   0      -9.306   3.866  66.183  1.00  0.00    -0.179 A  
HETATM   23  C   UNK A   0      -8.488   2.729  66.180  1.00  0.00    -0.106 A  
HETATM   24  C   UNK A   0      -9.885   4.291  64.979  1.00  0.00    -0.198 A  
HETATM   25  C   UNK A   0      -8.240   2.041  64.992  1.00  0.00    -0.081 A  
HETATM   26  C   UNK A   0      -9.634   3.602  63.791  1.00  0.00    -0.150 A  
HETATM   27  C   UNK A   0      -8.812   2.477  63.797  1.00  0.00    -0.090 A  
ENDBRANCH  21  22
ENDBRANCH  20  21
ENDBRANCH  19  20
BRANCH  19  28
HETATM   28  C   UNK A   0      -7.948   3.749  69.996  1.00  0.00    -0.050 C  
HETATM   29  O   UNK A   0      -6.955   3.107  69.691  1.00  0.00    -0.040 OA 
BRANCH  28  30
HETATM   30  O   UNK A   0      -9.009   3.249  70.702  1.00  0.00    -0.077 OA 
BRANCH  30  31
HETATM   31  C   UNK A   0      -8.660   2.409  71.814  1.00  0.00    -0.064 C  
HETATM   32  C   UNK A   0      -8.052   3.286  72.897  1.00  0.00    -0.079 C  
ENDBRANCH  30  31
ENDBRANCH  28  30
ENDBRANCH  19  28
ENDBRANCH  17  19
ENDBRANCH  15  17
ENDBRANCH   8  15
TORSDOF 9
ENDMDL
MODEL      225
REMARK 921   NORMALIZED FREE ENERGY PREDICTED BY IDOCK:   -3.22 KCAL/MOL
REMARK 922        TOTAL FREE ENERGY PREDICTED BY IDOCK:   -6.86 KCAL/MOL
REMARK 923 INTER-LIGAND FREE ENERGY PREDICTED BY IDOCK:   -6.17 KCAL/MOL
REMARK 924 INTRA-LIGAND FREE ENERGY PREDICTED BY IDOCK:   -0.68 KCAL/MOL
REMARK 927      BINDING AFFINITY PREDICTED BY RF-SCORE:    0.00 PKD
ROOT
ATOM      1  C   ALA A   1     -10.652  16.643  68.394  1.00  0.00    -0.343 C  
ATOM      2  C   ALA A   1     -10.458  16.027  69.770  1.00  0.00    -0.300 C  
ATOM      3  CA  ALA A   1     -10.303  14.536  69.432  1.00  0.00    -0.080 C  
ATOM      4  N   ALA A   1      -9.741  14.511  68.053  1.00  0.00    -0.213 N  
ATOM      5  C   ALA A   1     -11.656  13.831  69.545  1.00  0.00    -0.297 C  
ATOM      6  C   ALA A   1      -9.616  15.885  67.557  1.00  0.00    -0.221 C  
ATOM      7  O   ALA A   1     -12.258  13.613  68.355  1.00  0.00    -0.332 OA 
ATOM      8  C   ALA A   1      -8.920  13.493  67.554  1.00  0.00    -0.210 C  
ATOM      9  OXT ALA A   1     -12.170  13.535  70.614  1.00  0.00    -0.351 OA 
ATOM     10  C   ALA A   1     -10.470  18.144  68.280  1.00  0.00    -0.333 C  
ATOM     11  O   ALA A   1      -8.275  13.644  66.514  1.00  0.00     0.243 OA 
ATOM     12  C   ALA A   1      -9.856  16.207  66.082  1.00  0.00    -0.358 C  
ATOM     13  C   ALA A   1     -10.598  18.562  66.812  1.00  0.00    -0.395 C  
ATOM     14  C   ALA A   1      -9.719  17.728  65.869  1.00  0.00    -0.035 C  
ENDROOT
BRANCH   8  15
ATOM     15  CA  ALA A   1      -8.823  12.162  68.382  1.00  0.00    -0.143 C  
ATOM     16  CB  ALA A   1      -7.458  12.080  69.070  1.00  0.00     0.017 C  
BRANCH  15  17
ATOM     17  N   ALA A   1      -9.075  11.003  67.503  1.00  0.00    -0.137 NA 
ATOM     18  H   ALA A   1      -8.194  10.647  67.131  1.00  0.00     0.000 HD 
BRANCH  17  19
HETATM   19  C   UNK A   0      -9.852   9.898  68.116  1.00  0.00    -0.147 C  
BRANCH  19  20
HETATM   20  C   UNK A   0     -10.413   8.918  67.064  1.00  0.00    -0.326 C  
BRANCH  20  21
HETATM   21  C   UNK A   0      -9.387   8.522  65.989  1.00  0.00    -0.266 C  
BRANCH  21  22
HETATM   22  C   UNK A   0      -9.158   7.030  65.980  1.00  0.00    -0.105 A  
HETATM   23  C   UNK A   0     -10.124   6.155  66.492  1.00  0.00    -0.179 A  
HETATM   24  C   UNK A   0      -7.988   6.498  65.419  1.00  0.00    -0.120 A  
HETATM   25  C   UNK A   0      -9.918   4.776  66.458  1.00  0.00    -0.262 A  
HETATM   26  C   UNK A   0      -7.783   5.118  65.387  1.00  0.00    -0.087 A  
HETATM   27  C   UNK A   0      -8.747   4.257  65.907  1.00  0.00    -0.115 A  
ENDBRANCH  21  22
ENDBRANCH  20  21
ENDBRANCH  19  20
BRANCH  19  28
HETATM   28  C   UNK A   0      -8.940   9.120  69.088  1.00  0.00    -0.144 C  
HETATM   29  O   UNK A   0      -7.902   8.552  68.784  1.00  0.00    -0.106 OA 
BRANCH  28  30
HETATM   30  O   UNK A   0      -9.509   9.085  70.334  1.00  0.00    -0.179 OA 
BRANCH  30  31
HETATM   31  C   UNK A   0     -10.884   8.670  70.364  1.00  0.00    -0.227 C  
HETATM   32  C   UNK A   0     -11.415   8.893  71.770  1.00  0.00    -0.423 C  
ENDBRANCH  30  31
ENDBRANCH  28  30
ENDBRANCH  19  28
ENDBRANCH  17  19
ENDBRANCH  15  17
ENDBRANCH   8  15
TORSDOF 9
ENDMDL
MODEL      226
REMARK 921   NORMALIZED FREE ENERGY PREDICTED BY IDOCK:   -3.14 KCAL/MOL
REMARK 922        TOTAL FREE ENERGY PREDICTED BY IDOCK:   -6.74 KCAL/MOL
REMARK 923 INTER-LIGAND FREE ENERGY PREDICTED BY IDOCK:   -5.14 KCAL/MOL
REMARK 924 INTRA-LIGAND FREE ENERGY PREDICTED BY IDOCK:   -1.59 KCAL/MOL
REMARK 927      BINDING AFFINITY PREDICTED BY RF-SCORE:    0.00 PKD
ROOT
ATOM      1  C   ALA A   1     -12.006   8.912  71.584  1.00  0.00    -0.415 C  
ATOM      2  C   ALA A   1     -11.576   8.052  72.760  1.00  0.00    -0.390 C  
ATOM      3  CA  ALA A   1     -10.428   7.231  72.151  1.00  0.00    -0.203 C  
ATOM      4  N   ALA A   1      -9.872   8.092  71.071  1.00  0.00    -0.173 N  
ATOM      5  C   ALA A   1     -10.958   5.889  71.641  1.00  0.00    -0.268 C  
ATOM      6  C   ALA A   1     -10.659   9.327  70.982  1.00  0.00    -0.316 C  
ATOM      7  O   ALA A   1     -11.143   5.851  70.303  1.00  0.00    -0.327 OA 
ATOM      8  C   ALA A   1      -8.538   8.062  70.646  1.00  0.00    -0.130 C  
ATOM      9  OXT ALA A   1     -11.235   4.954  72.378  1.00  0.00    -0.115 OA 
ATOM     10  C   ALA A   1     -12.872  10.118  71.894  1.00  0.00    -0.526 C  
ATOM     11  O   ALA A   1      -8.071   8.962  69.945  1.00  0.00    -0.099 OA 
ATOM     12  C   ALA A   1     -10.916   9.992  69.631  1.00  0.00    -0.301 C  
ATOM     13  C   ALA A   1     -13.112  10.916  70.608  1.00  0.00    -0.145 C  
ATOM     14  C   ALA A   1     -11.818  11.225  69.841  1.00  0.00    -0.436 C  
ENDROOT
BRANCH   8  15
ATOM     15  CA  ALA A   1      -7.648   6.859  71.121  1.00  0.00    -0.087 C  
ATOM     16  CB  ALA A   1      -6.525   7.373  72.027  1.00  0.00    -0.043 C  
BRANCH  15  17
ATOM     17  N   ALA A   1      -7.128   6.124  69.951  1.00  0.00    -0.070 NA 
ATOM     18  H   ALA A   1      -6.368   5.507  70.235  1.00  0.00     0.000 HD 
BRANCH  17  19
HETATM   19  C   UNK A   0      -8.141   5.364  69.178  1.00  0.00    -0.094 C  
BRANCH  19  20
HETATM   20  C   UNK A   0      -8.098   5.690  67.671  1.00  0.00    -0.101 C  
BRANCH  20  21
HETATM   21  C   UNK A   0      -6.709   6.134  67.180  1.00  0.00    -0.057 C  
BRANCH  21  22
HETATM   22  C   UNK A   0      -6.820   7.252  66.173  1.00  0.00    -0.057 A  
HETATM   23  C   UNK A   0      -8.072   7.677  65.711  1.00  0.00    -0.126 A  
HETATM   24  C   UNK A   0      -5.669   7.910  65.718  1.00  0.00    -0.037 A  
HETATM   25  C   UNK A   0      -8.170   8.728  64.800  1.00  0.00    -0.163 A  
HETATM   26  C   UNK A   0      -5.769   8.961  64.805  1.00  0.00    -0.062 A  
HETATM   27  C   UNK A   0      -7.018   9.370  64.345  1.00  0.00    -0.101 A  
ENDBRANCH  21  22
ENDBRANCH  20  21
ENDBRANCH  19  20
BRANCH  19  28
HETATM   28  C   UNK A   0      -7.890   3.853  69.370  1.00  0.00    -0.052 C  
HETATM   29  O   UNK A   0      -6.877   3.256  69.041  1.00  0.00    -0.043 OA 
BRANCH  28  30
HETATM   30  O   UNK A   0      -9.009   3.257  69.888  1.00  0.00    -0.083 OA 
BRANCH  30  31
HETATM   31  C   UNK A   0      -8.758   2.244  70.876  1.00  0.00    -0.063 C  
HETATM   32  C   UNK A   0      -8.257   2.927  72.138  1.00  0.00    -0.059 C  
ENDBRANCH  30  31
ENDBRANCH  28  30
ENDBRANCH  19  28
ENDBRANCH  17  19
ENDBRANCH  15  17
ENDBRANCH   8  15
TORSDOF 9
ENDMDL
MODEL      227
REMARK 921   NORMALIZED FREE ENERGY PREDICTED BY IDOCK:   -3.13 KCAL/MOL
REMARK 922        TOTAL FREE ENERGY PREDICTED BY IDOCK:   -6.73 KCAL/MOL
REMARK 923 INTER-LIGAND FREE ENERGY PREDICTED BY IDOCK:   -5.97 KCAL/MOL
REMARK 924 INTRA-LIGAND FREE ENERGY PREDICTED BY IDOCK:   -0.75 KCAL/MOL
REMARK 927      BINDING AFFINITY PREDICTED BY RF-SCORE:    0.00 PKD
ROOT
ATOM      1  C   ALA A   1      -9.163   7.695  70.071  1.00  0.00    -0.151 C  
ATOM      2  C   ALA A   1      -8.503   8.743  70.951  1.00  0.00    -0.209 C  
ATOM      3  CA  ALA A   1      -8.970  10.051  70.294  1.00  0.00     0.105 C  
ATOM      4  N   ALA A   1     -10.274   9.716  69.656  1.00  0.00    -0.206 N  
ATOM      5  C   ALA A   1      -7.918  10.539  69.296  1.00  0.00    -0.154 C  
ATOM      6  C   ALA A   1     -10.558   8.291  69.856  1.00  0.00    -0.232 C  
ATOM      7  O   ALA A   1      -8.222  10.267  68.008  1.00  0.00    -0.111 OA 
ATOM      8  C   ALA A   1     -11.314  10.632  69.458  1.00  0.00    -0.277 C  
ATOM      9  OXT ALA A   1      -6.875  11.081  69.633  1.00  0.00    -0.120 OA 
ATOM     10  C   ALA A   1      -9.240   6.284  70.620  1.00  0.00    -0.164 C  
ATOM     11  O   ALA A   1     -12.452  10.255  69.173  1.00  0.00     0.016 OA 
ATOM     12  C   ALA A   1     -11.271   7.479  68.775  1.00  0.00     0.289 C  
ATOM     13  C   ALA A   1     -10.027   5.400  69.647  1.00  0.00    -0.297 C  
ATOM     14  C   ALA A   1     -11.374   6.011  69.234  1.00  0.00    -0.245 C  
ENDROOT
BRANCH   8  15
ATOM     15  CA  ALA A   1     -10.988  12.157  69.645  1.00  0.00     0.122 C  
ATOM     16  CB  ALA A   1     -12.143  12.847  70.377  1.00  0.00    -0.385 C  
BRANCH  15  17
ATOM     17  N   ALA A   1     -10.710  12.776  68.334  1.00  0.00    -0.243 NA 
ATOM     18  H   ALA A   1     -11.577  12.892  67.811  1.00  0.00     0.000 HD 
BRANCH  17  19
HETATM   19  C   UNK A   0      -9.969  14.061  68.383  1.00  0.00    -0.236 C  
BRANCH  19  20
HETATM   20  C   UNK A   0      -9.055  14.260  67.156  1.00  0.00    -0.237 C  
BRANCH  20  21
HETATM   21  C   UNK A   0      -8.763  12.958  66.393  1.00  0.00     0.141 C  
BRANCH  21  22
HETATM   22  C   UNK A   0      -9.839  12.671  65.374  1.00  0.00    -0.157 A  
HETATM   23  C   UNK A   0     -10.769  13.657  65.021  1.00  0.00    -0.374 A  
HETATM   24  C   UNK A   0      -9.894  11.424  64.737  1.00  0.00    -0.302 A  
HETATM   25  C   UNK A   0     -11.746  13.395  64.060  1.00  0.00    -0.465 A  
HETATM   26  C   UNK A   0     -10.873  11.163  63.777  1.00  0.00    -0.337 A  
HETATM   27  C   UNK A   0     -11.799  12.148  63.439  1.00  0.00    -0.553 A  
ENDBRANCH  21  22
ENDBRANCH  20  21
ENDBRANCH  19  20
BRANCH  19  28
HETATM   28  C   UNK A   0     -10.981  15.224  68.448  1.00  0.00    -0.271 C  
HETATM   29  O   UNK A   0     -12.141  15.174  68.071  1.00  0.00    -0.192 OA 
BRANCH  28  30
HETATM   30  O   UNK A   0     -10.363  16.354  68.913  1.00  0.00    -0.236 OA 
BRANCH  30  31
HETATM   31  C   UNK A   0     -10.848  17.587  68.356  1.00  0.00    -0.188 C  
HETATM   32  C   UNK A   0      -9.766  18.158  67.455  1.00  0.00    -0.304 C  
ENDBRANCH  30  31
ENDBRANCH  28  30
ENDBRANCH  19  28
ENDBRANCH  17  19
ENDBRANCH  15  17
ENDBRANCH   8  15
TORSDOF 9
ENDMDL
MODEL      228
REMARK 921   NORMALIZED FREE ENERGY PREDICTED BY IDOCK:   -3.10 KCAL/MOL
REMARK 922        TOTAL FREE ENERGY PREDICTED BY IDOCK:   -6.68 KCAL/MOL
REMARK 923 INTER-LIGAND FREE ENERGY PREDICTED BY IDOCK:   -7.66 KCAL/MOL
REMARK 924 INTRA-LIGAND FREE ENERGY PREDICTED BY IDOCK:    0.98 KCAL/MOL
REMARK 927      BINDING AFFINITY PREDICTED BY RF-SCORE:    0.00 PKD
ROOT
ATOM      1  C   ALA A   1     -10.474  16.012  67.300  1.00  0.00    -0.308 C  
ATOM      2  C   ALA A   1      -9.673  15.517  68.492  1.00  0.00    -0.203 C  
ATOM      3  CA  ALA A   1     -10.563  14.384  69.026  1.00  0.00    -0.237 C  
ATOM      4  N   ALA A   1     -11.311  13.890  67.837  1.00  0.00    -0.278 N  
ATOM      5  C   ALA A   1     -11.475  14.914  70.135  1.00  0.00    -0.279 C  
ATOM      6  C   ALA A   1     -10.950  14.699  66.668  1.00  0.00    -0.323 C  
ATOM      7  O   ALA A   1     -12.740  15.158  69.728  1.00  0.00    -0.165 OA 
ATOM      8  C   ALA A   1     -11.769  12.576  67.683  1.00  0.00    -0.361 C  
ATOM      9  OXT ALA A   1     -11.085  15.143  71.271  1.00  0.00    -0.316 OA 
ATOM     10  C   ALA A   1      -9.746  16.882  66.294  1.00  0.00    -0.301 C  
ATOM     11  O   ALA A   1     -12.143  12.154  66.587  1.00  0.00    -0.622 OA 
ATOM     12  C   ALA A   1     -11.989  15.026  65.596  1.00  0.00     0.031 C  
ATOM     13  C   ALA A   1     -10.679  17.192  65.119  1.00  0.00    -0.009 C  
ATOM     14  C   ALA A   1     -11.344  15.938  64.532  1.00  0.00    -0.316 C  
ENDROOT
BRANCH   8  15
ATOM     15  CA  ALA A   1     -11.758  11.647  68.949  1.00  0.00    -0.334 C  
ATOM     16  CB  ALA A   1     -12.442  12.360  70.119  1.00  0.00    -0.091 C  
BRANCH  15  17
ATOM     17  N   ALA A   1     -10.373  11.250  69.270  1.00  0.00    -0.407 NA 
ATOM     18  H   ALA A   1     -10.096  11.644  70.169  1.00  0.00     0.000 HD 
BRANCH  17  19
HETATM   19  C   UNK A   0     -10.111   9.790  69.251  1.00  0.00    -0.198 C  
BRANCH  19  20
HETATM   20  C   UNK A   0      -9.562   9.309  67.892  1.00  0.00    -0.163 C  
BRANCH  20  21
HETATM   21  C   UNK A   0      -8.435  10.197  67.337  1.00  0.00    -0.122 C  
BRANCH  21  22
HETATM   22  C   UNK A   0      -8.502  10.282  65.832  1.00  0.00    -0.154 A  
HETATM   23  C   UNK A   0      -7.342  10.157  65.057  1.00  0.00    -0.139 A  
HETATM   24  C   UNK A   0      -9.736  10.446  65.188  1.00  0.00    -0.353 A  
HETATM   25  C   UNK A   0      -7.413  10.211  63.665  1.00  0.00    -0.129 A  
HETATM   26  C   UNK A   0      -9.805  10.501  63.795  1.00  0.00    -0.363 A  
HETATM   27  C   UNK A   0      -8.644  10.384  63.033  1.00  0.00    -0.189 A  
ENDBRANCH  21  22
ENDBRANCH  20  21
ENDBRANCH  19  20
BRANCH  19  28
HETATM   28  C   UNK A   0      -9.087   9.448  70.354  1.00  0.00    -0.256 C  
HETATM   29  O   UNK A   0      -8.014  10.007  70.522  1.00  0.00    -0.224 OA 
BRANCH  28  30
HETATM   30  O   UNK A   0      -9.518   8.363  71.070  1.00  0.00    -0.154 OA 
BRANCH  30  31
HETATM   31  C   UNK A   0     -10.013   8.659  72.386  1.00  0.00    -0.249 C  
HETATM   32  C   UNK A   0     -11.502   8.356  72.411  1.00  0.00    -0.451 C  
ENDBRANCH  30  31
ENDBRANCH  28  30
ENDBRANCH  19  28
ENDBRANCH  17  19
ENDBRANCH  15  17
ENDBRANCH   8  15
TORSDOF 9
ENDMDL
MODEL      229
REMARK 921   NORMALIZED FREE ENERGY PREDICTED BY IDOCK:   -3.07 KCAL/MOL
REMARK 922        TOTAL FREE ENERGY PREDICTED BY IDOCK:   -6.63 KCAL/MOL
REMARK 923 INTER-LIGAND FREE ENERGY PREDICTED BY IDOCK:   -5.58 KCAL/MOL
REMARK 924 INTRA-LIGAND FREE ENERGY PREDICTED BY IDOCK:   -1.05 KCAL/MOL
REMARK 927      BINDING AFFINITY PREDICTED BY RF-SCORE:    0.00 PKD
ROOT
ATOM      1  C   ALA A   1     -12.657  12.450  70.565  1.00  0.00    -0.169 C  
ATOM      2  C   ALA A   1     -12.794  11.934  71.987  1.00  0.00    -0.248 C  
ATOM      3  CA  ALA A   1     -12.392  10.460  71.831  1.00  0.00    -0.088 C  
ATOM      4  N   ALA A   1     -11.466  10.435  70.666  1.00  0.00    -0.336 N  
ATOM      5  C   ALA A   1     -13.639   9.596  71.629  1.00  0.00    -0.324 C  
ATOM      6  C   ALA A   1     -11.353  11.787  70.109  1.00  0.00     0.051 C  
ATOM      7  O   ALA A   1     -13.854   9.244  70.343  1.00  0.00     0.442 OA 
ATOM      8  C   ALA A   1     -10.433   9.504  70.498  1.00  0.00    -0.296 C  
ATOM      9  OXT ALA A   1     -14.399   9.293  72.538  1.00  0.00    -0.469 OA 
ATOM     10  C   ALA A   1     -12.612  13.954  70.379  1.00  0.00    -0.350 C  
ATOM     11  O   ALA A   1      -9.542   9.682  69.665  1.00  0.00    -0.181 OA 
ATOM     12  C   ALA A   1     -11.202  12.000  68.603  1.00  0.00    -0.309 C  
ATOM     13  C   ALA A   1     -12.365  14.277  68.902  1.00  0.00    -0.116 C  
ATOM     14  C   ALA A   1     -11.173  13.513  68.309  1.00  0.00    -0.305 C  
ENDROOT
BRANCH   8  15
ATOM     15  CA  ALA A   1     -10.432   8.240  71.429  1.00  0.00    -0.219 C  
ATOM     16  CB  ALA A   1      -9.786   8.589  72.774  1.00  0.00    -0.213 C  
BRANCH  15  17
ATOM     17  N   ALA A   1      -9.747   7.119  70.756  1.00  0.00    -0.172 NA 
ATOM     18  H   ALA A   1      -8.766   7.092  71.033  1.00  0.00     0.000 HD 
BRANCH  17  19
HETATM   19  C   UNK A   0     -10.369   5.786  70.951  1.00  0.00    -0.237 C  
BRANCH  19  20
HETATM   20  C   UNK A   0     -10.860   5.167  69.626  1.00  0.00     0.218 C  
BRANCH  20  21
HETATM   21  C   UNK A   0     -11.170   6.211  68.540  1.00  0.00    -0.241 C  
BRANCH  21  22
HETATM   22  C   UNK A   0     -10.309   5.998  67.319  1.00  0.00    -0.275 A  
HETATM   23  C   UNK A   0      -9.260   6.877  67.022  1.00  0.00    -0.160 A  
HETATM   24  C   UNK A   0     -10.524   4.890  66.488  1.00  0.00    -0.299 A  
HETATM   25  C   UNK A   0      -8.451   6.660  65.906  1.00  0.00    -0.145 A  
HETATM   26  C   UNK A   0      -9.715   4.676  65.371  1.00  0.00    -0.174 A  
HETATM   27  C   UNK A   0      -8.679   5.560  65.080  1.00  0.00    -0.096 A  
ENDBRANCH  21  22
ENDBRANCH  20  21
ENDBRANCH  19  20
BRANCH  19  28
HETATM   28  C   UNK A   0      -9.336   4.837  71.594  1.00  0.00    -0.145 C  
HETATM   29  O   UNK A   0      -8.868   3.839  71.068  1.00  0.00    -0.075 OA 
BRANCH  28  30
HETATM   30  O   UNK A   0      -9.080   5.230  72.881  1.00  0.00    -0.123 OA 
BRANCH  30  31
HETATM   31  C   UNK A   0     -10.204   5.162  73.773  1.00  0.00    -0.215 C  
HETATM   32  C   UNK A   0     -10.763   3.750  73.724  1.00  0.00    -0.308 C  
ENDBRANCH  30  31
ENDBRANCH  28  30
ENDBRANCH  19  28
ENDBRANCH  17  19
ENDBRANCH  15  17
ENDBRANCH   8  15
TORSDOF 9
ENDMDL
MODEL      230
REMARK 921   NORMALIZED FREE ENERGY PREDICTED BY IDOCK:   -3.06 KCAL/MOL
REMARK 922        TOTAL FREE ENERGY PREDICTED BY IDOCK:   -6.61 KCAL/MOL
REMARK 923 INTER-LIGAND FREE ENERGY PREDICTED BY IDOCK:   -7.20 KCAL/MOL
REMARK 924 INTRA-LIGAND FREE ENERGY PREDICTED BY IDOCK:    0.59 KCAL/MOL
REMARK 927      BINDING AFFINITY PREDICTED BY RF-SCORE:    0.00 PKD
ROOT
ATOM      1  C   ALA A   1      -9.764   4.760  68.506  1.00  0.00    -0.215 C  
ATOM      2  C   ALA A   1     -10.835   5.810  68.264  1.00  0.00    -0.249 C  
ATOM      3  CA  ALA A   1     -10.503   6.857  69.338  1.00  0.00    -0.217 C  
ATOM      4  N   ALA A   1      -9.039   6.716  69.572  1.00  0.00    -0.144 N  
ATOM      5  C   ALA A   1     -11.342   6.603  70.593  1.00  0.00    -0.347 C  
ATOM      6  C   ALA A   1      -8.520   5.623  68.745  1.00  0.00    -0.102 C  
ATOM      7  O   ALA A   1     -10.666   5.978  71.582  1.00  0.00    -0.234 OA 
ATOM      8  C   ALA A   1      -8.202   7.760  69.985  1.00  0.00    -0.121 C  
ATOM      9  OXT ALA A   1     -12.527   6.893  70.677  1.00  0.00    -0.321 OA 
ATOM     10  C   ALA A   1      -9.534   3.745  67.403  1.00  0.00    -0.239 C  
ATOM     11  O   ALA A   1      -6.976   7.663  69.910  1.00  0.00    -0.052 OA 
ATOM     12  C   ALA A   1      -7.398   4.721  69.259  1.00  0.00    -0.053 C  
ATOM     13  C   ALA A   1      -8.354   2.843  67.780  1.00  0.00    -0.094 C  
ATOM     14  C   ALA A   1      -7.108   3.630  68.208  1.00  0.00    -0.051 C  
ENDROOT
BRANCH   8  15
ATOM     15  CA  ALA A   1      -8.881   9.073  70.515  1.00  0.00    -0.208 C  
ATOM     16  CB  ALA A   1      -9.532   8.805  71.876  1.00  0.00    -0.362 C  
BRANCH  15  17
ATOM     17  N   ALA A   1      -9.851   9.575  69.522  1.00  0.00    -0.182 NA 
ATOM     18  H   ALA A   1     -10.320  10.406  69.881  1.00  0.00     0.000 HD 
BRANCH  17  19
HETATM   19  C   UNK A   0      -9.296   9.844  68.173  1.00  0.00    -0.131 C  
BRANCH  19  20
HETATM   20  C   UNK A   0     -10.398  10.116  67.128  1.00  0.00    -0.295 C  
BRANCH  20  21
HETATM   21  C   UNK A   0     -11.171  11.422  67.378  1.00  0.00    -0.370 C  
BRANCH  21  22
HETATM   22  C   UNK A   0     -11.490  12.122  66.080  1.00  0.00    -0.427 A  
HETATM   23  C   UNK A   0     -12.277  13.280  66.067  1.00  0.00    -0.483 A  
HETATM   24  C   UNK A   0     -10.966  11.642  64.871  1.00  0.00    -0.345 A  
HETATM   25  C   UNK A   0     -12.548  13.937  64.866  1.00  0.00    -0.380 A  
HETATM   26  C   UNK A   0     -11.240  12.300  63.671  1.00  0.00    -0.539 A  
HETATM   27  C   UNK A   0     -12.031  13.447  63.668  1.00  0.00    -0.504 A  
ENDBRANCH  21  22
ENDBRANCH  20  21
ENDBRANCH  19  20
BRANCH  19  28
HETATM   28  C   UNK A   0      -8.364  11.072  68.248  1.00  0.00    -0.133 C  
HETATM   29  O   UNK A   0      -8.722  12.222  68.448  1.00  0.00    -0.182 OA 
BRANCH  28  30
HETATM   30  O   UNK A   0      -7.076  10.696  67.970  1.00  0.00    -0.082 OA 
BRANCH  30  31
HETATM   31  C   UNK A   0      -6.875  10.131  66.664  1.00  0.00    -0.084 C  
HETATM   32  C   UNK A   0      -5.953   8.931  66.804  1.00  0.00    -0.053 C  
ENDBRANCH  30  31
ENDBRANCH  28  30
ENDBRANCH  19  28
ENDBRANCH  17  19
ENDBRANCH  15  17
ENDBRANCH   8  15
TORSDOF 9
ENDMDL
MODEL      231
REMARK 921   NORMALIZED FREE ENERGY PREDICTED BY IDOCK:   -3.06 KCAL/MOL
REMARK 922        TOTAL FREE ENERGY PREDICTED BY IDOCK:   -6.61 KCAL/MOL
REMARK 923 INTER-LIGAND FREE ENERGY PREDICTED BY IDOCK:   -5.16 KCAL/MOL
REMARK 924 INTRA-LIGAND FREE ENERGY PREDICTED BY IDOCK:   -1.45 KCAL/MOL
REMARK 927      BINDING AFFINITY PREDICTED BY RF-SCORE:    0.00 PKD
ROOT
ATOM      1  C   ALA A   1     -10.172  11.529  67.141  1.00  0.00    -0.233 C  
ATOM      2  C   ALA A   1     -11.263  10.584  67.616  1.00  0.00    -0.338 C  
ATOM      3  CA  ALA A   1     -10.448   9.481  68.310  1.00  0.00    -0.223 C  
ATOM      4  N   ALA A   1      -9.205  10.156  68.775  1.00  0.00    -0.156 N  
ATOM      5  C   ALA A   1     -10.182   8.335  67.332  1.00  0.00    -0.258 C  
ATOM      6  C   ALA A   1      -9.227  11.559  68.347  1.00  0.00    -0.190 C  
ATOM      7  O   ALA A   1      -8.938   8.348  66.804  1.00  0.00    -0.134 OA 
ATOM      8  C   ALA A   1      -8.467   9.763  69.898  1.00  0.00    -0.201 C  
ATOM      9  OXT ALA A   1     -11.029   7.511  67.017  1.00  0.00    -0.306 OA 
ATOM     10  C   ALA A   1     -10.600  12.926  66.735  1.00  0.00    -0.268 C  
ATOM     11  O   ALA A   1      -7.610  10.500  70.389  1.00  0.00    -0.095 OA 
ATOM     12  C   ALA A   1      -7.938  12.269  67.936  1.00  0.00    -0.152 C  
ATOM     13  C   ALA A   1      -9.361  13.759  66.391  1.00  0.00    -0.215 C  
ATOM     14  C   ALA A   1      -8.277  13.701  67.477  1.00  0.00    -0.189 C  
ENDROOT
BRANCH   8  15
ATOM     15  CA  ALA A   1      -8.791   8.362  70.529  1.00  0.00    -0.148 C  
ATOM     16  CB  ALA A   1      -9.910   8.508  71.564  1.00  0.00    -0.309 C  
BRANCH  15  17
ATOM     17  N   ALA A   1      -7.566   7.778  71.112  1.00  0.00    -0.077 NA 
ATOM     18  H   ALA A   1      -7.243   8.348  71.892  1.00  0.00     0.000 HD 
BRANCH  17  19
HETATM   19  C   UNK A   0      -7.678   6.359  71.530  1.00  0.00    -0.100 C  
BRANCH  19  20
HETATM   20  C   UNK A   0      -6.454   5.522  71.103  1.00  0.00    -0.036 C  
BRANCH  20  21
HETATM   21  C   UNK A   0      -6.825   4.150  70.516  1.00  0.00    -0.033 C  
BRANCH  21  22
HETATM   22  C   UNK A   0      -7.624   4.301  69.244  1.00  0.00    -0.054 A  
HETATM   23  C   UNK A   0      -7.089   4.975  68.140  1.00  0.00    -0.062 A  
HETATM   24  C   UNK A   0      -8.899   3.728  69.140  1.00  0.00    -0.152 A  
HETATM   25  C   UNK A   0      -7.822   5.089  66.959  1.00  0.00    -0.096 A  
HETATM   26  C   UNK A   0      -9.632   3.845  67.957  1.00  0.00    -0.189 A  
HETATM   27  C   UNK A   0      -9.094   4.525  66.867  1.00  0.00    -0.130 A  
ENDBRANCH  21  22
ENDBRANCH  20  21
ENDBRANCH  19  20
BRANCH  19  28
HETATM   28  C   UNK A   0      -7.817   6.295  73.065  1.00  0.00    -0.103 C  
HETATM   29  O   UNK A   0      -7.260   7.039  73.857  1.00  0.00    -0.090 OA 
BRANCH  28  30
HETATM   30  O   UNK A   0      -8.593   5.223  73.419  1.00  0.00    -0.116 OA 
BRANCH  30  31
HETATM   31  C   UNK A   0      -9.922   5.552  73.856  1.00  0.00    -0.195 C  
HETATM   32  C   UNK A   0     -10.896   5.124  72.770  1.00  0.00    -0.314 C  
ENDBRANCH  30  31
ENDBRANCH  28  30
ENDBRANCH  19  28
ENDBRANCH  17  19
ENDBRANCH  15  17
ENDBRANCH   8  15
TORSDOF 9
ENDMDL
MODEL      232
REMARK 921   NORMALIZED FREE ENERGY PREDICTED BY IDOCK:   -3.05 KCAL/MOL
REMARK 922        TOTAL FREE ENERGY PREDICTED BY IDOCK:   -6.61 KCAL/MOL
REMARK 923 INTER-LIGAND FREE ENERGY PREDICTED BY IDOCK:   -5.69 KCAL/MOL
REMARK 924 INTRA-LIGAND FREE ENERGY PREDICTED BY IDOCK:   -0.91 KCAL/MOL
REMARK 927      BINDING AFFINITY PREDICTED BY RF-SCORE:    0.00 PKD
ROOT
ATOM      1  C   ALA A   1      -7.465   7.472  66.154  1.00  0.00    -0.083 C  
ATOM      2  C   ALA A   1      -6.435   8.399  65.532  1.00  0.00    -0.049 C  
ATOM      3  CA  ALA A   1      -7.032   9.783  65.828  1.00  0.00    -0.103 C  
ATOM      4  N   ALA A   1      -7.837   9.597  67.067  1.00  0.00    -0.098 N  
ATOM      5  C   ALA A   1      -7.864  10.260  64.635  1.00  0.00    -0.123 C  
ATOM      6  C   ALA A   1      -7.785   8.188  67.470  1.00  0.00    -0.102 C  
ATOM      7  O   ALA A   1      -9.196  10.106  64.803  1.00  0.00    -0.200 OA 
ATOM      8  C   ALA A   1      -8.075  10.603  68.012  1.00  0.00    -0.112 C  
ATOM      9  OXT ALA A   1      -7.370  10.694  63.604  1.00  0.00     0.018 OA 
ATOM     10  C   ALA A   1      -7.043   6.034  66.390  1.00  0.00    -0.068 C  
ATOM     11  O   ALA A   1      -8.515  10.335  69.132  1.00  0.00    -0.141 OA 
ATOM     12  C   ALA A   1      -9.001   7.513  68.105  1.00  0.00    -0.129 C  
ATOM     13  C   ALA A   1      -8.167   5.287  67.116  1.00  0.00    -0.108 C  
ATOM     14  C   ALA A   1      -8.676   6.028  68.360  1.00  0.00    -0.113 C  
ENDROOT
BRANCH   8  15
ATOM     15  CA  ALA A   1      -7.731  12.080  67.607  1.00  0.00    -0.144 C  
ATOM     16  CB  ALA A   1      -6.270  12.384  67.952  1.00  0.00    -0.093 C  
BRANCH  15  17
ATOM     17  N   ALA A   1      -8.665  13.013  68.267  1.00  0.00    -0.223 NA 
ATOM     18  H   ALA A   1      -8.782  12.757  69.247  1.00  0.00     0.000 HD 
BRANCH  17  19
HETATM   19  C   UNK A   0      -8.311  14.450  68.156  1.00  0.00    -0.158 C  
BRANCH  19  20
HETATM   20  C   UNK A   0      -8.275  14.935  66.692  1.00  0.00     0.037 C  
BRANCH  20  21
HETATM   21  C   UNK A   0      -9.562  15.653  66.253  1.00  0.00    -0.337 C  
BRANCH  21  22
HETATM   22  C   UNK A   0     -10.359  14.803  65.294  1.00  0.00    -0.425 A  
HETATM   23  C   UNK A   0      -9.927  13.515  64.952  1.00  0.00    -0.176 A  
HETATM   24  C   UNK A   0     -11.567  15.279  64.765  1.00  0.00    -0.322 A  
HETATM   25  C   UNK A   0     -10.681  12.725  64.085  1.00  0.00    -0.441 A  
HETATM   26  C   UNK A   0     -12.319  14.486  63.896  1.00  0.00    -0.063 A  
HETATM   27  C   UNK A   0     -11.877  13.210  63.556  1.00  0.00    -0.539 A  
ENDBRANCH  21  22
ENDBRANCH  20  21
ENDBRANCH  19  20
BRANCH  19  28
HETATM   28  C   UNK A   0      -9.348  15.286  68.934  1.00  0.00    -0.213 C  
HETATM   29  O   UNK A   0      -9.175  16.422  69.347  1.00  0.00    -0.201 OA 
BRANCH  28  30
HETATM   30  O   UNK A   0     -10.469  14.536  69.172  1.00  0.00    -0.242 OA 
BRANCH  30  31
HETATM   31  C   UNK A   0     -11.574  15.255  69.743  1.00  0.00    -0.314 C  
HETATM   32  C   UNK A   0     -12.371  14.291  70.606  1.00  0.00    -0.431 C  
ENDBRANCH  30  31
ENDBRANCH  28  30
ENDBRANCH  19  28
ENDBRANCH  17  19
ENDBRANCH  15  17
ENDBRANCH   8  15
TORSDOF 9
ENDMDL
MODEL      233
REMARK 921   NORMALIZED FREE ENERGY PREDICTED BY IDOCK:   -3.05 KCAL/MOL
REMARK 922        TOTAL FREE ENERGY PREDICTED BY IDOCK:   -6.60 KCAL/MOL
REMARK 923 INTER-LIGAND FREE ENERGY PREDICTED BY IDOCK:   -6.19 KCAL/MOL
REMARK 924 INTRA-LIGAND FREE ENERGY PREDICTED BY IDOCK:   -0.41 KCAL/MOL
REMARK 927      BINDING AFFINITY PREDICTED BY RF-SCORE:    0.00 PKD
ROOT
ATOM      1  C   ALA A   1      -9.836   5.214  67.505  1.00  0.00    -0.193 C  
ATOM      2  C   ALA A   1     -10.938   6.255  67.600  1.00  0.00    -0.438 C  
ATOM      3  CA  ALA A   1     -10.245   7.383  68.379  1.00  0.00    -0.183 C  
ATOM      4  N   ALA A   1      -8.798   7.242  68.054  1.00  0.00    -0.130 N  
ATOM      5  C   ALA A   1     -10.543   7.246  69.874  1.00  0.00    -0.231 C  
ATOM      6  C   ALA A   1      -8.609   6.076  67.185  1.00  0.00    -0.106 C  
ATOM      7  O   ALA A   1      -9.532   6.697  70.583  1.00  0.00    -0.168 OA 
ATOM      8  C   ALA A   1      -7.887   8.305  68.033  1.00  0.00    -0.118 C  
ATOM      9  OXT ALA A   1     -11.614   7.559  70.375  1.00  0.00    -0.246 OA 
ATOM     10  C   ALA A   1     -10.020   4.107  66.485  1.00  0.00    -0.165 C  
ATOM     11  O   ALA A   1      -6.777   8.184  67.509  1.00  0.00    -0.060 OA 
ATOM     12  C   ALA A   1      -7.360   5.205  67.309  1.00  0.00    -0.082 C  
ATOM     13  C   ALA A   1      -8.769   3.223  66.461  1.00  0.00    -0.130 C  
ATOM     14  C   ALA A   1      -7.467   4.026  66.321  1.00  0.00    -0.088 C  
ENDROOT
BRANCH   8  15
ATOM     15  CA  ALA A   1      -8.339   9.666  68.670  1.00  0.00    -0.114 C  
ATOM     16  CB  ALA A   1      -8.118   9.627  70.185  1.00  0.00    -0.205 C  
BRANCH  15  17
ATOM     17  N   ALA A   1      -9.746   9.944  68.319  1.00  0.00    -0.143 NA 
ATOM     18  H   ALA A   1     -10.342   9.818  69.137  1.00  0.00     0.000 HD 
BRANCH  17  19
HETATM   19  C   UNK A   0      -9.997  11.271  67.705  1.00  0.00    -0.176 C  
BRANCH  19  20
HETATM   20  C   UNK A   0      -9.421  11.377  66.278  1.00  0.00    -0.229 C  
BRANCH  20  21
HETATM   21  C   UNK A   0      -9.799  10.191  65.375  1.00  0.00    -0.375 C  
BRANCH  21  22
HETATM   22  C   UNK A   0      -8.569   9.478  64.871  1.00  0.00    -0.191 A  
HETATM   23  C   UNK A   0      -8.649   8.164  64.394  1.00  0.00     0.109 A  
HETATM   24  C   UNK A   0      -7.334  10.141  64.834  1.00  0.00    -0.136 A  
HETATM   25  C   UNK A   0      -7.513   7.519  63.905  1.00  0.00    -0.108 A  
HETATM   26  C   UNK A   0      -6.198   9.493  64.345  1.00  0.00    -0.084 A  
HETATM   27  C   UNK A   0      -6.287   8.183  63.881  1.00  0.00    -0.067 A  
ENDBRANCH  21  22
ENDBRANCH  20  21
ENDBRANCH  19  20
BRANCH  19  28
HETATM   28  C   UNK A   0     -11.519  11.521  67.651  1.00  0.00    -0.285 C  
HETATM   29  O   UNK A   0     -12.315  11.231  68.530  1.00  0.00    -0.543 OA 
BRANCH  28  30
HETATM   30  O   UNK A   0     -11.862  12.042  66.432  1.00  0.00    -0.578 OA 
BRANCH  30  31
HETATM   31  C   UNK A   0     -12.324  13.402  66.459  1.00  0.00    -0.295 C  
HETATM   32  C   UNK A   0     -12.655  13.818  65.035  1.00  0.00    -0.427 C  
ENDBRANCH  30  31
ENDBRANCH  28  30
ENDBRANCH  19  28
ENDBRANCH  17  19
ENDBRANCH  15  17
ENDBRANCH   8  15
TORSDOF 9
ENDMDL
MODEL      234
REMARK 921   NORMALIZED FREE ENERGY PREDICTED BY IDOCK:   -2.98 KCAL/MOL
REMARK 922        TOTAL FREE ENERGY PREDICTED BY IDOCK:   -6.49 KCAL/MOL
REMARK 923 INTER-LIGAND FREE ENERGY PREDICTED BY IDOCK:   -6.69 KCAL/MOL
REMARK 924 INTRA-LIGAND FREE ENERGY PREDICTED BY IDOCK:    0.20 KCAL/MOL
REMARK 927      BINDING AFFINITY PREDICTED BY RF-SCORE:    0.00 PKD
ROOT
ATOM      1  C   ALA A   1     -10.094   5.630  67.022  1.00  0.00    -0.223 C  
ATOM      2  C   ALA A   1     -11.130   6.722  67.229  1.00  0.00    -0.394 C  
ATOM      3  CA  ALA A   1     -10.329   7.778  68.006  1.00  0.00    -0.209 C  
ATOM      4  N   ALA A   1      -8.915   7.576  67.583  1.00  0.00    -0.127 N  
ATOM      5  C   ALA A   1     -10.541   7.593  69.510  1.00  0.00    -0.227 C  
ATOM      6  C   ALA A   1      -8.844   6.439  66.659  1.00  0.00    -0.130 C  
ATOM      7  O   ALA A   1      -9.520   6.961  70.130  1.00  0.00    -0.162 OA 
ATOM      8  C   ALA A   1      -7.950   8.589  67.546  1.00  0.00    -0.106 C  
ATOM      9  OXT ALA A   1     -11.560   7.939  70.091  1.00  0.00    -0.111 OA 
ATOM     10  C   ALA A   1     -10.401   4.579  65.973  1.00  0.00    -0.276 C  
ATOM     11  O   ALA A   1      -6.883   8.434  66.947  1.00  0.00    -0.067 OA 
ATOM     12  C   ALA A   1      -7.639   5.500  66.668  1.00  0.00    -0.088 C  
ATOM     13  C   ALA A   1      -9.204   3.633  65.835  1.00  0.00    -0.161 C  
ATOM     14  C   ALA A   1      -7.872   4.372  65.643  1.00  0.00    -0.094 C  
ENDROOT
BRANCH   8  15
ATOM     15  CA  ALA A   1      -8.286   9.944  68.264  1.00  0.00    -0.110 C  
ATOM     16  CB  ALA A   1      -8.088   9.792  69.775  1.00  0.00    -0.174 C  
BRANCH  15  17
ATOM     17  N   ALA A   1      -9.659  10.368  67.922  1.00  0.00    -0.142 NA 
ATOM     18  H   ALA A   1     -10.334   9.862  68.495  1.00  0.00     0.000 HD 
BRANCH  17  19
HETATM   19  C   UNK A   0      -9.912  11.827  68.006  1.00  0.00    -0.188 C  
BRANCH  19  20
HETATM   20  C   UNK A   0      -9.236  12.608  66.859  1.00  0.00    -0.216 C  
BRANCH  20  21
HETATM   21  C   UNK A   0      -7.986  13.387  67.304  1.00  0.00    -0.130 C  
BRANCH  21  22
HETATM   22  C   UNK A   0      -8.303  14.847  67.513  1.00  0.00    -0.195 A  
HETATM   23  C   UNK A   0      -7.980  15.483  68.719  1.00  0.00    -0.163 A  
HETATM   24  C   UNK A   0      -8.887  15.599  66.483  1.00  0.00    -0.345 A  
HETATM   25  C   UNK A   0      -8.252  16.839  68.898  1.00  0.00    -0.224 A  
HETATM   26  C   UNK A   0      -9.159  16.956  66.665  1.00  0.00    -0.280 A  
HETATM   27  C   UNK A   0      -8.842  17.576  67.871  1.00  0.00    -0.247 A  
ENDBRANCH  21  22
ENDBRANCH  20  21
ENDBRANCH  19  20
BRANCH  19  28
HETATM   28  C   UNK A   0     -11.434  12.078  67.953  1.00  0.00    -0.330 C  
HETATM   29  O   UNK A   0     -12.214  11.893  68.873  1.00  0.00    -0.273 OA 
BRANCH  28  30
HETATM   30  O   UNK A   0     -11.799  12.461  66.690  1.00  0.00    -0.492 OA 
BRANCH  30  31
HETATM   31  C   UNK A   0     -12.387  13.769  66.596  1.00  0.00    -0.357 C  
HETATM   32  C   UNK A   0     -12.449  14.156  65.127  1.00  0.00    -0.453 C  
ENDBRANCH  30  31
ENDBRANCH  28  30
ENDBRANCH  19  28
ENDBRANCH  17  19
ENDBRANCH  15  17
ENDBRANCH   8  15
TORSDOF 9
ENDMDL
MODEL      235
REMARK 921   NORMALIZED FREE ENERGY PREDICTED BY IDOCK:   -2.97 KCAL/MOL
REMARK 922        TOTAL FREE ENERGY PREDICTED BY IDOCK:   -6.48 KCAL/MOL
REMARK 923 INTER-LIGAND FREE ENERGY PREDICTED BY IDOCK:   -6.44 KCAL/MOL
REMARK 924 INTRA-LIGAND FREE ENERGY PREDICTED BY IDOCK:   -0.04 KCAL/MOL
REMARK 927      BINDING AFFINITY PREDICTED BY RF-SCORE:    0.00 PKD
ROOT
ATOM      1  C   ALA A   1      -9.858   4.952  68.084  1.00  0.00    -0.198 C  
ATOM      2  C   ALA A   1     -11.028   5.917  68.007  1.00  0.00    -0.252 C  
ATOM      3  CA  ALA A   1     -10.567   7.051  68.936  1.00  0.00    -0.215 C  
ATOM      4  N   ALA A   1      -9.080   7.014  68.878  1.00  0.00    -0.135 N  
ATOM      5  C   ALA A   1     -11.121   6.830  70.346  1.00  0.00    -0.308 C  
ATOM      6  C   ALA A   1      -8.656   5.901  68.022  1.00  0.00    -0.113 C  
ATOM      7  O   ALA A   1     -10.220   6.313  71.210  1.00  0.00    -0.194 OA 
ATOM      8  C   ALA A   1      -8.255   8.131  69.059  1.00  0.00    -0.127 C  
ATOM      9  OXT ALA A   1     -12.284   7.053  70.651  1.00  0.00    -0.330 OA 
ATOM     10  C   ALA A   1      -9.777   3.881  67.013  1.00  0.00    -0.186 C  
ATOM     11  O   ALA A   1      -7.064   8.103  68.744  1.00  0.00    -0.068 OA 
ATOM     12  C   ALA A   1      -7.392   5.105  68.346  1.00  0.00    -0.071 C  
ATOM     13  C   ALA A   1      -8.484   3.079  67.191  1.00  0.00    -0.102 C  
ATOM     14  C   ALA A   1      -7.237   3.967  67.318  1.00  0.00    -0.067 C  
ENDROOT
BRANCH   8  15
ATOM     15  CA  ALA A   1      -8.909   9.433  69.645  1.00  0.00    -0.172 C  
ATOM     16  CB  ALA A   1      -9.091   9.283  71.158  1.00  0.00    -0.197 C  
BRANCH  15  17
ATOM     17  N   ALA A   1     -10.184   9.711  68.955  1.00  0.00    -0.193 NA 
ATOM     18  H   ALA A   1     -10.886  10.018  69.627  1.00  0.00     0.000 HD 
BRANCH  17  19
HETATM   19  C   UNK A   0     -10.100  10.675  67.830  1.00  0.00    -0.168 C  
BRANCH  19  20
HETATM   20  C   UNK A   0     -11.319  11.618  67.772  1.00  0.00    -0.356 C  
BRANCH  20  21
HETATM   21  C   UNK A   0     -12.147  11.630  69.068  1.00  0.00    -0.288 C  
BRANCH  21  22
HETATM   22  C   UNK A   0     -12.073  12.976  69.748  1.00  0.00    -0.325 A  
HETATM   23  C   UNK A   0     -11.486  14.071  69.102  1.00  0.00    -0.340 A  
HETATM   24  C   UNK A   0     -12.630  13.155  71.021  1.00  0.00    -0.397 A  
HETATM   25  C   UNK A   0     -11.443  15.319  69.725  1.00  0.00    -0.332 A  
HETATM   26  C   UNK A   0     -12.586  14.404  71.643  1.00  0.00    -0.429 A  
HETATM   27  C   UNK A   0     -11.992  15.486  70.996  1.00  0.00    -0.428 A  
ENDBRANCH  21  22
ENDBRANCH  20  21
ENDBRANCH  19  20
BRANCH  19  28
HETATM   28  C   UNK A   0      -8.819  11.522  67.987  1.00  0.00    -0.158 C  
HETATM   29  O   UNK A   0      -8.637  12.378  68.840  1.00  0.00     0.085 OA 
BRANCH  28  30
HETATM   30  O   UNK A   0      -7.943  11.235  66.975  1.00  0.00    -0.136 OA 
BRANCH  30  31
HETATM   31  C   UNK A   0      -8.450  10.347  65.965  1.00  0.00    -0.146 C  
HETATM   32  C   UNK A   0      -7.343   9.374  65.592  1.00  0.00    -0.092 C  
ENDBRANCH  30  31
ENDBRANCH  28  30
ENDBRANCH  19  28
ENDBRANCH  17  19
ENDBRANCH  15  17
ENDBRANCH   8  15
TORSDOF 9
ENDMDL
MODEL      236
REMARK 921   NORMALIZED FREE ENERGY PREDICTED BY IDOCK:   -2.91 KCAL/MOL
REMARK 922        TOTAL FREE ENERGY PREDICTED BY IDOCK:   -6.39 KCAL/MOL
REMARK 923 INTER-LIGAND FREE ENERGY PREDICTED BY IDOCK:   -8.03 KCAL/MOL
REMARK 924 INTRA-LIGAND FREE ENERGY PREDICTED BY IDOCK:    1.64 KCAL/MOL
REMARK 927      BINDING AFFINITY PREDICTED BY RF-SCORE:    0.00 PKD
ROOT
ATOM      1  C   ALA A   1     -10.547  15.439  67.752  1.00  0.00    -0.274 C  
ATOM      2  C   ALA A   1      -9.837  15.121  69.057  1.00  0.00    -0.238 C  
ATOM      3  CA  ALA A   1     -10.768  14.067  69.676  1.00  0.00     0.106 C  
ATOM      4  N   ALA A   1     -11.425  13.406  68.515  1.00  0.00    -0.287 N  
ATOM      5  C   ALA A   1     -11.759  14.738  70.629  1.00  0.00    -0.297 C  
ATOM      6  C   ALA A   1     -10.977  14.048  67.275  1.00  0.00    -0.295 C  
ATOM      7  O   ALA A   1     -12.990  14.912  70.100  1.00  0.00    -0.214 OA 
ATOM      8  C   ALA A   1     -11.874  12.079  68.511  1.00  0.00    -0.311 C  
ATOM      9  OXT ALA A   1     -11.455  15.126  71.748  1.00  0.00    -0.390 OA 
ATOM     10  C   ALA A   1      -9.743  16.167  66.691  1.00  0.00    -0.260 C  
ATOM     11  O   ALA A   1     -12.165  11.506  67.460  1.00  0.00    -0.463 OA 
ATOM     12  C   ALA A   1     -11.932  14.214  66.093  1.00  0.00    -0.437 C  
ATOM     13  C   ALA A   1     -10.585  16.303  65.418  1.00  0.00    -0.371 C  
ATOM     14  C   ALA A   1     -11.208  14.974  64.964  1.00  0.00    -0.413 C  
ENDROOT
BRANCH   8  15
ATOM     15  CA  ALA A   1     -11.960  11.335  69.891  1.00  0.00    -0.365 C  
ATOM     16  CB  ALA A   1     -12.576  12.264  70.942  1.00  0.00    -0.334 C  
BRANCH  15  17
ATOM     17  N   ALA A   1     -10.622  10.854  70.289  1.00  0.00    -0.333 NA 
ATOM     18  H   ALA A   1     -10.163  11.546  70.880  1.00  0.00     0.000 HD 
BRANCH  17  19
HETATM   19  C   UNK A   0     -10.594   9.524  70.945  1.00  0.00    -0.325 C  
BRANCH  19  20
HETATM   20  C   UNK A   0     -11.091   8.399  70.014  1.00  0.00    -0.148 C  
BRANCH  20  21
HETATM   21  C   UNK A   0      -9.957   7.522  69.455  1.00  0.00    -0.178 C  
BRANCH  21  22
HETATM   22  C   UNK A   0      -9.492   8.027  68.112  1.00  0.00    -0.152 A  
HETATM   23  C   UNK A   0     -10.352   8.762  67.286  1.00  0.00    -0.360 A  
HETATM   24  C   UNK A   0      -8.173   7.801  67.691  1.00  0.00    -0.125 A  
HETATM   25  C   UNK A   0      -9.908   9.248  66.057  1.00  0.00    -0.363 A  
HETATM   26  C   UNK A   0      -7.731   8.288  66.459  1.00  0.00    -0.092 A  
HETATM   27  C   UNK A   0      -8.598   9.011  65.642  1.00  0.00    -0.187 A  
ENDBRANCH  21  22
ENDBRANCH  20  21
ENDBRANCH  19  20
BRANCH  19  28
HETATM   28  C   UNK A   0      -9.149   9.209  71.384  1.00  0.00    -0.109 C  
HETATM   29  O   UNK A   0      -8.137   9.627  70.842  1.00  0.00    -0.293 OA 
BRANCH  28  30
HETATM   30  O   UNK A   0      -9.161   8.318  72.424  1.00  0.00    -0.206 OA 
BRANCH  30  31
HETATM   31  C   UNK A   0      -7.899   7.690  72.704  1.00  0.00    -0.101 C  
HETATM   32  C   UNK A   0      -7.605   7.858  74.185  1.00  0.00    -0.218 C  
ENDBRANCH  30  31
ENDBRANCH  28  30
ENDBRANCH  19  28
ENDBRANCH  17  19
ENDBRANCH  15  17
ENDBRANCH   8  15
TORSDOF 9
ENDMDL
MODEL      237
REMARK 921   NORMALIZED FREE ENERGY PREDICTED BY IDOCK:   -2.90 KCAL/MOL
REMARK 922        TOTAL FREE ENERGY PREDICTED BY IDOCK:   -6.36 KCAL/MOL
REMARK 923 INTER-LIGAND FREE ENERGY PREDICTED BY IDOCK:   -6.41 KCAL/MOL
REMARK 924 INTRA-LIGAND FREE ENERGY PREDICTED BY IDOCK:    0.04 KCAL/MOL
REMARK 927      BINDING AFFINITY PREDICTED BY RF-SCORE:    0.00 PKD
ROOT
ATOM      1  C   ALA A   1      -7.337   7.446  66.129  1.00  0.00    -0.082 C  
ATOM      2  C   ALA A   1      -6.582   8.319  65.141  1.00  0.00    -0.055 C  
ATOM      3  CA  ALA A   1      -7.210   9.699  65.392  1.00  0.00    -0.104 C  
ATOM      4  N   ALA A   1      -7.660   9.664  66.812  1.00  0.00    -0.097 N  
ATOM      5  C   ALA A   1      -8.351   9.942  64.403  1.00  0.00    -0.168 C  
ATOM      6  C   ALA A   1      -7.383   8.338  67.374  1.00  0.00    -0.092 C  
ATOM      7  O   ALA A   1      -9.580   9.747  64.931  1.00  0.00    -0.290 OA 
ATOM      8  C   ALA A   1      -7.745  10.789  67.641  1.00  0.00    -0.104 C  
ATOM      9  OXT ALA A   1      -8.171  10.239  63.231  1.00  0.00    -0.157 OA 
ATOM     10  C   ALA A   1      -6.742   6.086  66.440  1.00  0.00    -0.060 C  
ATOM     11  O   ALA A   1      -7.866  10.674  68.862  1.00  0.00    -0.110 OA 
ATOM     12  C   ALA A   1      -8.336   7.706  68.388  1.00  0.00    -0.125 C  
ATOM     13  C   ALA A   1      -7.578   5.401  67.527  1.00  0.00    -0.088 C  
ATOM     14  C   ALA A   1      -7.826   6.297  68.749  1.00  0.00    -0.101 C  
ENDROOT
BRANCH   8  15
ATOM     15  CA  ALA A   1      -7.646  12.202  66.965  1.00  0.00    -0.093 C  
ATOM     16  CB  ALA A   1      -6.289  12.836  67.285  1.00  0.00    -0.062 C  
BRANCH  15  17
ATOM     17  N   ALA A   1      -8.774  13.049  67.402  1.00  0.00    -0.195 NA 
ATOM     18  H   ALA A   1      -8.469  14.018  67.492  1.00  0.00     0.000 HD 
BRANCH  17  19
HETATM   19  C   UNK A   0      -9.990  12.974  66.556  1.00  0.00    -0.262 C  
BRANCH  19  20
HETATM   20  C   UNK A   0     -10.846  11.728  66.865  1.00  0.00    -0.312 C  
BRANCH  20  21
HETATM   21  C   UNK A   0     -11.876  11.955  67.983  1.00  0.00    -0.323 C  
BRANCH  21  22
HETATM   22  C   UNK A   0     -11.701  10.952  69.096  1.00  0.00    -0.397 A  
HETATM   23  C   UNK A   0     -10.643  10.034  69.072  1.00  0.00    -0.235 A  
HETATM   24  C   UNK A   0     -12.574  10.953  70.193  1.00  0.00    -0.304 A  
HETATM   25  C   UNK A   0     -10.470   9.126  70.116  1.00  0.00    -0.249 A  
HETATM   26  C   UNK A   0     -12.401  10.042  71.236  1.00  0.00    -0.496 A  
HETATM   27  C   UNK A   0     -11.350   9.128  71.198  1.00  0.00    -0.392 A  
ENDBRANCH  21  22
ENDBRANCH  20  21
ENDBRANCH  19  20
BRANCH  19  28
HETATM   28  C   UNK A   0     -10.844  14.238  66.788  1.00  0.00    -0.298 C  
HETATM   29  O   UNK A   0     -11.507  14.810  65.936  1.00  0.00    -0.351 OA 
BRANCH  28  30
HETATM   30  O   UNK A   0     -10.684  14.680  68.074  1.00  0.00    -0.241 OA 
BRANCH  30  31
HETATM   31  C   UNK A   0     -11.678  15.613  68.526  1.00  0.00    -0.327 C  
HETATM   32  C   UNK A   0     -11.062  16.469  69.620  1.00  0.00    -0.235 C  
ENDBRANCH  30  31
ENDBRANCH  28  30
ENDBRANCH  19  28
ENDBRANCH  17  19
ENDBRANCH  15  17
ENDBRANCH   8  15
TORSDOF 9
ENDMDL
MODEL      238
REMARK 921   NORMALIZED FREE ENERGY PREDICTED BY IDOCK:   -2.89 KCAL/MOL
REMARK 922        TOTAL FREE ENERGY PREDICTED BY IDOCK:   -6.35 KCAL/MOL
REMARK 923 INTER-LIGAND FREE ENERGY PREDICTED BY IDOCK:   -6.09 KCAL/MOL
REMARK 924 INTRA-LIGAND FREE ENERGY PREDICTED BY IDOCK:   -0.26 KCAL/MOL
REMARK 927      BINDING AFFINITY PREDICTED BY RF-SCORE:    0.00 PKD
ROOT
ATOM      1  C   ALA A   1      -8.755   3.642  70.737  1.00  0.00    -0.123 C  
ATOM      2  C   ALA A   1      -9.158   4.116  72.123  1.00  0.00    -0.156 C  
ATOM      3  CA  ALA A   1      -9.340   5.626  71.902  1.00  0.00    -0.144 C  
ATOM      4  N   ALA A   1      -9.715   5.762  70.467  1.00  0.00    -0.172 N  
ATOM      5  C   ALA A   1      -8.049   6.366  72.261  1.00  0.00    -0.107 C  
ATOM      6  C   ALA A   1      -9.707   4.438  69.837  1.00  0.00    -0.221 C  
ATOM      7  O   ALA A   1      -7.307   6.718  71.187  1.00  0.00    -0.076 OA 
ATOM      8  C   ALA A   1     -10.512   6.793  69.955  1.00  0.00    -0.211 C  
ATOM      9  OXT ALA A   1      -7.695   6.577  73.412  1.00  0.00    -0.093 OA 
ATOM     10  C   ALA A   1      -8.847   2.153  70.465  1.00  0.00    -0.129 C  
ATOM     11  O   ALA A   1     -11.007   6.718  68.828  1.00  0.00    -0.239 OA 
ATOM     12  C   ALA A   1      -9.259   4.267  68.386  1.00  0.00    -0.190 C  
ATOM     13  C   ALA A   1      -8.507   1.881  68.996  1.00  0.00    -0.083 C  
ATOM     14  C   ALA A   1      -9.294   2.770  68.022  1.00  0.00    -0.257 C  
ENDROOT
BRANCH   8  15
ATOM     15  CA  ALA A   1     -10.782   8.034  70.878  1.00  0.00    -0.221 C  
ATOM     16  CB  ALA A   1     -11.923   7.718  71.849  1.00  0.00    -0.340 C  
BRANCH  15  17
ATOM     17  N   ALA A   1     -11.067   9.224  70.051  1.00  0.00    -0.300 NA 
ATOM     18  H   ALA A   1     -10.977  10.070  70.613  1.00  0.00     0.000 HD 
BRANCH  17  19
HETATM   19  C   UNK A   0     -10.258   9.345  68.814  1.00  0.00    -0.203 C  
BRANCH  19  20
HETATM   20  C   UNK A   0     -10.975  10.165  67.721  1.00  0.00    -0.338 C  
BRANCH  20  21
HETATM   21  C   UNK A   0     -10.048  10.596  66.572  1.00  0.00    -0.275 C  
BRANCH  21  22
HETATM   22  C   UNK A   0     -10.395  11.981  66.084  1.00  0.00    -0.257 A  
HETATM   23  C   UNK A   0     -10.112  12.367  64.768  1.00  0.00    -0.260 A  
HETATM   24  C   UNK A   0     -11.045  12.887  66.934  1.00  0.00    -0.312 A  
HETATM   25  C   UNK A   0     -10.458  13.640  64.315  1.00  0.00    -0.180 A  
HETATM   26  C   UNK A   0     -11.389  14.161  66.479  1.00  0.00    -0.348 A  
HETATM   27  C   UNK A   0     -11.096  14.538  65.170  1.00  0.00    -0.374 A  
ENDBRANCH  21  22
ENDBRANCH  20  21
ENDBRANCH  19  20
BRANCH  19  28
HETATM   28  C   UNK A   0      -8.917  10.029  69.153  1.00  0.00    -0.169 C  
HETATM   29  O   UNK A   0      -8.719  11.234  69.161  1.00  0.00    -0.030 OA 
BRANCH  28  30
HETATM   30  O   UNK A   0      -7.951   9.081  69.362  1.00  0.00    -0.094 OA 
BRANCH  30  31
HETATM   31  C   UNK A   0      -7.063   8.862  68.253  1.00  0.00    -0.078 C  
HETATM   32  C   UNK A   0      -7.696   7.829  67.336  1.00  0.00    -0.113 C  
ENDBRANCH  30  31
ENDBRANCH  28  30
ENDBRANCH  19  28
ENDBRANCH  17  19
ENDBRANCH  15  17
ENDBRANCH   8  15
TORSDOF 9
ENDMDL
MODEL      239
REMARK 921   NORMALIZED FREE ENERGY PREDICTED BY IDOCK:   -2.86 KCAL/MOL
REMARK 922        TOTAL FREE ENERGY PREDICTED BY IDOCK:   -6.32 KCAL/MOL
REMARK 923 INTER-LIGAND FREE ENERGY PREDICTED BY IDOCK:   -7.06 KCAL/MOL
REMARK 924 INTRA-LIGAND FREE ENERGY PREDICTED BY IDOCK:    0.74 KCAL/MOL
REMARK 927      BINDING AFFINITY PREDICTED BY RF-SCORE:    0.00 PKD
ROOT
ATOM      1  C   ALA A   1      -8.838  18.045  66.615  1.00  0.00    -0.280 C  
ATOM      2  C   ALA A   1      -8.179  16.837  65.973  1.00  0.00    -0.170 C  
ATOM      3  CA  ALA A   1      -7.662  16.067  67.198  1.00  0.00    -0.207 C  
ATOM      4  N   ALA A   1      -8.586  16.441  68.304  1.00  0.00    -0.193 N  
ATOM      5  C   ALA A   1      -6.205  16.443  67.476  1.00  0.00    -0.158 C  
ATOM      6  C   ALA A   1      -9.564  17.415  67.809  1.00  0.00    -0.264 C  
ATOM      7  O   ALA A   1      -6.055  17.328  68.486  1.00  0.00    -0.148 OA 
ATOM      8  C   ALA A   1      -8.889  15.614  69.393  1.00  0.00    -0.257 C  
ATOM      9  OXT ALA A   1      -5.266  16.021  66.816  1.00  0.00    -0.270 OA 
ATOM     10  C   ALA A   1      -9.786  18.853  65.750  1.00  0.00     0.101 C  
ATOM     11  O   ALA A   1      -9.846  15.856  70.131  1.00  0.00    -0.094 OA 
ATOM     12  C   ALA A   1     -10.073  18.538  68.713  1.00  0.00    -0.394 C  
ATOM     13  C   ALA A   1     -10.430  19.957  66.595  1.00  0.00    -0.580 C  
ATOM     14  C   ALA A   1     -11.033  19.437  67.908  1.00  0.00    -0.173 C  
ENDROOT
BRANCH   8  15
ATOM     15  CA  ALA A   1      -7.988  14.349  69.621  1.00  0.00     0.335 C  
ATOM     16  CB  ALA A   1      -6.549  14.785  69.913  1.00  0.00    -0.175 C  
BRANCH  15  17
ATOM     17  N   ALA A   1      -8.072  13.453  68.450  1.00  0.00    -0.157 NA 
ATOM     18  H   ALA A   1      -7.142  13.116  68.201  1.00  0.00     0.000 HD 
BRANCH  17  19
HETATM   19  C   UNK A   0      -9.008  12.311  68.591  1.00  0.00     0.020 C  
BRANCH  19  20
HETATM   20  C   UNK A   0     -10.469  12.708  68.293  1.00  0.00    -0.249 C  
BRANCH  20  21
HETATM   21  C   UNK A   0     -11.220  11.678  67.432  1.00  0.00    -0.358 C  
BRANCH  21  22
HETATM   22  C   UNK A   0     -11.549  12.244  66.073  1.00  0.00    -0.451 A  
HETATM   23  C   UNK A   0     -11.226  11.537  64.907  1.00  0.00    -0.242 A  
HETATM   24  C   UNK A   0     -12.222  13.469  65.961  1.00  0.00    -0.493 A  
HETATM   25  C   UNK A   0     -11.556  12.053  63.654  1.00  0.00    -0.578 A  
HETATM   26  C   UNK A   0     -12.550  13.984  64.706  1.00  0.00    -0.326 A  
HETATM   27  C   UNK A   0     -12.217  13.277  63.552  1.00  0.00    -0.513 A  
ENDBRANCH  21  22
ENDBRANCH  20  21
ENDBRANCH  19  20
BRANCH  19  28
HETATM   28  C   UNK A   0      -8.586  11.191  67.617  1.00  0.00    -0.126 C  
HETATM   29  O   UNK A   0      -8.160  11.360  66.485  1.00  0.00    -0.165 OA 
BRANCH  28  30
HETATM   30  O   UNK A   0      -8.838   9.967  68.177  1.00  0.00    -0.118 OA 
BRANCH  30  31
HETATM   31  C   UNK A   0      -8.867   9.949  69.614  1.00  0.00    -0.208 C  
HETATM   32  C   UNK A   0      -9.408   8.600  70.060  1.00  0.00    -0.165 C  
ENDBRANCH  30  31
ENDBRANCH  28  30
ENDBRANCH  19  28
ENDBRANCH  17  19
ENDBRANCH  15  17
ENDBRANCH   8  15
TORSDOF 9
ENDMDL
MODEL      240
REMARK 921   NORMALIZED FREE ENERGY PREDICTED BY IDOCK:   -2.84 KCAL/MOL
REMARK 922        TOTAL FREE ENERGY PREDICTED BY IDOCK:   -6.29 KCAL/MOL
REMARK 923 INTER-LIGAND FREE ENERGY PREDICTED BY IDOCK:   -6.61 KCAL/MOL
REMARK 924 INTRA-LIGAND FREE ENERGY PREDICTED BY IDOCK:    0.33 KCAL/MOL
REMARK 927      BINDING AFFINITY PREDICTED BY RF-SCORE:    0.00 PKD
ROOT
ATOM      1  C   ALA A   1     -10.685  14.092  67.955  1.00  0.00    -0.248 C  
ATOM      2  C   ALA A   1     -10.260  13.199  66.803  1.00  0.00    -0.252 C  
ATOM      3  CA  ALA A   1      -9.727  11.960  67.540  1.00  0.00    -0.181 C  
ATOM      4  N   ALA A   1     -10.476  11.928  68.827  1.00  0.00    -0.207 N  
ATOM      5  C   ALA A   1      -8.213  12.073  67.726  1.00  0.00    -0.151 C  
ATOM      6  C   ALA A   1     -11.361  13.094  68.901  1.00  0.00    -0.289 C  
ATOM      7  O   ALA A   1      -7.844  12.459  68.967  1.00  0.00     0.046 OA 
ATOM      8  C   ALA A   1     -10.773  10.758  69.538  1.00  0.00    -0.226 C  
ATOM      9  OXT ALA A   1      -7.410  11.881  66.824  1.00  0.00    -0.110 OA 
ATOM     10  C   ALA A   1     -11.601  15.254  67.624  1.00  0.00    -0.249 C  
ATOM     11  O   ALA A   1     -11.608  10.756  70.444  1.00  0.00    -0.304 OA 
ATOM     12  C   ALA A   1     -11.622  13.792  70.236  1.00  0.00    -0.187 C  
ATOM     13  C   ALA A   1     -12.003  15.970  68.917  1.00  0.00    -0.129 C  
ATOM     14  C   ALA A   1     -12.532  15.013  69.996  1.00  0.00    -0.317 C  
ENDROOT
BRANCH   8  15
ATOM     15  CA  ALA A   1     -10.028   9.441  69.119  1.00  0.00    -0.182 C  
ATOM     16  CB  ALA A   1      -8.577   9.489  69.609  1.00  0.00    -0.189 C  
BRANCH  15  17
ATOM     17  N   ALA A   1     -10.116   9.256  67.657  1.00  0.00    -0.200 NA 
ATOM     18  H   ALA A   1     -10.312  10.148  67.202  1.00  0.00     0.000 HD 
BRANCH  17  19
HETATM   19  C   UNK A   0      -8.938   8.611  67.026  1.00  0.00    -0.133 C  
BRANCH  19  20
HETATM   20  C   UNK A   0      -8.838   7.109  67.367  1.00  0.00    -0.119 C  
BRANCH  20  21
HETATM   21  C   UNK A   0     -10.186   6.477  67.752  1.00  0.00    -0.201 C  
BRANCH  21  22
HETATM   22  C   UNK A   0     -10.028   5.522  68.909  1.00  0.00    -0.236 A  
HETATM   23  C   UNK A   0     -10.408   5.897  70.203  1.00  0.00    -0.305 A  
HETATM   24  C   UNK A   0      -9.535   4.227  68.693  1.00  0.00    -0.221 A  
HETATM   25  C   UNK A   0     -10.284   5.001  71.264  1.00  0.00    -0.273 A  
HETATM   26  C   UNK A   0      -9.410   3.332  69.757  1.00  0.00    -0.229 A  
HETATM   27  C   UNK A   0      -9.783   3.718  71.042  1.00  0.00    -0.248 A  
ENDBRANCH  21  22
ENDBRANCH  20  21
ENDBRANCH  19  20
BRANCH  19  28
HETATM   28  C   UNK A   0      -9.036   8.771  65.495  1.00  0.00    -0.181 C  
HETATM   29  O   UNK A   0      -8.487   8.054  64.672  1.00  0.00    -0.102 OA 
BRANCH  28  30
HETATM   30  O   UNK A   0      -9.761   9.891  65.188  1.00  0.00    -0.289 OA 
BRANCH  30  31
HETATM   31  C   UNK A   0      -9.209  10.707  64.141  1.00  0.00    -0.236 C  
HETATM   32  C   UNK A   0     -10.304  11.631  63.634  1.00  0.00    -0.466 C  
ENDBRANCH  30  31
ENDBRANCH  28  30
ENDBRANCH  19  28
ENDBRANCH  17  19
ENDBRANCH  15  17
ENDBRANCH   8  15
TORSDOF 9
ENDMDL
MODEL      241
REMARK 921   NORMALIZED FREE ENERGY PREDICTED BY IDOCK:   -2.84 KCAL/MOL
REMARK 922        TOTAL FREE ENERGY PREDICTED BY IDOCK:   -6.28 KCAL/MOL
REMARK 923 INTER-LIGAND FREE ENERGY PREDICTED BY IDOCK:   -6.36 KCAL/MOL
REMARK 924 INTRA-LIGAND FREE ENERGY PREDICTED BY IDOCK:    0.08 KCAL/MOL
REMARK 927      BINDING AFFINITY PREDICTED BY RF-SCORE:    0.00 PKD
ROOT
ATOM      1  C   ALA A   1      -7.907  17.748  67.434  1.00  0.00    -0.217 C  
ATOM      2  C   ALA A   1      -6.647  16.965  67.108  1.00  0.00    -0.224 C  
ATOM      3  CA  ALA A   1      -6.934  15.608  67.770  1.00  0.00    -0.158 C  
ATOM      4  N   ALA A   1      -8.418  15.485  67.765  1.00  0.00    -0.149 N  
ATOM      5  C   ALA A   1      -6.331  15.575  69.176  1.00  0.00    -0.120 C  
ATOM      6  C   ALA A   1      -9.003  16.703  67.194  1.00  0.00    -0.210 C  
ATOM      7  O   ALA A   1      -7.234  15.780  70.160  1.00  0.00     0.091 OA 
ATOM      8  C   ALA A   1      -9.109  14.268  67.712  1.00  0.00    -0.195 C  
ATOM      9  OXT ALA A   1      -5.136  15.425  69.389  1.00  0.00    -0.093 OA 
ATOM     10  C   ALA A   1      -8.158  19.012  66.634  1.00  0.00    -0.285 C  
ATOM     11  O   ALA A   1     -10.312  14.228  67.446  1.00  0.00    -0.256 OA 
ATOM     12  C   ALA A   1     -10.324  17.257  67.726  1.00  0.00    -0.356 C  
ATOM     13  C   ALA A   1      -9.518  19.600  67.027  1.00  0.00    -0.450 C  
ATOM     14  C   ALA A   1     -10.654  18.569  66.986  1.00  0.00    -0.421 C  
ENDROOT
BRANCH   8  15
ATOM     15  CA  ALA A   1      -8.290  12.953  67.970  1.00  0.00    -0.169 C  
ATOM     16  CB  ALA A   1      -7.316  12.715  66.813  1.00  0.00     0.352 C  
BRANCH  15  17
ATOM     17  N   ALA A   1      -9.212  11.817  68.165  1.00  0.00    -0.181 NA 
ATOM     18  H   ALA A   1     -10.174  12.151  68.217  1.00  0.00     0.000 HD 
BRANCH  17  19
HETATM   19  C   UNK A   0      -9.104  10.732  67.159  1.00  0.00    -0.144 C  
BRANCH  19  20
HETATM   20  C   UNK A   0      -9.121   9.330  67.802  1.00  0.00    -0.135 C  
BRANCH  20  21
HETATM   21  C   UNK A   0     -10.534   8.740  67.947  1.00  0.00    -0.275 C  
BRANCH  21  22
HETATM   22  C   UNK A   0     -10.937   8.643  69.398  1.00  0.00    -0.034 A  
HETATM   23  C   UNK A   0     -10.889   7.417  70.073  1.00  0.00    -0.266 A  
HETATM   24  C   UNK A   0     -11.323   9.793  70.102  1.00  0.00    -0.305 A  
HETATM   25  C   UNK A   0     -11.238   7.339  71.422  1.00  0.00    -0.274 A  
HETATM   26  C   UNK A   0     -11.673   9.712  71.451  1.00  0.00    -0.478 A  
HETATM   27  C   UNK A   0     -11.631   8.486  72.111  1.00  0.00    -0.447 A  
ENDBRANCH  21  22
ENDBRANCH  20  21
ENDBRANCH  19  20
BRANCH  19  28
HETATM   28  C   UNK A   0     -10.282  10.843  66.169  1.00  0.00    -0.249 C  
HETATM   29  O   UNK A   0     -11.437  10.521  66.404  1.00  0.00     0.131 OA 
BRANCH  28  30
HETATM   30  O   UNK A   0      -9.830  11.279  64.953  1.00  0.00    -0.238 OA 
BRANCH  30  31
HETATM   31  C   UNK A   0      -9.581  10.243  63.989  1.00  0.00    -0.304 C  
HETATM   32  C   UNK A   0      -8.874  10.865  62.796  1.00  0.00    -0.304 C  
ENDBRANCH  30  31
ENDBRANCH  28  30
ENDBRANCH  19  28
ENDBRANCH  17  19
ENDBRANCH  15  17
ENDBRANCH   8  15
TORSDOF 9
ENDMDL
MODEL      242
REMARK 921   NORMALIZED FREE ENERGY PREDICTED BY IDOCK:   -2.73 KCAL/MOL
REMARK 922        TOTAL FREE ENERGY PREDICTED BY IDOCK:   -6.11 KCAL/MOL
REMARK 923 INTER-LIGAND FREE ENERGY PREDICTED BY IDOCK:   -5.44 KCAL/MOL
REMARK 924 INTRA-LIGAND FREE ENERGY PREDICTED BY IDOCK:   -0.67 KCAL/MOL
REMARK 927      BINDING AFFINITY PREDICTED BY RF-SCORE:    0.00 PKD
ROOT
ATOM      1  C   ALA A   1     -10.863  11.861  67.002  1.00  0.00    -0.303 C  
ATOM      2  C   ALA A   1     -10.795  10.937  65.798  1.00  0.00    -0.120 C  
ATOM      3  CA  ALA A   1     -10.072   9.712  66.379  1.00  0.00    -0.247 C  
ATOM      4  N   ALA A   1     -10.413   9.716  67.828  1.00  0.00    -0.240 N  
ATOM      5  C   ALA A   1      -8.569   9.816  66.113  1.00  0.00    -0.127 C  
ATOM      6  C   ALA A   1     -11.237  10.891  68.128  1.00  0.00    -0.301 C  
ATOM      7  O   ALA A   1      -7.854  10.227  67.183  1.00  0.00    -0.108 OA 
ATOM      8  C   ALA A   1     -10.492   8.566  68.624  1.00  0.00    -0.169 C  
ATOM      9  OXT ALA A   1      -8.065   9.595  65.021  1.00  0.00    -0.116 OA 
ATOM     10  C   ALA A   1     -11.834  13.024  66.924  1.00  0.00    -0.442 C  
ATOM     11  O   ALA A   1     -11.028   8.592  69.734  1.00  0.00    -0.216 OA 
ATOM     12  C   ALA A   1     -11.096  11.622  69.464  1.00  0.00    -0.230 C  
ATOM     13  C   ALA A   1     -11.841  13.773  68.260  1.00  0.00    -0.413 C  
ATOM     14  C   ALA A   1     -12.033  12.846  69.469  1.00  0.00    -0.346 C  
ENDROOT
BRANCH   8  15
ATOM     15  CA  ALA A   1      -9.904   7.233  68.039  1.00  0.00    -0.145 C  
ATOM     16  CB  ALA A   1     -10.891   6.628  67.036  1.00  0.00    -0.467 C  
BRANCH  15  17
ATOM     17  N   ALA A   1      -9.584   6.299  69.136  1.00  0.00    -0.135 NA 
ATOM     18  H   ALA A   1     -10.383   5.696  69.327  1.00  0.00     0.000 HD 
BRANCH  17  19
HETATM   19  C   UNK A   0      -8.363   5.480  68.937  1.00  0.00    -0.102 C  
BRANCH  19  20
HETATM   20  C   UNK A   0      -8.566   4.368  67.887  1.00  0.00    -0.110 C  
BRANCH  20  21
HETATM   21  C   UNK A   0      -9.244   3.109  68.451  1.00  0.00    -0.235 C  
BRANCH  21  22
HETATM   22  C   UNK A   0      -8.726   2.785  69.831  1.00  0.00    -0.127 A  
HETATM   23  C   UNK A   0      -9.532   2.973  70.960  1.00  0.00    -0.228 A  
HETATM   24  C   UNK A   0      -7.440   2.249  69.995  1.00  0.00    -0.043 A  
HETATM   25  C   UNK A   0      -9.057   2.647  72.230  1.00  0.00    -0.130 A  
HETATM   26  C   UNK A   0      -6.966   1.925  71.267  1.00  0.00    -0.031 A  
HETATM   27  C   UNK A   0      -7.773   2.124  72.385  1.00  0.00    -0.048 A  
ENDBRANCH  21  22
ENDBRANCH  20  21
ENDBRANCH  19  20
BRANCH  19  28
HETATM   28  C   UNK A   0      -7.210   6.397  68.479  1.00  0.00    -0.085 C  
HETATM   29  O   UNK A   0      -7.078   7.573  68.781  1.00  0.00    -0.075 OA 
BRANCH  28  30
HETATM   30  O   UNK A   0      -6.394   5.722  67.610  1.00  0.00    -0.035 OA 
BRANCH  30  31
HETATM   31  C   UNK A   0      -5.835   6.521  66.554  1.00  0.00    -0.018 C  
HETATM   32  C   UNK A   0      -6.788   6.476  65.371  1.00  0.00    -0.048 C  
ENDBRANCH  30  31
ENDBRANCH  28  30
ENDBRANCH  19  28
ENDBRANCH  17  19
ENDBRANCH  15  17
ENDBRANCH   8  15
TORSDOF 9
ENDMDL
MODEL      243
REMARK 921   NORMALIZED FREE ENERGY PREDICTED BY IDOCK:   -2.65 KCAL/MOL
REMARK 922        TOTAL FREE ENERGY PREDICTED BY IDOCK:   -5.99 KCAL/MOL
REMARK 923 INTER-LIGAND FREE ENERGY PREDICTED BY IDOCK:   -6.10 KCAL/MOL
REMARK 924 INTRA-LIGAND FREE ENERGY PREDICTED BY IDOCK:    0.11 KCAL/MOL
REMARK 927      BINDING AFFINITY PREDICTED BY RF-SCORE:    0.00 PKD
ROOT
ATOM      1  C   ALA A   1     -11.011  13.061  65.590  1.00  0.00    -0.296 C  
ATOM      2  C   ALA A   1     -11.489  11.676  65.191  1.00  0.00    -0.180 C  
ATOM      3  CA  ALA A   1     -10.162  10.925  64.997  1.00  0.00    -0.303 C  
ATOM      4  N   ALA A   1      -9.197  11.610  65.901  1.00  0.00    -0.219 N  
ATOM      5  C   ALA A   1      -9.746  10.968  63.526  1.00  0.00    -0.337 C  
ATOM      6  C   ALA A   1      -9.867  12.738  66.557  1.00  0.00    -0.258 C  
ATOM      7  O   ALA A   1      -8.790  11.884  63.257  1.00  0.00     0.121 OA 
ATOM      8  C   ALA A   1      -8.096  10.986  66.499  1.00  0.00    -0.161 C  
ATOM      9  OXT ALA A   1     -10.264  10.275  62.662  1.00  0.00     0.178 OA 
ATOM     10  C   ALA A   1     -12.032  13.986  66.224  1.00  0.00    -0.454 C  
ATOM     11  O   ALA A   1      -7.490  11.517  67.432  1.00  0.00    -0.111 OA 
ATOM     12  C   ALA A   1      -9.106  14.029  66.857  1.00  0.00    -0.262 C  
ATOM     13  C   ALA A   1     -11.344  15.286  66.653  1.00  0.00    -0.170 C  
ATOM     14  C   ALA A   1     -10.076  15.050  67.485  1.00  0.00    -0.228 C  
ENDROOT
BRANCH   8  15
ATOM     15  CA  ALA A   1      -7.680   9.571  65.962  1.00  0.00    -0.100 C  
ATOM     16  CB  ALA A   1      -6.951   9.719  64.623  1.00  0.00    -0.124 C  
BRANCH  15  17
ATOM     17  N   ALA A   1      -8.869   8.703  65.857  1.00  0.00    -0.174 NA 
ATOM     18  H   ALA A   1      -8.933   8.309  64.918  1.00  0.00     0.000 HD 
BRANCH  17  19
HETATM   19  C   UNK A   0      -8.958   7.623  66.870  1.00  0.00    -0.138 C  
BRANCH  19  20
HETATM   20  C   UNK A   0     -10.415   7.195  67.147  1.00  0.00    -0.389 C  
BRANCH  20  21
HETATM   21  C   UNK A   0     -10.583   6.410  68.459  1.00  0.00    -0.302 C  
BRANCH  21  22
HETATM   22  C   UNK A   0     -10.373   7.303  69.657  1.00  0.00    -0.227 A  
HETATM   23  C   UNK A   0     -11.452   7.681  70.465  1.00  0.00    -0.236 A  
HETATM   24  C   UNK A   0      -9.082   7.731  70.001  1.00  0.00    -0.150 A  
HETATM   25  C   UNK A   0     -11.248   8.486  71.586  1.00  0.00    -0.361 A  
HETATM   26  C   UNK A   0      -8.881   8.537  71.122  1.00  0.00    -0.223 A  
HETATM   27  C   UNK A   0      -9.962   8.915  71.914  1.00  0.00    -0.384 A  
ENDBRANCH  21  22
ENDBRANCH  20  21
ENDBRANCH  19  20
BRANCH  19  28
HETATM   28  C   UNK A   0      -8.163   6.397  66.372  1.00  0.00    -0.115 C  
HETATM   29  O   UNK A   0      -6.998   6.151  66.645  1.00  0.00    -0.064 OA 
BRANCH  28  30
HETATM   30  O   UNK A   0      -8.929   5.665  65.505  1.00  0.00    -0.158 OA 
BRANCH  30  31
HETATM   31  C   UNK A   0      -8.537   4.290  65.357  1.00  0.00    -0.120 C  
HETATM   32  C   UNK A   0      -9.399   3.450  66.284  1.00  0.00    -0.157 C  
ENDBRANCH  30  31
ENDBRANCH  28  30
ENDBRANCH  19  28
ENDBRANCH  17  19
ENDBRANCH  15  17
ENDBRANCH   8  15
TORSDOF 9
ENDMDL
MODEL      244
REMARK 921   NORMALIZED FREE ENERGY PREDICTED BY IDOCK:   -2.61 KCAL/MOL
REMARK 922        TOTAL FREE ENERGY PREDICTED BY IDOCK:   -5.92 KCAL/MOL
REMARK 923 INTER-LIGAND FREE ENERGY PREDICTED BY IDOCK:   -4.69 KCAL/MOL
REMARK 924 INTRA-LIGAND FREE ENERGY PREDICTED BY IDOCK:   -1.24 KCAL/MOL
REMARK 927      BINDING AFFINITY PREDICTED BY RF-SCORE:    0.00 PKD
ROOT
ATOM      1  C   ALA A   1     -12.009   8.154  71.105  1.00  0.00    -0.296 C  
ATOM      2  C   ALA A   1     -11.016   7.016  71.274  1.00  0.00    -0.270 C  
ATOM      3  CA  ALA A   1     -10.057   7.254  70.098  1.00  0.00    -0.189 C  
ATOM      4  N   ALA A   1     -10.119   8.720  69.842  1.00  0.00    -0.186 N  
ATOM      5  C   ALA A   1     -10.486   6.413  68.894  1.00  0.00    -0.223 C  
ATOM      6  C   ALA A   1     -11.091   9.329  70.755  1.00  0.00    -0.285 C  
ATOM      7  O   ALA A   1     -11.155   7.113  67.951  1.00  0.00    -0.118 OA 
ATOM      8  C   ALA A   1      -9.064   9.474  69.312  1.00  0.00    -0.161 C  
ATOM      9  OXT ALA A   1     -10.287   5.209  68.812  1.00  0.00    -0.166 OA 
ATOM     10  C   ALA A   1     -12.897   8.474  72.292  1.00  0.00    -0.404 C  
ATOM     11  O   ALA A   1      -9.070  10.705  69.365  1.00  0.00    -0.152 OA 
ATOM     12  C   ALA A   1     -11.958  10.503  70.301  1.00  0.00    -0.411 C  
ATOM     13  C   ALA A   1     -13.748   9.708  71.972  1.00  0.00    -0.396 C  
ATOM     14  C   ALA A   1     -12.922  10.888  71.441  1.00  0.00    -0.527 C  
ENDROOT
BRANCH   8  15
ATOM     15  CA  ALA A   1      -7.858   8.695  68.678  1.00  0.00    -0.107 C  
ATOM     16  CB  ALA A   1      -6.548   9.423  68.995  1.00  0.00    -0.046 C  
BRANCH  15  17
ATOM     17  N   ALA A   1      -8.069   8.536  67.225  1.00  0.00    -0.104 NA 
ATOM     18  H   ALA A   1      -7.758   9.372  66.732  1.00  0.00     0.000 HD 
BRANCH  17  19
HETATM   19  C   UNK A   0      -7.451   7.330  66.622  1.00  0.00    -0.088 C  
BRANCH  19  20
HETATM   20  C   UNK A   0      -7.252   6.195  67.649  1.00  0.00    -0.079 C  
BRANCH  20  21
HETATM   21  C   UNK A   0      -5.779   5.795  67.842  1.00  0.00    -0.012 C  
BRANCH  21  22
HETATM   22  C   UNK A   0      -5.648   4.317  68.113  1.00  0.00    -0.017 A  
HETATM   23  C   UNK A   0      -5.846   3.382  67.089  1.00  0.00    -0.023 A  
HETATM   24  C   UNK A   0      -5.283   3.862  69.388  1.00  0.00    -0.008 A  
HETATM   25  C   UNK A   0      -5.698   2.018  67.339  1.00  0.00    -0.019 A  
HETATM   26  C   UNK A   0      -5.137   2.496  69.636  1.00  0.00    -0.004 A  
HETATM   27  C   UNK A   0      -5.345   1.574  68.613  1.00  0.00    -0.013 A  
ENDBRANCH  21  22
ENDBRANCH  20  21
ENDBRANCH  19  20
BRANCH  19  28
HETATM   28  C   UNK A   0      -8.353   6.818  65.479  1.00  0.00    -0.142 C  
HETATM   29  O   UNK A   0      -9.478   6.364  65.616  1.00  0.00     0.101 OA 
BRANCH  28  30
HETATM   30  O   UNK A   0      -7.674   6.869  64.291  1.00  0.00    -0.102 OA 
BRANCH  30  31
HETATM   31  C   UNK A   0      -7.821   8.095  63.557  1.00  0.00    -0.152 C  
HETATM   32  C   UNK A   0      -6.550   8.323  62.756  1.00  0.00    -0.087 C  
ENDBRANCH  30  31
ENDBRANCH  28  30
ENDBRANCH  19  28
ENDBRANCH  17  19
ENDBRANCH  15  17
ENDBRANCH   8  15
TORSDOF 9
ENDMDL
MODEL      245
REMARK 921   NORMALIZED FREE ENERGY PREDICTED BY IDOCK:   -2.59 KCAL/MOL
REMARK 922        TOTAL FREE ENERGY PREDICTED BY IDOCK:   -5.91 KCAL/MOL
REMARK 923 INTER-LIGAND FREE ENERGY PREDICTED BY IDOCK:   -4.54 KCAL/MOL
REMARK 924 INTRA-LIGAND FREE ENERGY PREDICTED BY IDOCK:   -1.37 KCAL/MOL
REMARK 927      BINDING AFFINITY PREDICTED BY RF-SCORE:    0.00 PKD
ROOT
ATOM      1  C   ALA A   1     -11.044  12.274  67.571  1.00  0.00    -0.326 C  
ATOM      2  C   ALA A   1     -10.007  12.127  68.671  1.00  0.00    -0.137 C  
ATOM      3  CA  ALA A   1      -9.361  10.777  68.322  1.00  0.00    -0.161 C  
ATOM      4  N   ALA A   1      -9.524  10.643  66.848  1.00  0.00    -0.163 N  
ATOM      5  C   ALA A   1     -10.039   9.654  69.109  1.00  0.00    -0.189 C  
ATOM      6  C   ALA A   1     -10.269  11.799  66.337  1.00  0.00    -0.215 C  
ATOM      7  O   ALA A   1     -10.933   8.945  68.384  1.00  0.00    -0.046 OA 
ATOM      8  C   ALA A   1      -8.648   9.933  66.018  1.00  0.00    -0.136 C  
ATOM      9  OXT ALA A   1      -9.830   9.446  70.295  1.00  0.00    -0.209 OA 
ATOM     10  C   ALA A   1     -11.633  13.655  67.360  1.00  0.00    -0.389 C  
ATOM     11  O   ALA A   1      -8.677  10.070  64.793  1.00  0.00    -0.160 OA 
ATOM     12  C   ALA A   1     -11.253  11.642  65.178  1.00  0.00    -0.262 C  
ATOM     13  C   ALA A   1     -12.571  13.630  66.149  1.00  0.00    -0.391 C  
ATOM     14  C   ALA A   1     -11.929  13.000  64.904  1.00  0.00    -0.441 C  
ENDROOT
BRANCH   8  15
ATOM     15  CA  ALA A   1      -7.605   8.981  66.704  1.00  0.00    -0.089 C  
ATOM     16  CB  ALA A   1      -6.312   8.954  65.883  1.00  0.00    -0.056 C  
BRANCH  15  17
ATOM     17  N   ALA A   1      -8.186   7.635  66.872  1.00  0.00    -0.118 NA 
ATOM     18  H   ALA A   1      -9.065   7.567  66.360  1.00  0.00     0.000 HD 
BRANCH  17  19
HETATM   19  C   UNK A   0      -7.294   6.508  66.506  1.00  0.00    -0.078 C  
BRANCH  19  20
HETATM   20  C   UNK A   0      -6.790   5.732  67.741  1.00  0.00    -0.060 C  
BRANCH  20  21
HETATM   21  C   UNK A   0      -5.779   6.521  68.589  1.00  0.00    -0.017 C  
BRANCH  21  22
HETATM   22  C   UNK A   0      -6.397   6.974  69.889  1.00  0.00    -0.038 A  
HETATM   23  C   UNK A   0      -5.690   7.807  70.766  1.00  0.00    -0.030 A  
HETATM   24  C   UNK A   0      -7.708   6.598  70.217  1.00  0.00    -0.098 A  
HETATM   25  C   UNK A   0      -6.276   8.242  71.954  1.00  0.00    -0.052 A  
HETATM   26  C   UNK A   0      -8.292   7.034  71.407  1.00  0.00    -0.113 A  
HETATM   27  C   UNK A   0      -7.577   7.856  72.276  1.00  0.00    -0.116 A  
ENDBRANCH  21  22
ENDBRANCH  20  21
ENDBRANCH  19  20
BRANCH  19  28
HETATM   28  C   UNK A   0      -8.061   5.537  65.584  1.00  0.00    -0.118 C  
HETATM   29  O   UNK A   0      -7.997   5.521  64.364  1.00  0.00    -0.106 OA 
BRANCH  28  30
HETATM   30  O   UNK A   0      -8.894   4.746  66.329  1.00  0.00    -0.113 OA 
BRANCH  30  31
HETATM   31  C   UNK A   0     -10.218   5.271  66.525  1.00  0.00    -0.253 C  
HETATM   32  C   UNK A   0     -10.642   4.964  67.952  1.00  0.00     0.144 C  
ENDBRANCH  30  31
ENDBRANCH  28  30
ENDBRANCH  19  28
ENDBRANCH  17  19
ENDBRANCH  15  17
ENDBRANCH   8  15
TORSDOF 9
ENDMDL
MODEL      246
REMARK 921   NORMALIZED FREE ENERGY PREDICTED BY IDOCK:   -2.56 KCAL/MOL
REMARK 922        TOTAL FREE ENERGY PREDICTED BY IDOCK:   -5.85 KCAL/MOL
REMARK 923 INTER-LIGAND FREE ENERGY PREDICTED BY IDOCK:   -5.16 KCAL/MOL
REMARK 924 INTRA-LIGAND FREE ENERGY PREDICTED BY IDOCK:   -0.70 KCAL/MOL
REMARK 927      BINDING AFFINITY PREDICTED BY RF-SCORE:    0.00 PKD
ROOT
ATOM      1  C   ALA A   1     -10.260  11.517  67.154  1.00  0.00    -0.233 C  
ATOM      2  C   ALA A   1     -11.243  10.538  67.773  1.00  0.00    -0.344 C  
ATOM      3  CA  ALA A   1     -10.303   9.520  68.437  1.00  0.00    -0.206 C  
ATOM      4  N   ALA A   1      -9.066  10.287  68.752  1.00  0.00    -0.151 N  
ATOM      5  C   ALA A   1     -10.057   8.342  67.492  1.00  0.00    -0.225 C  
ATOM      6  C   ALA A   1      -9.213  11.662  68.264  1.00  0.00    -0.187 C  
ATOM      7  O   ALA A   1      -8.870   8.397  66.850  1.00  0.00    -0.135 OA 
ATOM      8  C   ALA A   1      -8.206   9.995  69.817  1.00  0.00    -0.178 C  
ATOM      9  OXT ALA A   1     -10.878   7.456  67.298  1.00  0.00    -0.301 OA 
ATOM     10  C   ALA A   1     -10.808  12.865  66.726  1.00  0.00    -0.288 C  
ATOM     11  O   ALA A   1      -7.354  10.804  70.191  1.00  0.00    -0.119 OA 
ATOM     12  C   ALA A   1      -8.013  12.422  67.700  1.00  0.00    -0.164 C  
ATOM     13  C   ALA A   1      -9.659  13.747  66.229  1.00  0.00    -0.265 C  
ATOM     14  C   ALA A   1      -8.479  13.807  67.210  1.00  0.00    -0.204 C  
ENDROOT
BRANCH   8  15
ATOM     15  CA  ALA A   1      -8.384   8.613  70.540  1.00  0.00    -0.140 C  
ATOM     16  CB  ALA A   1      -9.504   8.714  71.580  1.00  0.00    -0.320 C  
BRANCH  15  17
ATOM     17  N   ALA A   1      -7.104   8.189  71.140  1.00  0.00    -0.054 NA 
ATOM     18  H   ALA A   1      -6.683   8.965  71.650  1.00  0.00     0.000 HD 
BRANCH  17  19
HETATM   19  C   UNK A   0      -7.176   6.989  72.009  1.00  0.00    -0.081 C  
BRANCH  19  20
HETATM   20  C   UNK A   0      -6.021   6.000  71.743  1.00  0.00    -0.035 C  
BRANCH  20  21
HETATM   21  C   UNK A   0      -6.478   4.689  71.082  1.00  0.00    -0.023 C  
BRANCH  21  22
HETATM   22  C   UNK A   0      -7.598   4.048  71.862  1.00  0.00    -0.066 A  
HETATM   23  C   UNK A   0      -8.916   4.096  71.392  1.00  0.00    -0.165 A  
HETATM   24  C   UNK A   0      -7.325   3.357  73.052  1.00  0.00    -0.051 A  
HETATM   25  C   UNK A   0      -9.944   3.479  72.105  1.00  0.00    -0.234 A  
HETATM   26  C   UNK A   0      -8.355   2.741  73.764  1.00  0.00    -0.072 A  
HETATM   27  C   UNK A   0      -9.665   2.802  73.292  1.00  0.00    -0.149 A  
ENDBRANCH  21  22
ENDBRANCH  20  21
ENDBRANCH  19  20
BRANCH  19  28
HETATM   28  C   UNK A   0      -7.126   7.432  73.486  1.00  0.00    -0.073 C  
HETATM   29  O   UNK A   0      -6.347   8.248  73.954  1.00  0.00    -0.104 OA 
BRANCH  28  30
HETATM   30  O   UNK A   0      -8.030   6.711  74.220  1.00  0.00    -0.107 OA 
BRANCH  30  31
HETATM   31  C   UNK A   0      -9.390   7.167  74.129  1.00  0.00    -0.242 C  
HETATM   32  C   UNK A   0     -10.301   6.031  74.563  1.00  0.00    -0.241 C  
ENDBRANCH  30  31
ENDBRANCH  28  30
ENDBRANCH  19  28
ENDBRANCH  17  19
ENDBRANCH  15  17
ENDBRANCH   8  15
TORSDOF 9
ENDMDL
MODEL      247
REMARK 921   NORMALIZED FREE ENERGY PREDICTED BY IDOCK:   -2.55 KCAL/MOL
REMARK 922        TOTAL FREE ENERGY PREDICTED BY IDOCK:   -5.84 KCAL/MOL
REMARK 923 INTER-LIGAND FREE ENERGY PREDICTED BY IDOCK:   -5.27 KCAL/MOL
REMARK 924 INTRA-LIGAND FREE ENERGY PREDICTED BY IDOCK:   -0.58 KCAL/MOL
REMARK 927      BINDING AFFINITY PREDICTED BY RF-SCORE:    0.00 PKD
ROOT
ATOM      1  C   ALA A   1      -8.933   3.666  70.727  1.00  0.00    -0.157 C  
ATOM      2  C   ALA A   1      -9.390   4.571  71.858  1.00  0.00    -0.189 C  
ATOM      3  CA  ALA A   1      -9.216   5.967  71.240  1.00  0.00    -0.143 C  
ATOM      4  N   ALA A   1      -9.376   5.761  69.774  1.00  0.00    -0.145 N  
ATOM      5  C   ALA A   1      -7.850   6.541  71.623  1.00  0.00    -0.100 C  
ATOM      6  C   ALA A   1      -9.575   4.333  69.505  1.00  0.00    -0.204 C  
ATOM      7  O   ALA A   1      -6.925   6.445  70.643  1.00  0.00    -0.061 OA 
ATOM      8  C   ALA A   1      -9.865   6.730  68.890  1.00  0.00    -0.145 C  
ATOM      9  OXT ALA A   1      -7.602   7.000  72.729  1.00  0.00    -0.084 OA 
ATOM     10  C   ALA A   1      -9.308   2.200  70.823  1.00  0.00    -0.201 C  
ATOM     11  O   ALA A   1     -10.223   6.431  67.749  1.00  0.00    -0.134 OA 
ATOM     12  C   ALA A   1      -9.001   3.689  68.244  1.00  0.00    -0.173 C  
ATOM     13  C   ALA A   1      -8.857   1.475  69.550  1.00  0.00    -0.119 C  
ATOM     14  C   ALA A   1      -9.311   2.179  68.263  1.00  0.00    -0.260 C  
ENDROOT
BRANCH   8  15
ATOM     15  CA  ALA A   1      -9.973   8.206  69.413  1.00  0.00    -0.188 C  
ATOM     16  CB  ALA A   1     -11.088   8.304  70.458  1.00  0.00    -0.259 C  
BRANCH  15  17
ATOM     17  N   ALA A   1     -10.188   9.127  68.280  1.00  0.00    -0.198 NA 
ATOM     18  H   ALA A   1     -11.099   8.952  67.855  1.00  0.00     0.000 HD 
BRANCH  17  19
HETATM   19  C   UNK A   0     -10.043  10.569  68.597  1.00  0.00    -0.180 C  
BRANCH  19  20
HETATM   20  C   UNK A   0      -9.409  11.366  67.437  1.00  0.00    -0.171 C  
BRANCH  20  21
HETATM   21  C   UNK A   0      -9.413  10.607  66.100  1.00  0.00    -0.218 C  
BRANCH  21  22
HETATM   22  C   UNK A   0      -8.019  10.496  65.534  1.00  0.00    -0.145 A  
HETATM   23  C   UNK A   0      -7.803  10.538  64.150  1.00  0.00     0.028 A  
HETATM   24  C   UNK A   0      -6.914  10.393  66.391  1.00  0.00    -0.114 A  
HETATM   25  C   UNK A   0      -6.509  10.461  63.634  1.00  0.00    -0.045 A  
HETATM   26  C   UNK A   0      -5.621  10.315  65.873  1.00  0.00    -0.081 A  
HETATM   27  C   UNK A   0      -5.418  10.349  64.495  1.00  0.00    -0.142 A  
ENDBRANCH  21  22
ENDBRANCH  20  21
ENDBRANCH  19  20
BRANCH  19  28
HETATM   28  C   UNK A   0     -11.434  11.160  68.908  1.00  0.00    -0.295 C  
HETATM   29  O   UNK A   0     -12.405  11.110  68.169  1.00  0.00    -0.469 OA 
BRANCH  28  30
HETATM   30  O   UNK A   0     -11.401  11.827  70.103  1.00  0.00    -0.157 OA 
BRANCH  30  31
HETATM   31  C   UNK A   0     -12.502  12.721  70.332  1.00  0.00    -0.156 C  
HETATM   32  C   UNK A   0     -11.940  14.055  70.797  1.00  0.00    -0.364 C  
ENDBRANCH  30  31
ENDBRANCH  28  30
ENDBRANCH  19  28
ENDBRANCH  17  19
ENDBRANCH  15  17
ENDBRANCH   8  15
TORSDOF 9
ENDMDL
MODEL      248
REMARK 921   NORMALIZED FREE ENERGY PREDICTED BY IDOCK:   -2.52 KCAL/MOL
REMARK 922        TOTAL FREE ENERGY PREDICTED BY IDOCK:   -5.79 KCAL/MOL
REMARK 923 INTER-LIGAND FREE ENERGY PREDICTED BY IDOCK:   -5.90 KCAL/MOL
REMARK 924 INTRA-LIGAND FREE ENERGY PREDICTED BY IDOCK:    0.12 KCAL/MOL
REMARK 927      BINDING AFFINITY PREDICTED BY RF-SCORE:    0.00 PKD
ROOT
ATOM      1  C   ALA A   1      -6.605  16.916  67.984  1.00  0.00    -0.151 C  
ATOM      2  C   ALA A   1      -5.467  16.025  68.450  1.00  0.00    -0.104 C  
ATOM      3  CA  ALA A   1      -6.201  14.716  68.780  1.00  0.00    -0.087 C  
ATOM      4  N   ALA A   1      -7.397  14.713  67.893  1.00  0.00    -0.136 N  
ATOM      5  C   ALA A   1      -6.554  14.675  70.268  1.00  0.00    -0.107 C  
ATOM      6  C   ALA A   1      -7.428  15.956  67.116  1.00  0.00    -0.227 C  
ATOM      7  O   ALA A   1      -7.844  14.982  70.530  1.00  0.00     0.550 OA 
ATOM      8  C   ALA A   1      -8.020  13.554  67.412  1.00  0.00    -0.156 C  
ATOM      9  OXT ALA A   1      -5.735  14.437  71.145  1.00  0.00    -0.172 OA 
ATOM     10  C   ALA A   1      -6.229  18.172  67.222  1.00  0.00    -0.182 C  
ATOM     11  O   ALA A   1      -8.830  13.603  66.484  1.00  0.00    -0.127 OA 
ATOM     12  C   ALA A   1      -8.756  16.630  66.774  1.00  0.00    -0.256 C  
ATOM     13  C   ALA A   1      -7.502  18.879  66.746  1.00  0.00    -0.235 C  
ATOM     14  C   ALA A   1      -8.474  17.942  66.015  1.00  0.00    -0.054 C  
ENDROOT
BRANCH   8  15
ATOM     15  CA  ALA A   1      -7.625  12.186  68.073  1.00  0.00    -0.123 C  
ATOM     16  CB  ALA A   1      -7.331  11.151  66.983  1.00  0.00    -0.128 C  
BRANCH  15  17
ATOM     17  N   ALA A   1      -8.695  11.743  68.989  1.00  0.00    -0.366 NA 
ATOM     18  H   ALA A   1      -8.852  12.447  69.710  1.00  0.00     0.000 HD 
BRANCH  17  19
HETATM   19  C   UNK A   0      -9.979  11.384  68.339  1.00  0.00    -0.204 C  
BRANCH  19  20
HETATM   20  C   UNK A   0      -9.781  10.481  67.104  1.00  0.00    -0.202 C  
BRANCH  20  21
HETATM   21  C   UNK A   0     -11.049  10.329  66.247  1.00  0.00     0.283 C  
BRANCH  21  22
HETATM   22  C   UNK A   0     -11.416  11.634  65.584  1.00  0.00    -0.171 A  
HETATM   23  C   UNK A   0     -12.121  12.619  66.287  1.00  0.00    -0.358 A  
HETATM   24  C   UNK A   0     -11.018  11.893  64.265  1.00  0.00    -0.411 A  
HETATM   25  C   UNK A   0     -12.436  13.834  65.677  1.00  0.00    -0.541 A  
HETATM   26  C   UNK A   0     -11.334  13.109  63.656  1.00  0.00    -0.307 A  
HETATM   27  C   UNK A   0     -12.044  14.079  64.361  1.00  0.00    -0.486 A  
ENDBRANCH  21  22
ENDBRANCH  20  21
ENDBRANCH  19  20
BRANCH  19  28
HETATM   28  C   UNK A   0     -10.873  10.648  69.359  1.00  0.00    -0.246 C  
HETATM   29  O   UNK A   0     -10.589   9.604  69.924  1.00  0.00    -0.215 OA 
BRANCH  28  30
HETATM   30  O   UNK A   0     -12.075  11.294  69.478  1.00  0.00    -0.321 OA 
BRANCH  30  31
HETATM   31  C   UNK A   0     -12.775  11.055  70.709  1.00  0.00    -0.323 C  
HETATM   32  C   UNK A   0     -12.746  12.336  71.526  1.00  0.00    -0.339 C  
ENDBRANCH  30  31
ENDBRANCH  28  30
ENDBRANCH  19  28
ENDBRANCH  17  19
ENDBRANCH  15  17
ENDBRANCH   8  15
TORSDOF 9
ENDMDL
MODEL      249
REMARK 921   NORMALIZED FREE ENERGY PREDICTED BY IDOCK:   -2.47 KCAL/MOL
REMARK 922        TOTAL FREE ENERGY PREDICTED BY IDOCK:   -5.72 KCAL/MOL
REMARK 923 INTER-LIGAND FREE ENERGY PREDICTED BY IDOCK:   -5.81 KCAL/MOL
REMARK 924 INTRA-LIGAND FREE ENERGY PREDICTED BY IDOCK:    0.10 KCAL/MOL
REMARK 927      BINDING AFFINITY PREDICTED BY RF-SCORE:    0.00 PKD
ROOT
ATOM      1  C   ALA A   1     -10.918   8.072  70.328  1.00  0.00    -0.242 C  
ATOM      2  C   ALA A   1     -11.033   8.172  68.817  1.00  0.00     0.144 C  
ATOM      3  CA  ALA A   1     -10.206   9.432  68.518  1.00  0.00    -0.199 C  
ATOM      4  N   ALA A   1      -9.207   9.506  69.619  1.00  0.00    -0.185 N  
ATOM      5  C   ALA A   1     -11.123  10.655  68.451  1.00  0.00    -0.272 C  
ATOM      6  C   ALA A   1      -9.440   8.405  70.559  1.00  0.00    -0.169 C  
ATOM      7  O   ALA A   1     -11.104  11.411  69.571  1.00  0.00    -0.245 OA 
ATOM      8  C   ALA A   1      -7.937  10.084  69.495  1.00  0.00    -0.158 C  
ATOM      9  OXT ALA A   1     -11.844  10.902  67.495  1.00  0.00    -0.524 OA 
ATOM     10  C   ALA A   1     -11.295   6.746  70.961  1.00  0.00    -0.356 C  
ATOM     11  O   ALA A   1      -7.062   9.888  70.340  1.00  0.00    -0.135 OA 
ATOM     12  C   ALA A   1      -9.216   8.599  72.058  1.00  0.00    -0.338 C  
ATOM     13  C   ALA A   1     -11.015   6.802  72.466  1.00  0.00    -0.281 C  
ATOM     14  C   ALA A   1      -9.601   7.301  72.797  1.00  0.00    -0.198 C  
ENDROOT
BRANCH   8  15
ATOM     15  CA  ALA A   1      -7.657  10.962  68.224  1.00  0.00    -0.100 C  
ATOM     16  CB  ALA A   1      -8.193  12.379  68.446  1.00  0.00    -0.144 C  
BRANCH  15  17
ATOM     17  N   ALA A   1      -8.246  10.323  67.031  1.00  0.00    -0.121 NA 
ATOM     18  H   ALA A   1      -8.585  11.035  66.385  1.00  0.00     0.000 HD 
BRANCH  17  19
HETATM   19  C   UNK A   0      -7.361   9.370  66.319  1.00  0.00    -0.096 C  
BRANCH  19  20
HETATM   20  C   UNK A   0      -7.754   7.899  66.574  1.00  0.00    -0.097 C  
BRANCH  20  21
HETATM   21  C   UNK A   0      -7.231   6.931  65.500  1.00  0.00    -0.077 C  
BRANCH  21  22
HETATM   22  C   UNK A   0      -8.253   5.867  65.183  1.00  0.00    -0.141 A  
HETATM   23  C   UNK A   0      -9.343   5.647  66.035  1.00  0.00    -0.150 A  
HETATM   24  C   UNK A   0      -8.146   5.112  64.006  1.00  0.00    -0.119 A  
HETATM   25  C   UNK A   0     -10.299   4.680  65.724  1.00  0.00    -0.295 A  
HETATM   26  C   UNK A   0      -9.103   4.144  63.698  1.00  0.00    -0.136 A  
HETATM   27  C   UNK A   0     -10.179   3.927  64.556  1.00  0.00    -0.231 A  
ENDBRANCH  21  22
ENDBRANCH  20  21
ENDBRANCH  19  20
BRANCH  19  28
HETATM   28  C   UNK A   0      -7.432   9.651  64.803  1.00  0.00    -0.122 C  
HETATM   29  O   UNK A   0      -6.481   9.926  64.089  1.00  0.00    -0.114 OA 
BRANCH  28  30
HETATM   30  O   UNK A   0      -8.737   9.631  64.386  1.00  0.00    -0.178 OA 
BRANCH  30  31
HETATM   31  C   UNK A   0      -9.231  10.879  63.872  1.00  0.00    -0.203 C  
HETATM   32  C   UNK A   0      -9.160  10.827  62.355  1.00  0.00    -0.332 C  
ENDBRANCH  30  31
ENDBRANCH  28  30
ENDBRANCH  19  28
ENDBRANCH  17  19
ENDBRANCH  15  17
ENDBRANCH   8  15
TORSDOF 9
ENDMDL
MODEL      250
REMARK 921   NORMALIZED FREE ENERGY PREDICTED BY IDOCK:   -2.39 KCAL/MOL
REMARK 922        TOTAL FREE ENERGY PREDICTED BY IDOCK:   -5.60 KCAL/MOL
REMARK 923 INTER-LIGAND FREE ENERGY PREDICTED BY IDOCK:   -4.89 KCAL/MOL
REMARK 924 INTRA-LIGAND FREE ENERGY PREDICTED BY IDOCK:   -0.71 KCAL/MOL
REMARK 927      BINDING AFFINITY PREDICTED BY RF-SCORE:    0.00 PKD
ROOT
ATOM      1  C   ALA A   1     -10.584  17.998  68.217  1.00  0.00    -0.299 C  
ATOM      2  C   ALA A   1     -10.186  17.682  69.648  1.00  0.00     0.231 C  
ATOM      3  CA  ALA A   1      -9.804  16.196  69.552  1.00  0.00    -0.198 C  
ATOM      4  N   ALA A   1      -9.351  16.006  68.146  1.00  0.00    -0.198 N  
ATOM      5  C   ALA A   1     -11.005  15.323  69.922  1.00  0.00    -0.290 C  
ATOM      6  C   ALA A   1      -9.500  17.269  67.415  1.00  0.00    -0.245 C  
ATOM      7  O   ALA A   1     -11.648  14.801  68.854  1.00  0.00    -0.283 OA 
ATOM      8  C   ALA A   1      -8.408  15.053  67.743  1.00  0.00    -0.150 C  
ATOM      9  OXT ALA A   1     -11.380  15.152  71.073  1.00  0.00    -0.312 OA 
ATOM     10  C   ALA A   1     -10.670  19.463  67.833  1.00  0.00    -0.427 C  
ATOM     11  O   ALA A   1      -7.878  15.110  66.631  1.00  0.00    -0.066 OA 
ATOM     12  C   ALA A   1      -9.901  17.275  65.941  1.00  0.00    -0.148 C  
ATOM     13  C   ALA A   1     -10.977  19.580  66.337  1.00  0.00    -0.317 C  
ATOM     14  C   ALA A   1     -10.041  18.734  65.462  1.00  0.00     0.386 C  
ENDROOT
BRANCH   8  15
ATOM     15  CA  ALA A   1      -8.024  13.928  68.768  1.00  0.00    -0.059 C  
ATOM     16  CB  ALA A   1      -6.647  14.225  69.370  1.00  0.00    -0.132 C  
BRANCH  15  17
ATOM     17  N   ALA A   1      -8.072  12.608  68.108  1.00  0.00    -0.156 NA 
ATOM     18  H   ALA A   1      -7.230  12.465  67.551  1.00  0.00     0.000 HD 
BRANCH  17  19
HETATM   19  C   UNK A   0      -8.286  11.453  69.014  1.00  0.00     0.020 C  
BRANCH  19  20
HETATM   20  C   UNK A   0      -9.167  10.360  68.374  1.00  0.00    -0.147 C  
BRANCH  20  21
HETATM   21  C   UNK A   0      -8.360   9.210  67.750  1.00  0.00    -0.117 C  
BRANCH  21  22
HETATM   22  C   UNK A   0      -9.120   7.909  67.825  1.00  0.00    -0.138 A  
HETATM   23  C   UNK A   0     -10.312   7.735  67.111  1.00  0.00    -0.389 A  
HETATM   24  C   UNK A   0      -8.617   6.839  68.579  1.00  0.00    -0.125 A  
HETATM   25  C   UNK A   0     -10.997   6.521  67.163  1.00  0.00    -0.480 A  
HETATM   26  C   UNK A   0      -9.304   5.626  68.631  1.00  0.00    -0.142 A  
HETATM   27  C   UNK A   0     -10.494   5.466  67.924  1.00  0.00    -0.202 A  
ENDBRANCH  21  22
ENDBRANCH  20  21
ENDBRANCH  19  20
BRANCH  19  28
HETATM   28  C   UNK A   0      -6.918  10.841  69.382  1.00  0.00    -0.116 C  
HETATM   29  O   UNK A   0      -5.917  10.873  68.683  1.00  0.00    -0.043 OA 
BRANCH  28  30
HETATM   30  O   UNK A   0      -7.011  10.177  70.576  1.00  0.00    -0.244 OA 
BRANCH  30  31
HETATM   31  C   UNK A   0      -5.795   9.556  71.024  1.00  0.00    -0.069 C  
HETATM   32  C   UNK A   0      -6.098   8.104  71.354  1.00  0.00    -0.036 C  
ENDBRANCH  30  31
ENDBRANCH  28  30
ENDBRANCH  19  28
ENDBRANCH  17  19
ENDBRANCH  15  17
ENDBRANCH   8  15
TORSDOF 9
ENDMDL
MODEL      251
REMARK 921   NORMALIZED FREE ENERGY PREDICTED BY IDOCK:   -2.37 KCAL/MOL
REMARK 922        TOTAL FREE ENERGY PREDICTED BY IDOCK:   -5.56 KCAL/MOL
REMARK 923 INTER-LIGAND FREE ENERGY PREDICTED BY IDOCK:   -6.81 KCAL/MOL
REMARK 924 INTRA-LIGAND FREE ENERGY PREDICTED BY IDOCK:    1.25 KCAL/MOL
REMARK 927      BINDING AFFINITY PREDICTED BY RF-SCORE:    0.00 PKD
ROOT
ATOM      1  C   ALA A   1      -7.665   8.217  70.277  1.00  0.00    -0.085 C  
ATOM      2  C   ALA A   1      -6.867   8.768  69.108  1.00  0.00    -0.055 C  
ATOM      3  CA  ALA A   1      -7.973   9.348  68.213  1.00  0.00    -0.094 C  
ATOM      4  N   ALA A   1      -9.074   9.710  69.149  1.00  0.00    -0.146 N  
ATOM      5  C   ALA A   1      -8.390   8.316  67.162  1.00  0.00    -0.123 C  
ATOM      6  C   ALA A   1      -8.695   9.326  70.513  1.00  0.00    -0.236 C  
ATOM      7  O   ALA A   1      -9.540   7.672  67.459  1.00  0.00    -0.136 OA 
ATOM      8  C   ALA A   1      -9.991  10.744  68.925  1.00  0.00    -0.202 C  
ATOM      9  OXT ALA A   1      -7.722   8.062  66.171  1.00  0.00    -0.084 OA 
ATOM     10  C   ALA A   1      -6.896   7.893  71.544  1.00  0.00    -0.052 C  
ATOM     11  O   ALA A   1     -10.706  11.171  69.834  1.00  0.00    -0.114 OA 
ATOM     12  C   ALA A   1      -9.745   8.813  71.498  1.00  0.00    -0.361 C  
ATOM     13  C   ALA A   1      -7.876   7.455  72.637  1.00  0.00    -0.110 C  
ATOM     14  C   ALA A   1      -9.049   8.429  72.819  1.00  0.00    -0.299 C  
ENDROOT
BRANCH   8  15
ATOM     15  CA  ALA A   1     -10.054  11.364  67.484  1.00  0.00    -0.183 C  
ATOM     16  CB  ALA A   1      -8.756  12.121  67.190  1.00  0.00    -0.190 C  
BRANCH  15  17
ATOM     17  N   ALA A   1     -11.244  12.230  67.361  1.00  0.00    -0.281 NA 
ATOM     18  H   ALA A   1     -11.313  12.847  68.169  1.00  0.00     0.000 HD 
BRANCH  17  19
HETATM   19  C   UNK A   0     -11.327  13.020  66.108  1.00  0.00    -0.314 C  
BRANCH  19  20
HETATM   20  C   UNK A   0      -9.945  13.517  65.634  1.00  0.00    -0.252 C  
BRANCH  20  21
HETATM   21  C   UNK A   0      -9.786  15.045  65.708  1.00  0.00    -0.386 C  
BRANCH  21  22
HETATM   22  C   UNK A   0      -9.867  15.531  67.134  1.00  0.00    -0.236 A  
HETATM   23  C   UNK A   0     -11.101  15.864  67.708  1.00  0.00    -0.288 A  
HETATM   24  C   UNK A   0      -8.708  15.614  67.919  1.00  0.00    -0.166 A  
HETATM   25  C   UNK A   0     -11.172  16.288  69.034  1.00  0.00    -0.326 A  
HETATM   26  C   UNK A   0      -8.781  16.040  69.246  1.00  0.00    -0.224 A  
HETATM   27  C   UNK A   0     -10.012  16.378  69.804  1.00  0.00     0.012 A  
ENDBRANCH  21  22
ENDBRANCH  20  21
ENDBRANCH  19  20
BRANCH  19  28
HETATM   28  C   UNK A   0     -11.950  12.145  65.000  1.00  0.00    -0.281 C  
HETATM   29  O   UNK A   0     -13.101  12.224  64.600  1.00  0.00    -0.770 OA 
BRANCH  28  30
HETATM   30  O   UNK A   0     -11.047  11.203  64.586  1.00  0.00    -0.231 OA 
BRANCH  30  31
HETATM   31  C   UNK A   0     -10.629  11.321  63.216  1.00  0.00    -0.255 C  
HETATM   32  C   UNK A   0      -9.397  10.452  63.020  1.00  0.00    -0.344 C  
ENDBRANCH  30  31
ENDBRANCH  28  30
ENDBRANCH  19  28
ENDBRANCH  17  19
ENDBRANCH  15  17
ENDBRANCH   8  15
TORSDOF 9
ENDMDL
MODEL      252
REMARK 921   NORMALIZED FREE ENERGY PREDICTED BY IDOCK:   -2.34 KCAL/MOL
REMARK 922        TOTAL FREE ENERGY PREDICTED BY IDOCK:   -5.52 KCAL/MOL
REMARK 923 INTER-LIGAND FREE ENERGY PREDICTED BY IDOCK:   -4.98 KCAL/MOL
REMARK 924 INTRA-LIGAND FREE ENERGY PREDICTED BY IDOCK:   -0.54 KCAL/MOL
REMARK 927      BINDING AFFINITY PREDICTED BY RF-SCORE:    0.00 PKD
ROOT
ATOM      1  C   ALA A   1     -12.311   9.230  71.498  1.00  0.00    -0.439 C  
ATOM      2  C   ALA A   1     -11.793   8.089  72.357  1.00  0.00    -0.429 C  
ATOM      3  CA  ALA A   1     -10.615   7.569  71.519  1.00  0.00    -0.212 C  
ATOM      4  N   ALA A   1     -10.147   8.749  70.741  1.00  0.00    -0.197 N  
ATOM      5  C   ALA A   1     -11.075   6.408  70.635  1.00  0.00    -0.317 C  
ATOM      6  C   ALA A   1     -11.011   9.897  71.035  1.00  0.00    -0.290 C  
ATOM      7  O   ALA A   1     -11.298   6.758  69.349  1.00  0.00    -0.257 OA 
ATOM      8  C   ALA A   1      -8.827   8.939  70.313  1.00  0.00    -0.175 C  
ATOM      9  OXT ALA A   1     -11.270   5.278  71.060  1.00  0.00     0.029 OA 
ATOM     10  C   ALA A   1     -13.241  10.226  72.164  1.00  0.00    -0.443 C  
ATOM     11  O   ALA A   1      -8.438  10.037  69.910  1.00  0.00    -0.189 OA 
ATOM     12  C   ALA A   1     -11.350  10.917  69.948  1.00  0.00    -0.381 C  
ATOM     13  C   ALA A   1     -13.569  11.353  71.180  1.00  0.00     0.680 C  
ATOM     14  C   ALA A   1     -12.321  11.965  70.527  1.00  0.00    -0.372 C  
ENDROOT
BRANCH   8  15
ATOM     15  CA  ALA A   1      -7.850   7.713  70.396  1.00  0.00    -0.092 C  
ATOM     16  CB  ALA A   1      -6.540   8.140  71.066  1.00  0.00    -0.038 C  
BRANCH  15  17
ATOM     17  N   ALA A   1      -7.629   7.153  69.048  1.00  0.00    -0.098 NA 
ATOM     18  H   ALA A   1      -6.742   7.487  68.671  1.00  0.00     0.000 HD 
BRANCH  17  19
HETATM   19  C   UNK A   0      -7.698   5.674  68.957  1.00  0.00    -0.089 C  
BRANCH  19  20
HETATM   20  C   UNK A   0      -8.546   5.053  70.086  1.00  0.00    -0.111 C  
BRANCH  20  21
HETATM   21  C   UNK A   0      -7.766   4.056  70.960  1.00  0.00    -0.055 C  
BRANCH  21  22
HETATM   22  C   UNK A   0      -8.699   3.249  71.828  1.00  0.00    -0.119 A  
HETATM   23  C   UNK A   0      -9.503   2.245  71.274  1.00  0.00    -0.213 A  
HETATM   24  C   UNK A   0      -8.741   3.467  73.213  1.00  0.00    -0.081 A  
HETATM   25  C   UNK A   0     -10.345   1.485  72.086  1.00  0.00    -0.224 A  
HETATM   26  C   UNK A   0      -9.585   2.706  74.023  1.00  0.00    -0.119 A  
HETATM   27  C   UNK A   0     -10.387   1.716  73.460  1.00  0.00    -0.169 A  
ENDBRANCH  21  22
ENDBRANCH  20  21
ENDBRANCH  19  20
BRANCH  19  28
HETATM   28  C   UNK A   0      -8.311   5.281  67.596  1.00  0.00    -0.106 C  
HETATM   29  O   UNK A   0      -9.061   5.978  66.931  1.00  0.00    -0.120 OA 
BRANCH  28  30
HETATM   30  O   UNK A   0      -7.961   3.996  67.280  1.00  0.00    -0.091 OA 
BRANCH  30  31
HETATM   31  C   UNK A   0      -9.034   3.174  66.793  1.00  0.00    -0.158 C  
HETATM   32  C   UNK A   0      -8.427   1.953  66.121  1.00  0.00    -0.106 C  
ENDBRANCH  30  31
ENDBRANCH  28  30
ENDBRANCH  19  28
ENDBRANCH  17  19
ENDBRANCH  15  17
ENDBRANCH   8  15
TORSDOF 9
ENDMDL
MODEL      253
REMARK 921   NORMALIZED FREE ENERGY PREDICTED BY IDOCK:   -2.32 KCAL/MOL
REMARK 922        TOTAL FREE ENERGY PREDICTED BY IDOCK:   -5.49 KCAL/MOL
REMARK 923 INTER-LIGAND FREE ENERGY PREDICTED BY IDOCK:   -4.35 KCAL/MOL
REMARK 924 INTRA-LIGAND FREE ENERGY PREDICTED BY IDOCK:   -1.14 KCAL/MOL
REMARK 927      BINDING AFFINITY PREDICTED BY RF-SCORE:    0.00 PKD
ROOT
ATOM      1  C   ALA A   1     -12.142   8.215  71.219  1.00  0.00    -0.313 C  
ATOM      2  C   ALA A   1     -10.970   7.248  71.213  1.00  0.00    -0.264 C  
ATOM      3  CA  ALA A   1     -10.332   7.531  69.844  1.00  0.00    -0.223 C  
ATOM      4  N   ALA A   1     -10.676   8.948  69.544  1.00  0.00    -0.224 N  
ATOM      5  C   ALA A   1     -10.869   6.546  68.803  1.00  0.00    -0.299 C  
ATOM      6  C   ALA A   1     -11.516   9.480  70.622  1.00  0.00    -0.297 C  
ATOM      7  O   ALA A   1     -11.825   7.068  68.002  1.00  0.00     0.814 OA 
ATOM      8  C   ALA A   1      -9.890   9.803  68.762  1.00  0.00    -0.169 C  
ATOM      9  OXT ALA A   1     -10.506   5.381  68.732  1.00  0.00    -0.197 OA 
ATOM     10  C   ALA A   1     -12.796   8.495  72.558  1.00  0.00    -0.310 C  
ATOM     11  O   ALA A   1     -10.078  11.021  68.761  1.00  0.00    -0.190 OA 
ATOM     12  C   ALA A   1     -12.633  10.478  70.321  1.00  0.00    -0.306 C  
ATOM     13  C   ALA A   1     -13.879   9.565  72.381  1.00  0.00    -0.355 C  
ATOM     14  C   ALA A   1     -13.380  10.808  71.629  1.00  0.00    -0.390 C  
ENDROOT
BRANCH   8  15
ATOM     15  CA  ALA A   1      -8.739   9.159  67.910  1.00  0.00    -0.128 C  
ATOM     16  CB  ALA A   1      -7.425   9.209  68.695  1.00  0.00    -0.080 C  
BRANCH  15  17
ATOM     17  N   ALA A   1      -8.635   9.843  66.605  1.00  0.00    -0.124 NA 
ATOM     18  H   ALA A   1      -7.863  10.508  66.619  1.00  0.00     0.000 HD 
BRANCH  17  19
HETATM   19  C   UNK A   0      -8.516   8.948  65.428  1.00  0.00    -0.160 C  
BRANCH  19  20
HETATM   20  C   UNK A   0      -9.333   7.649  65.591  1.00  0.00     0.209 C  
BRANCH  20  21
HETATM   21  C   UNK A   0      -8.463   6.382  65.640  1.00  0.00    -0.147 C  
BRANCH  21  22
HETATM   22  C   UNK A   0      -8.999   5.318  64.714  1.00  0.00    -0.014 A  
HETATM   23  C   UNK A   0      -8.853   5.438  63.326  1.00  0.00     0.149 A  
HETATM   24  C   UNK A   0      -9.615   4.172  65.237  1.00  0.00    -0.186 A  
HETATM   25  C   UNK A   0      -9.329   4.439  62.477  1.00  0.00    -0.123 A  
HETATM   26  C   UNK A   0     -10.091   3.174  64.385  1.00  0.00    -0.085 A  
HETATM   27  C   UNK A   0      -9.949   3.307  63.005  1.00  0.00    -0.123 A  
ENDBRANCH  21  22
ENDBRANCH  20  21
ENDBRANCH  19  20
BRANCH  19  28
HETATM   28  C   UNK A   0      -9.013   9.697  64.174  1.00  0.00    -0.229 C  
HETATM   29  O   UNK A   0     -10.096  10.251  64.063  1.00  0.00    -0.263 OA 
BRANCH  28  30
HETATM   30  O   UNK A   0      -8.094   9.580  63.165  1.00  0.00    -0.132 OA 
BRANCH  30  31
HETATM   31  C   UNK A   0      -6.944   8.777  63.480  1.00  0.00    -0.089 C  
HETATM   32  C   UNK A   0      -5.754   9.705  63.656  1.00  0.00    -0.094 C  
ENDBRANCH  30  31
ENDBRANCH  28  30
ENDBRANCH  19  28
ENDBRANCH  17  19
ENDBRANCH  15  17
ENDBRANCH   8  15
TORSDOF 9
ENDMDL
MODEL      254
REMARK 921   NORMALIZED FREE ENERGY PREDICTED BY IDOCK:   -2.32 KCAL/MOL
REMARK 922        TOTAL FREE ENERGY PREDICTED BY IDOCK:   -5.48 KCAL/MOL
REMARK 923 INTER-LIGAND FREE ENERGY PREDICTED BY IDOCK:   -4.48 KCAL/MOL
REMARK 924 INTRA-LIGAND FREE ENERGY PREDICTED BY IDOCK:   -1.00 KCAL/MOL
REMARK 927      BINDING AFFINITY PREDICTED BY RF-SCORE:    0.00 PKD
ROOT
ATOM      1  C   ALA A   1     -11.044  12.274  67.571  1.00  0.00    -0.326 C  
ATOM      2  C   ALA A   1     -10.004  12.136  68.670  1.00  0.00    -0.137 C  
ATOM      3  CA  ALA A   1      -9.349  10.790  68.321  1.00  0.00    -0.161 C  
ATOM      4  N   ALA A   1      -9.514  10.653  66.847  1.00  0.00    -0.163 N  
ATOM      5  C   ALA A   1     -10.018   9.663  69.110  1.00  0.00    -0.185 C  
ATOM      6  C   ALA A   1     -10.268  11.803  66.336  1.00  0.00    -0.215 C  
ATOM      7  O   ALA A   1     -10.908   8.947  68.389  1.00  0.00    -0.125 OA 
ATOM      8  C   ALA A   1      -8.634   9.948  66.017  1.00  0.00    -0.136 C  
ATOM      9  OXT ALA A   1      -9.806   9.458  70.297  1.00  0.00    -0.209 OA 
ATOM     10  C   ALA A   1     -11.643  13.651  67.359  1.00  0.00    -0.389 C  
ATOM     11  O   ALA A   1      -8.666  10.083  64.792  1.00  0.00    -0.160 OA 
ATOM     12  C   ALA A   1     -11.253  11.637  65.179  1.00  0.00    -0.262 C  
ATOM     13  C   ALA A   1     -12.583  13.617  66.150  1.00  0.00    -0.391 C  
ATOM     14  C   ALA A   1     -11.938  12.990  64.904  1.00  0.00    -0.441 C  
ENDROOT
BRANCH   8  15
ATOM     15  CA  ALA A   1      -7.583   9.005  66.702  1.00  0.00    -0.089 C  
ATOM     16  CB  ALA A   1      -6.243   9.734  66.835  1.00  0.00    -0.064 C  
BRANCH  15  17
ATOM     17  N   ALA A   1      -7.461   7.748  65.937  1.00  0.00    -0.079 NA 
ATOM     18  H   ALA A   1      -7.950   7.831  65.047  1.00  0.00     0.000 HD 
BRANCH  17  19
HETATM   19  C   UNK A   0      -6.073   7.274  65.713  1.00  0.00    -0.037 C  
BRANCH  19  20
HETATM   20  C   UNK A   0      -5.733   6.028  66.559  1.00  0.00    -0.013 C  
BRANCH  20  21
HETATM   21  C   UNK A   0      -5.604   6.325  68.062  1.00  0.00    -0.008 C  
BRANCH  21  22
HETATM   22  C   UNK A   0      -6.779   5.769  68.829  1.00  0.00    -0.064 A  
HETATM   23  C   UNK A   0      -6.634   5.359  70.160  1.00  0.00    -0.039 A  
HETATM   24  C   UNK A   0      -8.044   5.695  68.227  1.00  0.00    -0.103 A  
HETATM   25  C   UNK A   0      -7.730   4.869  70.871  1.00  0.00    -0.078 A  
HETATM   26  C   UNK A   0      -9.138   5.203  68.941  1.00  0.00    -0.135 A  
HETATM   27  C   UNK A   0      -8.981   4.790  70.262  1.00  0.00    -0.147 A  
ENDBRANCH  21  22
ENDBRANCH  20  21
ENDBRANCH  19  20
BRANCH  19  28
HETATM   28  C   UNK A   0      -5.893   6.929  64.220  1.00  0.00    -0.032 C  
HETATM   29  O   UNK A   0      -5.401   7.665  63.378  1.00  0.00    -0.037 OA 
BRANCH  28  30
HETATM   30  O   UNK A   0      -6.444   5.704  63.954  1.00  0.00    -0.031 OA 
BRANCH  30  31
HETATM   31  C   UNK A   0      -7.827   5.731  63.564  1.00  0.00    -0.106 C  
HETATM   32  C   UNK A   0      -8.526   4.549  64.217  1.00  0.00    -0.120 C  
ENDBRANCH  30  31
ENDBRANCH  28  30
ENDBRANCH  19  28
ENDBRANCH  17  19
ENDBRANCH  15  17
ENDBRANCH   8  15
TORSDOF 9
ENDMDL
MODEL      255
REMARK 921   NORMALIZED FREE ENERGY PREDICTED BY IDOCK:   -2.25 KCAL/MOL
REMARK 922        TOTAL FREE ENERGY PREDICTED BY IDOCK:   -5.38 KCAL/MOL
REMARK 923 INTER-LIGAND FREE ENERGY PREDICTED BY IDOCK:   -4.34 KCAL/MOL
REMARK 924 INTRA-LIGAND FREE ENERGY PREDICTED BY IDOCK:   -1.03 KCAL/MOL
REMARK 927      BINDING AFFINITY PREDICTED BY RF-SCORE:    0.00 PKD
ROOT
ATOM      1  C   ALA A   1      -7.358  17.861  68.723  1.00  0.00    -0.271 C  
ATOM      2  C   ALA A   1      -8.832  17.975  68.372  1.00  0.00    -0.300 C  
ATOM      3  CA  ALA A   1      -9.078  16.669  67.602  1.00  0.00    -0.207 C  
ATOM      4  N   ALA A   1      -8.080  15.707  68.146  1.00  0.00    -0.134 N  
ATOM      5  C   ALA A   1      -8.925  16.912  66.099  1.00  0.00    -0.236 C  
ATOM      6  C   ALA A   1      -7.242  16.390  69.137  1.00  0.00    -0.222 C  
ATOM      7  O   ALA A   1      -7.739  16.498  65.599  1.00  0.00     0.303 OA 
ATOM      8  C   ALA A   1      -8.268  14.321  68.202  1.00  0.00    -0.146 C  
ATOM      9  OXT ALA A   1      -9.774  17.472  65.420  1.00  0.00    -0.266 OA 
ATOM     10  C   ALA A   1      -6.834  18.787  69.803  1.00  0.00     0.039 C  
ATOM     11  O   ALA A   1      -7.539  13.605  68.891  1.00  0.00    -0.101 OA 
ATOM     12  C   ALA A   1      -5.760  16.042  69.278  1.00  0.00    -0.119 C  
ATOM     13  C   ALA A   1      -5.366  18.454  70.091  1.00  0.00    -0.236 C  
ATOM     14  C   ALA A   1      -5.127  16.958  70.344  1.00  0.00    -0.219 C  
ENDROOT
BRANCH   8  15
ATOM     15  CA  ALA A   1      -9.461  13.713  67.382  1.00  0.00    -0.225 C  
ATOM     16  CB  ALA A   1     -10.146  12.615  68.202  1.00  0.00    -0.231 C  
BRANCH  15  17
ATOM     17  N   ALA A   1      -8.976  13.216  66.080  1.00  0.00    -0.378 NA 
ATOM     18  H   ALA A   1      -7.962  13.312  66.024  1.00  0.00     0.000 HD 
BRANCH  17  19
HETATM   19  C   UNK A   0      -9.375  11.828  65.741  1.00  0.00    -0.185 C  
BRANCH  19  20
HETATM   20  C   UNK A   0      -9.385  11.573  64.220  1.00  0.00    -0.020 C  
BRANCH  20  21
HETATM   21  C   UNK A   0     -10.781  11.704  63.586  1.00  0.00    -0.500 C  
BRANCH  21  22
HETATM   22  C   UNK A   0     -11.531  12.879  64.162  1.00  0.00    -0.449 A  
HETATM   23  C   UNK A   0     -12.434  12.704  65.218  1.00  0.00    -0.483 A  
HETATM   24  C   UNK A   0     -11.300  14.173  63.672  1.00  0.00     0.634 A  
HETATM   25  C   UNK A   0     -13.105  13.798  65.763  1.00  0.00    -0.122 A  
HETATM   26  C   UNK A   0     -11.974  15.266  64.218  1.00  0.00    -0.236 A  
HETATM   27  C   UNK A   0     -12.877  15.080  65.262  1.00  0.00     0.453 A  
ENDBRANCH  21  22
ENDBRANCH  20  21
ENDBRANCH  19  20
BRANCH  19  28
HETATM   28  C   UNK A   0      -8.390  10.844  66.407  1.00  0.00    -0.162 C  
HETATM   29  O   UNK A   0      -7.211  11.066  66.631  1.00  0.00    -0.129 OA 
BRANCH  28  30
HETATM   30  O   UNK A   0      -9.012   9.645  66.635  1.00  0.00    -0.142 OA 
BRANCH  30  31
HETATM   31  C   UNK A   0      -8.192   8.484  66.426  1.00  0.00    -0.108 C  
HETATM   32  C   UNK A   0      -8.967   7.507  65.558  1.00  0.00     0.056 C  
ENDBRANCH  30  31
ENDBRANCH  28  30
ENDBRANCH  19  28
ENDBRANCH  17  19
ENDBRANCH  15  17
ENDBRANCH   8  15
TORSDOF 9
ENDMDL
MODEL      256
REMARK 921   NORMALIZED FREE ENERGY PREDICTED BY IDOCK:   -2.25 KCAL/MOL
REMARK 922        TOTAL FREE ENERGY PREDICTED BY IDOCK:   -5.37 KCAL/MOL
REMARK 923 INTER-LIGAND FREE ENERGY PREDICTED BY IDOCK:   -5.68 KCAL/MOL
REMARK 924 INTRA-LIGAND FREE ENERGY PREDICTED BY IDOCK:    0.30 KCAL/MOL
REMARK 927      BINDING AFFINITY PREDICTED BY RF-SCORE:    0.00 PKD
ROOT
ATOM      1  C   ALA A   1     -10.216  11.486  67.482  1.00  0.00    -0.207 C  
ATOM      2  C   ALA A   1      -9.270  12.292  66.608  1.00  0.00    -0.208 C  
ATOM      3  CA  ALA A   1      -9.837  13.713  66.751  1.00  0.00    -0.271 C  
ATOM      4  N   ALA A   1     -10.492  13.733  68.088  1.00  0.00    -0.243 N  
ATOM      5  C   ALA A   1     -10.803  14.009  65.602  1.00  0.00    -0.295 C  
ATOM      6  C   ALA A   1     -10.387  12.403  68.698  1.00  0.00    -0.182 C  
ATOM      7  O   ALA A   1     -12.105  13.900  65.944  1.00  0.00    -0.384 OA 
ATOM      8  C   ALA A   1     -10.625  14.876  68.885  1.00  0.00    -0.247 C  
ATOM      9  OXT ALA A   1     -10.433  14.271  64.466  1.00  0.00    -0.381 OA 
ATOM     10  C   ALA A   1      -9.762  10.098  67.890  1.00  0.00    -0.166 C  
ATOM     11  O   ALA A   1     -10.931  14.793  70.076  1.00  0.00    -0.227 OA 
ATOM     12  C   ALA A   1     -11.517  11.851  69.566  1.00  0.00    -0.357 C  
ATOM     13  C   ALA A   1     -10.791   9.488  68.848  1.00  0.00    -0.177 C  
ATOM     14  C   ALA A   1     -11.157  10.420  70.012  1.00  0.00    -0.379 C  
ENDROOT
BRANCH   8  15
ATOM     15  CA  ALA A   1     -10.337  16.268  68.218  1.00  0.00    -0.272 C  
ATOM     16  CB  ALA A   1     -11.616  16.804  67.568  1.00  0.00     0.587 C  
BRANCH  15  17
ATOM     17  N   ALA A   1      -9.231  16.142  67.249  1.00  0.00    -0.206 NA 
ATOM     18  H   ALA A   1      -9.594  16.175  66.296  1.00  0.00     0.000 HD 
BRANCH  17  19
HETATM   19  C   UNK A   0      -8.132  17.126  67.409  1.00  0.00    -0.177 C  
BRANCH  19  20
HETATM   20  C   UNK A   0      -6.858  16.716  66.640  1.00  0.00    -0.219 C  
BRANCH  20  21
HETATM   21  C   UNK A   0      -6.215  15.422  67.167  1.00  0.00     0.278 C  
BRANCH  21  22
HETATM   22  C   UNK A   0      -5.947  15.514  68.649  1.00  0.00    -0.097 A  
HETATM   23  C   UNK A   0      -6.198  14.422  69.490  1.00  0.00    -0.121 A  
HETATM   24  C   UNK A   0      -5.401  16.683  69.198  1.00  0.00    -0.133 A  
HETATM   25  C   UNK A   0      -5.924  14.503  70.855  1.00  0.00    -0.152 A  
HETATM   26  C   UNK A   0      -5.129  16.763  70.565  1.00  0.00    -0.224 A  
HETATM   27  C   UNK A   0      -5.391  15.674  71.394  1.00  0.00     0.051 A  
ENDBRANCH  21  22
ENDBRANCH  20  21
ENDBRANCH  19  20
BRANCH  19  28
HETATM   28  C   UNK A   0      -8.606  18.501  66.894  1.00  0.00    -0.278 C  
HETATM   29  O   UNK A   0      -8.627  18.849  65.723  1.00  0.00    -0.417 OA 
BRANCH  28  30
HETATM   30  O   UNK A   0      -8.924  19.311  67.951  1.00  0.00    -0.296 OA 
BRANCH  30  31
HETATM   31  C   UNK A   0      -8.336  18.932  69.207  1.00  0.00     0.107 C  
HETATM   32  C   UNK A   0      -6.969  19.586  69.306  1.00  0.00    -0.385 C  
ENDBRANCH  30  31
ENDBRANCH  28  30
ENDBRANCH  19  28
ENDBRANCH  17  19
ENDBRANCH  15  17
ENDBRANCH   8  15
TORSDOF 9
ENDMDL
MODEL      257
REMARK 921   NORMALIZED FREE ENERGY PREDICTED BY IDOCK:   -2.20 KCAL/MOL
REMARK 922        TOTAL FREE ENERGY PREDICTED BY IDOCK:   -5.30 KCAL/MOL
REMARK 923 INTER-LIGAND FREE ENERGY PREDICTED BY IDOCK:   -5.02 KCAL/MOL
REMARK 924 INTRA-LIGAND FREE ENERGY PREDICTED BY IDOCK:   -0.29 KCAL/MOL
REMARK 927      BINDING AFFINITY PREDICTED BY RF-SCORE:    0.00 PKD
ROOT
ATOM      1  C   ALA A   1     -10.576  14.625  67.169  1.00  0.00    -0.282 C  
ATOM      2  C   ALA A   1      -9.959  13.898  68.351  1.00  0.00    -0.233 C  
ATOM      3  CA  ALA A   1     -10.190  12.426  67.977  1.00  0.00    -0.219 C  
ATOM      4  N   ALA A   1     -10.227  12.410  66.488  1.00  0.00    -0.224 N  
ATOM      5  C   ALA A   1     -11.483  11.920  68.618  1.00  0.00    -0.294 C  
ATOM      6  C   ALA A   1     -10.089  13.781  65.986  1.00  0.00    -0.311 C  
ATOM      7  O   ALA A   1     -12.531  11.872  67.766  1.00  0.00    -0.076 OA 
ATOM      8  C   ALA A   1      -9.843  11.318  65.701  1.00  0.00    -0.234 C  
ATOM      9  OXT ALA A   1     -11.576  11.633  69.803  1.00  0.00    -0.294 OA 
ATOM     10  C   ALA A   1     -10.215  16.088  66.995  1.00  0.00    -0.282 C  
ATOM     11  O   ALA A   1      -9.643  11.442  64.491  1.00  0.00    -0.231 OA 
ATOM     12  C   ALA A   1     -10.835  14.231  64.730  1.00  0.00    -0.420 C  
ATOM     13  C   ALA A   1     -10.842  16.616  65.700  1.00  0.00    -0.142 C  
ATOM     14  C   ALA A   1     -10.550  15.726  64.483  1.00  0.00     0.234 C  
ENDROOT
BRANCH   8  15
ATOM     15  CA  ALA A   1      -9.643   9.936  66.419  1.00  0.00    -0.200 C  
ATOM     16  CB  ALA A   1     -11.005   9.284  66.674  1.00  0.00     0.298 C  
BRANCH  15  17
ATOM     17  N   ALA A   1      -8.872  10.122  67.664  1.00  0.00    -0.125 NA 
ATOM     18  H   ALA A   1      -9.245  10.911  68.191  1.00  0.00     0.000 HD 
BRANCH  17  19
HETATM   19  C   UNK A   0      -8.776   8.926  68.535  1.00  0.00    -0.134 C  
BRANCH  19  20
HETATM   20  C   UNK A   0      -7.731   7.911  68.028  1.00  0.00    -0.125 C  
BRANCH  20  21
HETATM   21  C   UNK A   0      -8.353   6.620  67.468  1.00  0.00    -0.121 C  
BRANCH  21  22
HETATM   22  C   UNK A   0      -8.199   5.477  68.440  1.00  0.00    -0.099 A  
HETATM   23  C   UNK A   0      -9.286   5.038  69.206  1.00  0.00    -0.178 A  
HETATM   24  C   UNK A   0      -6.971   4.809  68.557  1.00  0.00    -0.056 A  
HETATM   25  C   UNK A   0      -9.145   3.964  70.084  1.00  0.00    -0.191 A  
HETATM   26  C   UNK A   0      -6.832   3.735  69.437  1.00  0.00    -0.042 A  
HETATM   27  C   UNK A   0      -7.917   3.313  70.201  1.00  0.00    -0.053 A  
ENDBRANCH  21  22
ENDBRANCH  20  21
ENDBRANCH  19  20
BRANCH  19  28
HETATM   28  C   UNK A   0      -8.389   9.372  69.961  1.00  0.00    -0.180 C  
HETATM   29  O   UNK A   0      -7.262   9.666  70.329  1.00  0.00    -0.101 OA 
BRANCH  28  30
HETATM   30  O   UNK A   0      -9.482   9.308  70.783  1.00  0.00    -0.247 OA 
BRANCH  30  31
HETATM   31  C   UNK A   0      -9.962   7.981  71.057  1.00  0.00    -0.182 C  
HETATM   32  C   UNK A   0     -11.459   7.956  70.800  1.00  0.00    -0.273 C  
ENDBRANCH  30  31
ENDBRANCH  28  30
ENDBRANCH  19  28
ENDBRANCH  17  19
ENDBRANCH  15  17
ENDBRANCH   8  15
TORSDOF 9
ENDMDL
MODEL      258
REMARK 921   NORMALIZED FREE ENERGY PREDICTED BY IDOCK:   -2.08 KCAL/MOL
REMARK 922        TOTAL FREE ENERGY PREDICTED BY IDOCK:   -5.12 KCAL/MOL
REMARK 923 INTER-LIGAND FREE ENERGY PREDICTED BY IDOCK:   -6.23 KCAL/MOL
REMARK 924 INTRA-LIGAND FREE ENERGY PREDICTED BY IDOCK:    1.10 KCAL/MOL
REMARK 927      BINDING AFFINITY PREDICTED BY RF-SCORE:    0.00 PKD
ROOT
ATOM      1  C   ALA A   1     -10.415  15.431  67.607  1.00  0.00    -0.272 C  
ATOM      2  C   ALA A   1      -9.748  14.847  68.841  1.00  0.00    -0.223 C  
ATOM      3  CA  ALA A   1     -10.582  13.579  69.083  1.00  0.00    -0.024 C  
ATOM      4  N   ALA A   1     -11.092  13.192  67.739  1.00  0.00    -0.253 N  
ATOM      5  C   ALA A   1     -11.697  13.871  70.090  1.00  0.00    -0.244 C  
ATOM      6  C   ALA A   1     -10.652  14.182  66.751  1.00  0.00    -0.277 C  
ATOM      7  O   ALA A   1     -12.908  14.059  69.521  1.00  0.00     0.051 OA 
ATOM      8  C   ALA A   1     -11.381  11.877  67.353  1.00  0.00    -0.324 C  
ATOM      9  OXT ALA A   1     -11.504  13.974  71.293  1.00  0.00     0.172 OA 
ATOM     10  C   ALA A   1      -9.643  16.491  66.845  1.00  0.00    -0.253 C  
ATOM     11  O   ALA A   1     -11.544  11.580  66.168  1.00  0.00    -0.345 OA 
ATOM     12  C   ALA A   1     -11.551  14.564  65.576  1.00  0.00    -0.350 C  
ATOM     13  C   ALA A   1     -10.422  16.878  65.583  1.00  0.00    -0.252 C  
ATOM     14  C   ALA A   1     -10.858  15.666  64.749  1.00  0.00    -0.377 C  
ENDROOT
BRANCH   8  15
ATOM     15  CA  ALA A   1     -11.457  10.786  68.480  1.00  0.00    -0.292 C  
ATOM     16  CB  ALA A   1     -12.411  11.251  69.585  1.00  0.00    -0.262 C  
BRANCH  15  17
ATOM     17  N   ALA A   1     -10.104  10.500  68.996  1.00  0.00    -0.207 NA 
ATOM     18  H   ALA A   1      -9.912  11.075  69.815  1.00  0.00     0.000 HD 
BRANCH  17  19
HETATM   19  C   UNK A   0      -9.830   9.074  69.300  1.00  0.00    -0.179 C  
BRANCH  19  20
HETATM   20  C   UNK A   0      -9.113   8.352  68.139  1.00  0.00    -0.138 C  
BRANCH  20  21
HETATM   21  C   UNK A   0     -10.021   7.378  67.370  1.00  0.00    -0.239 C  
BRANCH  21  22
HETATM   22  C   UNK A   0      -9.407   6.002  67.300  1.00  0.00    -0.115 A  
HETATM   23  C   UNK A   0      -9.701   5.140  66.236  1.00  0.00    -0.188 A  
HETATM   24  C   UNK A   0      -8.496   5.584  68.282  1.00  0.00    -0.097 A  
HETATM   25  C   UNK A   0      -9.110   3.879  66.164  1.00  0.00    -0.146 A  
HETATM   26  C   UNK A   0      -7.907   4.321  68.208  1.00  0.00    -0.075 A  
HETATM   27  C   UNK A   0      -8.214   3.468  67.150  1.00  0.00    -0.091 A  
ENDBRANCH  21  22
ENDBRANCH  20  21
ENDBRANCH  19  20
BRANCH  19  28
HETATM   28  C   UNK A   0      -8.947   8.988  70.563  1.00  0.00    -0.213 C  
HETATM   29  O   UNK A   0      -8.096   9.802  70.888  1.00  0.00    -0.252 OA 
BRANCH  28  30
HETATM   30  O   UNK A   0      -9.198   7.818  71.228  1.00  0.00    -0.140 OA 
BRANCH  30  31
HETATM   31  C   UNK A   0      -9.582   7.970  72.605  1.00  0.00    -0.259 C  
HETATM   32  C   UNK A   0     -10.834   7.143  72.841  1.00  0.00    -0.362 C  
ENDBRANCH  30  31
ENDBRANCH  28  30
ENDBRANCH  19  28
ENDBRANCH  17  19
ENDBRANCH  15  17
ENDBRANCH   8  15
TORSDOF 9
ENDMDL
MODEL      259
REMARK 921   NORMALIZED FREE ENERGY PREDICTED BY IDOCK:   -2.01 KCAL/MOL
REMARK 922        TOTAL FREE ENERGY PREDICTED BY IDOCK:   -5.01 KCAL/MOL
REMARK 923 INTER-LIGAND FREE ENERGY PREDICTED BY IDOCK:   -5.51 KCAL/MOL
REMARK 924 INTRA-LIGAND FREE ENERGY PREDICTED BY IDOCK:    0.51 KCAL/MOL
REMARK 927      BINDING AFFINITY PREDICTED BY RF-SCORE:    0.00 PKD
ROOT
ATOM      1  C   ALA A   1      -8.180   3.514  68.205  1.00  0.00    -0.091 C  
ATOM      2  C   ALA A   1      -9.157   4.445  68.902  1.00  0.00    -0.175 C  
ATOM      3  CA  ALA A   1      -8.365   5.761  68.950  1.00  0.00    -0.101 C  
ATOM      4  N   ALA A   1      -7.445   5.699  67.780  1.00  0.00    -0.077 N  
ATOM      5  C   ALA A   1      -7.631   5.881  70.288  1.00  0.00    -0.094 C  
ATOM      6  C   ALA A   1      -7.618   4.413  67.097  1.00  0.00    -0.085 C  
ATOM      7  O   ALA A   1      -6.317   5.574  70.217  1.00  0.00    -0.028 OA 
ATOM      8  C   ALA A   1      -6.975   6.820  67.085  1.00  0.00    -0.074 C  
ATOM      9  OXT ALA A   1      -8.189   6.179  71.334  1.00  0.00    -0.120 OA 
ATOM     10  C   ALA A   1      -8.741   2.222  67.643  1.00  0.00    -0.139 C  
ATOM     11  O   ALA A   1      -6.440   6.708  65.981  1.00  0.00    -0.041 OA 
ATOM     12  C   ALA A   1      -6.426   3.703  66.456  1.00  0.00    -0.037 C  
ATOM     13  C   ALA A   1      -7.637   1.473  66.890  1.00  0.00    -0.060 C  
ATOM     14  C   ALA A   1      -6.895   2.355  65.875  1.00  0.00    -0.040 C  
ENDROOT
BRANCH   8  15
ATOM     15  CA  ALA A   1      -7.184   8.228  67.747  1.00  0.00    -0.088 C  
ATOM     16  CB  ALA A   1      -6.295   8.354  68.988  1.00  0.00    -0.044 C  
BRANCH  15  17
ATOM     17  N   ALA A   1      -8.612   8.429  68.063  1.00  0.00    -0.134 NA 
ATOM     18  H   ALA A   1      -8.838   7.993  68.956  1.00  0.00     0.000 HD 
BRANCH  17  19
HETATM   19  C   UNK A   0      -9.072   9.840  68.054  1.00  0.00    -0.125 C  
BRANCH  19  20
HETATM   20  C   UNK A   0      -9.130  10.448  69.471  1.00  0.00    -0.129 C  
BRANCH  20  21
HETATM   21  C   UNK A   0      -9.417   9.412  70.571  1.00  0.00    -0.327 C  
BRANCH  21  22
HETATM   22  C   UNK A   0     -10.836   9.528  71.071  1.00  0.00    -0.423 A  
HETATM   23  C   UNK A   0     -11.610  10.655  70.769  1.00  0.00    -0.388 A  
HETATM   24  C   UNK A   0     -11.412   8.485  71.810  1.00  0.00    -0.378 A  
HETATM   25  C   UNK A   0     -12.929  10.746  71.212  1.00  0.00    -0.502 A  
HETATM   26  C   UNK A   0     -12.732   8.578  72.253  1.00  0.00    -0.420 A  
HETATM   27  C   UNK A   0     -13.491   9.708  71.955  1.00  0.00    -0.514 A  
ENDBRANCH  21  22
ENDBRANCH  20  21
ENDBRANCH  19  20
BRANCH  19  28
HETATM   28  C   UNK A   0      -8.108  10.679  67.189  1.00  0.00    -0.121 C  
HETATM   29  O   UNK A   0      -7.067  11.185  67.577  1.00  0.00    -0.085 OA 
BRANCH  28  30
HETATM   30  O   UNK A   0      -8.633  10.847  65.935  1.00  0.00    -0.172 OA 
BRANCH  30  31
HETATM   31  C   UNK A   0     -10.020  11.221  65.901  1.00  0.00    -0.234 C  
HETATM   32  C   UNK A   0     -10.123  12.601  65.272  1.00  0.00    -0.271 C  
ENDBRANCH  30  31
ENDBRANCH  28  30
ENDBRANCH  19  28
ENDBRANCH  17  19
ENDBRANCH  15  17
ENDBRANCH   8  15
TORSDOF 9
ENDMDL
MODEL      260
REMARK 921   NORMALIZED FREE ENERGY PREDICTED BY IDOCK:   -1.99 KCAL/MOL
REMARK 922        TOTAL FREE ENERGY PREDICTED BY IDOCK:   -4.98 KCAL/MOL
REMARK 923 INTER-LIGAND FREE ENERGY PREDICTED BY IDOCK:   -4.55 KCAL/MOL
REMARK 924 INTRA-LIGAND FREE ENERGY PREDICTED BY IDOCK:   -0.43 KCAL/MOL
REMARK 927      BINDING AFFINITY PREDICTED BY RF-SCORE:    0.00 PKD
ROOT
ATOM      1  C   ALA A   1     -10.554  14.278  65.904  1.00  0.00    -0.306 C  
ATOM      2  C   ALA A   1      -9.177  14.889  65.708  1.00  0.00     0.006 C  
ATOM      3  CA  ALA A   1      -8.303  13.998  66.605  1.00  0.00     0.253 C  
ATOM      4  N   ALA A   1      -9.002  12.684  66.639  1.00  0.00    -0.199 N  
ATOM      5  C   ALA A   1      -8.152  14.636  67.988  1.00  0.00    -0.135 C  
ATOM      6  C   ALA A   1     -10.246  12.778  65.867  1.00  0.00    -0.287 C  
ATOM      7  O   ALA A   1      -8.952  14.090  68.930  1.00  0.00    -0.085 OA 
ATOM      8  C   ALA A   1      -8.359  11.452  66.812  1.00  0.00    -0.163 C  
ATOM      9  OXT ALA A   1      -7.413  15.585  68.211  1.00  0.00    -0.111 OA 
ATOM     10  C   ALA A   1     -11.622  14.652  64.895  1.00  0.00    -0.405 C  
ATOM     11  O   ALA A   1      -8.937  10.390  66.571  1.00  0.00    -0.143 OA 
ATOM     12  C   ALA A   1     -11.495  12.015  66.306  1.00  0.00    -0.408 C  
ATOM     13  C   ALA A   1     -12.901  13.862  65.191  1.00  0.00    -0.383 C  
ATOM     14  C   ALA A   1     -12.655  12.355  65.348  1.00  0.00    -0.001 C  
ENDROOT
BRANCH   8  15
ATOM     15  CA  ALA A   1      -6.864  11.471  67.291  1.00  0.00    -0.118 C  
ATOM     16  CB  ALA A   1      -5.939  11.695  66.092  1.00  0.00     0.328 C  
BRANCH  15  17
ATOM     17  N   ALA A   1      -6.550  10.221  68.011  1.00  0.00    -0.061 NA 
ATOM     18  H   ALA A   1      -5.541  10.114  68.103  1.00  0.00     0.000 HD 
BRANCH  17  19
HETATM   19  C   UNK A   0      -7.201  10.070  69.335  1.00  0.00    -0.087 C  
BRANCH  19  20
HETATM   20  C   UNK A   0      -7.985   8.747  69.459  1.00  0.00    -0.096 C  
BRANCH  20  21
HETATM   21  C   UNK A   0      -7.471   7.641  68.522  1.00  0.00    -0.104 C  
BRANCH  21  22
HETATM   22  C   UNK A   0      -8.609   6.802  67.996  1.00  0.00    -0.122 A  
HETATM   23  C   UNK A   0      -8.579   5.406  68.108  1.00  0.00    -0.096 A  
HETATM   24  C   UNK A   0      -9.734   7.414  67.425  1.00  0.00    -0.196 A  
HETATM   25  C   UNK A   0      -9.646   4.637  67.643  1.00  0.00    -0.200 A  
HETATM   26  C   UNK A   0     -10.799   6.642  66.959  1.00  0.00    -0.467 A  
HETATM   27  C   UNK A   0     -10.756   5.254  67.067  1.00  0.00    -0.172 A  
ENDBRANCH  21  22
ENDBRANCH  20  21
ENDBRANCH  19  20
BRANCH  19  28
HETATM   28  C   UNK A   0      -6.121  10.116  70.436  1.00  0.00    -0.102 C  
HETATM   29  O   UNK A   0      -5.427   9.174  70.786  1.00  0.00    -0.027 OA 
BRANCH  28  30
HETATM   30  O   UNK A   0      -6.110  11.351  71.027  1.00  0.00    -0.360 OA 
BRANCH  30  31
HETATM   31  C   UNK A   0      -6.134  12.463  70.117  1.00  0.00    -0.102 C  
HETATM   32  C   UNK A   0      -5.591  13.682  70.843  1.00  0.00    -0.200 C  
ENDBRANCH  30  31
ENDBRANCH  28  30
ENDBRANCH  19  28
ENDBRANCH  17  19
ENDBRANCH  15  17
ENDBRANCH   8  15
TORSDOF 9
ENDMDL
MODEL      261
REMARK 921   NORMALIZED FREE ENERGY PREDICTED BY IDOCK:   -1.82 KCAL/MOL
REMARK 922        TOTAL FREE ENERGY PREDICTED BY IDOCK:   -4.73 KCAL/MOL
REMARK 923 INTER-LIGAND FREE ENERGY PREDICTED BY IDOCK:   -6.01 KCAL/MOL
REMARK 924 INTRA-LIGAND FREE ENERGY PREDICTED BY IDOCK:    1.28 KCAL/MOL
REMARK 927      BINDING AFFINITY PREDICTED BY RF-SCORE:    0.00 PKD
ROOT
ATOM      1  C   ALA A   1      -8.474   4.479  67.626  1.00  0.00    -0.103 C  
ATOM      2  C   ALA A   1      -9.277   4.996  68.808  1.00  0.00    -0.160 C  
ATOM      3  CA  ALA A   1      -8.897   6.485  68.823  1.00  0.00    -0.125 C  
ATOM      4  N   ALA A   1      -8.559   6.810  67.410  1.00  0.00    -0.120 N  
ATOM      5  C   ALA A   1      -7.733   6.717  69.790  1.00  0.00    -0.113 C  
ATOM      6  C   ALA A   1      -8.667   5.596  66.595  1.00  0.00    -0.118 C  
ATOM      7  O   ALA A   1      -6.535   6.843  69.179  1.00  0.00    -0.040 OA 
ATOM      8  C   ALA A   1      -8.718   8.076  66.832  1.00  0.00    -0.130 C  
ATOM      9  OXT ALA A   1      -7.866   6.739  71.005  1.00  0.00    -0.099 OA 
ATOM     10  C   ALA A   1      -8.870   3.127  67.064  1.00  0.00    -0.155 C  
ATOM     11  O   ALA A   1      -8.677   8.229  65.609  1.00  0.00    -0.160 OA 
ATOM     12  C   ALA A   1      -7.709   5.351  65.430  1.00  0.00    -0.092 C  
ATOM     13  C   ALA A   1      -8.025   2.825  65.822  1.00  0.00    -0.082 C  
ATOM     14  C   ALA A   1      -8.018   3.976  64.805  1.00  0.00    -0.089 C  
ENDROOT
BRANCH   8  15
ATOM     15  CA  ALA A   1      -8.985   9.288  67.793  1.00  0.00    -0.126 C  
ATOM     16  CB  ALA A   1      -7.694   9.655  68.533  1.00  0.00    -0.081 C  
BRANCH  15  17
ATOM     17  N   ALA A   1     -10.086   8.963  68.721  1.00  0.00    -0.195 NA 
ATOM     18  H   ALA A   1      -9.744   8.957  69.681  1.00  0.00     0.000 HD 
BRANCH  17  19
HETATM   19  C   UNK A   0     -11.284   9.830  68.612  1.00  0.00    -0.015 C  
BRANCH  19  20
HETATM   20  C   UNK A   0     -11.851  10.225  69.992  1.00  0.00    -0.305 C  
BRANCH  20  21
HETATM   21  C   UNK A   0     -10.902   9.906  71.158  1.00  0.00    -0.226 C  
BRANCH  21  22
HETATM   22  C   UNK A   0     -11.087   8.487  71.637  1.00  0.00    -0.360 A  
HETATM   23  C   UNK A   0     -11.728   7.538  70.830  1.00  0.00    -0.281 A  
HETATM   24  C   UNK A   0     -10.580   8.089  72.882  1.00  0.00    -0.399 A  
HETATM   25  C   UNK A   0     -11.873   6.221  71.267  1.00  0.00    -0.247 A  
HETATM   26  C   UNK A   0     -10.728   6.771  73.318  1.00  0.00    -0.330 A  
HETATM   27  C   UNK A   0     -11.375   5.838  72.512  1.00  0.00    -0.358 A  
ENDBRANCH  21  22
ENDBRANCH  20  21
ENDBRANCH  19  20
BRANCH  19  28
HETATM   28  C   UNK A   0     -10.910  11.113  67.839  1.00  0.00    -0.235 C  
HETATM   29  O   UNK A   0      -9.931  11.809  68.056  1.00  0.00    -0.177 OA 
BRANCH  28  30
HETATM   30  O   UNK A   0     -11.886  11.407  66.924  1.00  0.00    -0.489 OA 
BRANCH  30  31
HETATM   31  C   UNK A   0     -12.127  12.809  66.720  1.00  0.00    -0.220 C  
HETATM   32  C   UNK A   0     -11.710  13.159  65.301  1.00  0.00    -0.375 C  
ENDBRANCH  30  31
ENDBRANCH  28  30
ENDBRANCH  19  28
ENDBRANCH  17  19
ENDBRANCH  15  17
ENDBRANCH   8  15
TORSDOF 9
ENDMDL
MODEL      262
REMARK 921   NORMALIZED FREE ENERGY PREDICTED BY IDOCK:   -1.56 KCAL/MOL
REMARK 922        TOTAL FREE ENERGY PREDICTED BY IDOCK:   -4.33 KCAL/MOL
REMARK 923 INTER-LIGAND FREE ENERGY PREDICTED BY IDOCK:   -5.06 KCAL/MOL
REMARK 924 INTRA-LIGAND FREE ENERGY PREDICTED BY IDOCK:    0.73 KCAL/MOL
REMARK 927      BINDING AFFINITY PREDICTED BY RF-SCORE:    0.00 PKD
ROOT
ATOM      1  C   ALA A   1      -6.301  12.208  69.463  1.00  0.00    -0.122 C  
ATOM      2  C   ALA A   1      -6.649  13.425  70.303  1.00  0.00     0.283 C  
ATOM      3  CA  ALA A   1      -7.760  14.080  69.469  1.00  0.00     0.363 C  
ATOM      4  N   ALA A   1      -8.393  12.958  68.723  1.00  0.00     0.052 N  
ATOM      5  C   ALA A   1      -7.164  15.152  68.554  1.00  0.00    -0.118 C  
ATOM      6  C   ALA A   1      -7.685  11.711  69.031  1.00  0.00    -0.002 C  
ATOM      7  O   ALA A   1      -7.009  14.750  67.273  1.00  0.00    -0.218 OA 
ATOM      8  C   ALA A   1      -9.733  12.937  68.316  1.00  0.00    -0.217 C  
ATOM      9  OXT ALA A   1      -6.813  16.254  68.952  1.00  0.00    -0.143 OA 
ATOM     10  C   ALA A   1      -5.501  11.111  70.139  1.00  0.00    -0.089 C  
ATOM     11  O   ALA A   1     -10.271  11.893  67.942  1.00  0.00    -0.185 OA 
ATOM     12  C   ALA A   1      -7.501  10.634  67.963  1.00  0.00    -0.090 C  
ATOM     13  C   ALA A   1      -5.341   9.930  69.175  1.00  0.00    -0.035 C  
ATOM     14  C   ALA A   1      -6.670   9.477  68.552  1.00  0.00    -0.053 C  
ENDROOT
BRANCH   8  15
ATOM     15  CA  ALA A   1     -10.537  14.284  68.385  1.00  0.00    -0.253 C  
ATOM     16  CB  ALA A   1     -11.125  14.464  69.788  1.00  0.00    -0.202 C  
BRANCH  15  17
ATOM     17  N   ALA A   1     -11.578  14.303  67.338  1.00  0.00    -0.350 NA 
ATOM     18  H   ALA A   1     -12.497  14.158  67.756  1.00  0.00     0.000 HD 
BRANCH  17  19
HETATM   19  C   UNK A   0     -11.593  15.513  66.480  1.00  0.00     0.182 C  
BRANCH  19  20
HETATM   20  C   UNK A   0     -10.891  16.715  67.146  1.00  0.00    -0.126 C  
BRANCH  20  21
HETATM   21  C   UNK A   0     -10.329  17.731  66.138  1.00  0.00    -0.340 C  
BRANCH  21  22
HETATM   22  C   UNK A   0      -9.236  18.565  66.759  1.00  0.00    -0.297 A  
HETATM   23  C   UNK A   0      -8.413  19.372  65.963  1.00  0.00    -0.210 A  
HETATM   24  C   UNK A   0      -9.058  18.574  68.149  1.00  0.00    -0.329 A  
HETATM   25  C   UNK A   0      -7.420  20.160  66.545  1.00  0.00    -0.312 A  
HETATM   26  C   UNK A   0      -8.063  19.363  68.730  1.00  0.00    -0.388 A  
HETATM   27  C   UNK A   0      -7.244  20.155  67.928  1.00  0.00    -0.329 A  
ENDBRANCH  21  22
ENDBRANCH  20  21
ENDBRANCH  19  20
BRANCH  19  28
HETATM   28  C   UNK A   0     -10.884  15.195  65.147  1.00  0.00    -0.422 C  
HETATM   29  O   UNK A   0      -9.806  15.647  64.794  1.00  0.00    -0.153 OA 
BRANCH  28  30
HETATM   30  O   UNK A   0     -11.681  14.394  64.374  1.00  0.00    -0.402 OA 
BRANCH  30  31
HETATM   31  C   UNK A   0     -12.279  13.283  65.063  1.00  0.00    -0.432 C  
HETATM   32  C   UNK A   0     -13.060  12.463  64.050  1.00  0.00    -0.127 C  
ENDBRANCH  30  31
ENDBRANCH  28  30
ENDBRANCH  19  28
ENDBRANCH  17  19
ENDBRANCH  15  17
ENDBRANCH   8  15
TORSDOF 9
ENDMDL
MODEL      263
REMARK 921   NORMALIZED FREE ENERGY PREDICTED BY IDOCK:   -1.44 KCAL/MOL
REMARK 922        TOTAL FREE ENERGY PREDICTED BY IDOCK:   -4.15 KCAL/MOL
REMARK 923 INTER-LIGAND FREE ENERGY PREDICTED BY IDOCK:   -4.71 KCAL/MOL
REMARK 924 INTRA-LIGAND FREE ENERGY PREDICTED BY IDOCK:    0.56 KCAL/MOL
REMARK 927      BINDING AFFINITY PREDICTED BY RF-SCORE:    0.00 PKD
ROOT
ATOM      1  C   ALA A   1      -6.954  18.315  67.330  1.00  0.00    -0.210 C  
ATOM      2  C   ALA A   1      -5.739  17.405  67.389  1.00  0.00    -0.156 C  
ATOM      3  CA  ALA A   1      -6.351  16.089  67.896  1.00  0.00    -0.138 C  
ATOM      4  N   ALA A   1      -7.765  16.119  67.429  1.00  0.00    -0.146 N  
ATOM      5  C   ALA A   1      -6.220  16.004  69.418  1.00  0.00    -0.159 C  
ATOM      6  C   ALA A   1      -8.020  17.386  66.737  1.00  0.00    -0.244 C  
ATOM      7  O   ALA A   1      -7.359  16.307  70.080  1.00  0.00     0.461 OA 
ATOM      8  C   ALA A   1      -8.523  14.978  67.135  1.00  0.00    -0.218 C  
ATOM      9  OXT ALA A   1      -5.172  15.734  69.987  1.00  0.00    -0.116 OA 
ATOM     10  C   ALA A   1      -6.819  19.592  66.524  1.00  0.00    -0.209 C  
ATOM     11  O   ALA A   1      -9.582  15.059  66.509  1.00  0.00    -0.246 OA 
ATOM     12  C   ALA A   1      -9.379  18.076  66.848  1.00  0.00    -0.276 C  
ATOM     13  C   ALA A   1      -8.167  20.319  66.492  1.00  0.00    -0.260 C  
ATOM     14  C   ALA A   1      -9.332  19.409  66.076  1.00  0.00    -0.224 C  
ENDROOT
BRANCH   8  15
ATOM     15  CA  ALA A   1      -7.959  13.589  67.600  1.00  0.00    -0.176 C  
ATOM     16  CB  ALA A   1      -6.660  13.279  66.850  1.00  0.00     0.945 C  
BRANCH  15  17
ATOM     17  N   ALA A   1      -8.980  12.540  67.403  1.00  0.00    -0.179 NA 
ATOM     18  H   ALA A   1      -9.844  12.799  67.879  1.00  0.00     0.000 HD 
BRANCH  17  19
HETATM   19  C   UNK A   0      -9.263  12.188  65.990  1.00  0.00    -0.118 C  
BRANCH  19  20
HETATM   20  C   UNK A   0      -8.775  10.769  65.628  1.00  0.00    -0.198 C  
BRANCH  20  21
HETATM   21  C   UNK A   0      -9.701   9.654  66.143  1.00  0.00    -0.317 C  
BRANCH  21  22
HETATM   22  C   UNK A   0      -9.245   9.148  67.489  1.00  0.00    -0.144 A  
HETATM   23  C   UNK A   0      -7.903   8.811  67.710  1.00  0.00    -0.102 A  
HETATM   24  C   UNK A   0     -10.155   9.048  68.552  1.00  0.00    -0.211 A  
HETATM   25  C   UNK A   0      -7.483   8.368  68.963  1.00  0.00    -0.093 A  
HETATM   26  C   UNK A   0      -9.732   8.602  69.805  1.00  0.00    -0.176 A  
HETATM   27  C   UNK A   0      -8.397   8.262  70.011  1.00  0.00    -0.121 A  
ENDBRANCH  21  22
ENDBRANCH  20  21
ENDBRANCH  19  20
BRANCH  19  28
HETATM   28  C   UNK A   0     -10.784  12.272  65.744  1.00  0.00    -0.263 C  
HETATM   29  O   UNK A   0     -11.315  12.737  64.747  1.00  0.00    -0.292 OA 
BRANCH  28  30
HETATM   30  O   UNK A   0     -11.460  11.825  66.848  1.00  0.00    -0.399 OA 
BRANCH  30  31
HETATM   31  C   UNK A   0     -11.750  12.831  67.833  1.00  0.00    -0.357 C  
HETATM   32  C   UNK A   0     -11.908  12.143  69.179  1.00  0.00    -0.361 C  
ENDBRANCH  30  31
ENDBRANCH  28  30
ENDBRANCH  19  28
ENDBRANCH  17  19
ENDBRANCH  15  17
ENDBRANCH   8  15
TORSDOF 9
ENDMDL
MODEL      264
REMARK 921   NORMALIZED FREE ENERGY PREDICTED BY IDOCK:   -1.26 KCAL/MOL
REMARK 922        TOTAL FREE ENERGY PREDICTED BY IDOCK:   -3.87 KCAL/MOL
REMARK 923 INTER-LIGAND FREE ENERGY PREDICTED BY IDOCK:   -4.72 KCAL/MOL
REMARK 924 INTRA-LIGAND FREE ENERGY PREDICTED BY IDOCK:    0.86 KCAL/MOL
REMARK 927      BINDING AFFINITY PREDICTED BY RF-SCORE:    0.00 PKD
ROOT
ATOM      1  C   ALA A   1     -11.023  11.335  66.576  1.00  0.00    -0.303 C  
ATOM      2  C   ALA A   1     -11.072   9.972  65.908  1.00  0.00     0.806 C  
ATOM      3  CA  ALA A   1     -10.381   9.081  66.951  1.00  0.00    -0.254 C  
ATOM      4  N   ALA A   1     -10.636   9.750  68.257  1.00  0.00    -0.220 N  
ATOM      5  C   ALA A   1      -8.892   8.949  66.623  1.00  0.00    -0.129 C  
ATOM      6  C   ALA A   1     -11.379  10.993  68.027  1.00  0.00    -0.306 C  
ATOM      7  O   ALA A   1      -8.096   9.738  67.376  1.00  0.00    -0.112 OA 
ATOM      8  C   ALA A   1     -10.727   9.080  69.483  1.00  0.00    -0.206 C  
ATOM      9  OXT ALA A   1      -8.464   8.232  65.729  1.00  0.00    -0.134 OA 
ATOM     10  C   ALA A   1     -11.936  12.409  66.017  1.00  0.00    -0.419 C  
ATOM     11  O   ALA A   1     -11.195   9.633  70.480  1.00  0.00    -0.255 OA 
ATOM     12  C   ALA A   1     -11.124  12.227  68.892  1.00  0.00    -0.291 C  
ATOM     13  C   ALA A   1     -11.827  13.671  66.879  1.00  0.00    -0.451 C  
ATOM     14  C   ALA A   1     -11.996  13.390  68.380  1.00  0.00    -0.359 C  
ENDROOT
BRANCH   8  15
ATOM     15  CA  ALA A   1     -10.243   7.587  69.535  1.00  0.00    -0.207 C  
ATOM     16  CB  ALA A   1     -11.357   6.664  69.032  1.00  0.00    -0.235 C  
BRANCH  15  17
ATOM     17  N   ALA A   1      -9.813   7.245  70.906  1.00  0.00    -0.184 NA 
ATOM     18  H   ALA A   1     -10.627   7.073  71.495  1.00  0.00     0.000 HD 
BRANCH  17  19
HETATM   19  C   UNK A   0      -8.861   6.112  71.008  1.00  0.00    -0.139 C  
BRANCH  19  20
HETATM   20  C   UNK A   0      -9.574   4.764  71.247  1.00  0.00    -0.232 C  
BRANCH  20  21
HETATM   21  C   UNK A   0      -9.465   4.263  72.697  1.00  0.00    -0.165 C  
BRANCH  21  22
HETATM   22  C   UNK A   0      -8.157   4.683  73.321  1.00  0.00    -0.100 A  
HETATM   23  C   UNK A   0      -7.159   3.740  73.592  1.00  0.00    -0.051 A  
HETATM   24  C   UNK A   0      -7.909   6.035  73.598  1.00  0.00    -0.103 A  
HETATM   25  C   UNK A   0      -5.942   4.137  74.145  1.00  0.00    -0.023 A  
HETATM   26  C   UNK A   0      -6.691   6.431  74.153  1.00  0.00    -0.078 A  
HETATM   27  C   UNK A   0      -5.707   5.483  74.427  1.00  0.00    -0.048 A  
ENDBRANCH  21  22
ENDBRANCH  20  21
ENDBRANCH  19  20
BRANCH  19  28
HETATM   28  C   UNK A   0      -8.043   6.021  69.702  1.00  0.00    -0.107 C  
HETATM   29  O   UNK A   0      -7.374   6.923  69.222  1.00  0.00    -0.087 OA 
BRANCH  28  30
HETATM   30  O   UNK A   0      -8.245   4.803  69.110  1.00  0.00    -0.080 OA 
BRANCH  30  31
HETATM   31  C   UNK A   0      -8.260   4.819  67.673  1.00  0.00    -0.104 C  
HETATM   32  C   UNK A   0      -9.632   5.287  67.219  1.00  0.00    -0.147 C  
ENDBRANCH  30  31
ENDBRANCH  28  30
ENDBRANCH  19  28
ENDBRANCH  17  19
ENDBRANCH  15  17
ENDBRANCH   8  15
TORSDOF 9
ENDMDL
MODEL      265
REMARK 921   NORMALIZED FREE ENERGY PREDICTED BY IDOCK:   -1.22 KCAL/MOL
REMARK 922        TOTAL FREE ENERGY PREDICTED BY IDOCK:   -3.80 KCAL/MOL
REMARK 923 INTER-LIGAND FREE ENERGY PREDICTED BY IDOCK:   -2.88 KCAL/MOL
REMARK 924 INTRA-LIGAND FREE ENERGY PREDICTED BY IDOCK:   -0.92 KCAL/MOL
REMARK 927      BINDING AFFINITY PREDICTED BY RF-SCORE:    0.00 PKD
ROOT
ATOM      1  C   ALA A   1     -10.823  18.443  68.077  1.00  0.00    -0.170 C  
ATOM      2  C   ALA A   1     -10.580  18.394  69.576  1.00  0.00     0.825 C  
ATOM      3  CA  ALA A   1     -10.042  16.968  69.765  1.00  0.00     0.188 C  
ATOM      4  N   ALA A   1      -9.397  16.626  68.466  1.00  0.00    -0.228 N  
ATOM      5  C   ALA A   1     -11.185  16.022  70.137  1.00  0.00    -0.373 C  
ATOM      6  C   ALA A   1      -9.578  17.739  67.529  1.00  0.00    -0.268 C  
ATOM      7  O   ALA A   1     -11.631  15.273  69.105  1.00  0.00    -0.293 OA 
ATOM      8  C   ALA A   1      -8.318  15.744  68.329  1.00  0.00    -0.163 C  
ATOM      9  OXT ALA A   1     -11.684  15.980  71.253  1.00  0.00    -0.415 OA 
ATOM     10  C   ALA A   1     -11.008  19.814  67.454  1.00  0.00    -0.325 C  
ATOM     11  O   ALA A   1      -7.660  15.697  67.288  1.00  0.00    -0.175 OA 
ATOM     12  C   ALA A   1      -9.787  17.476  66.038  1.00  0.00    -0.195 C  
ATOM     13  C   ALA A   1     -11.132  19.669  65.934  1.00  0.00    -0.096 C  
ATOM     14  C   ALA A   1     -10.012  18.820  65.316  1.00  0.00     1.228 C  
ENDROOT
BRANCH   8  15
ATOM     15  CA  ALA A   1      -7.956  14.838  69.559  1.00  0.00    -0.014 C  
ATOM     16  CB  ALA A   1      -6.830  15.490  70.367  1.00  0.00     0.333 C  
BRANCH  15  17
ATOM     17  N   ALA A   1      -7.598  13.482  69.098  1.00  0.00    -0.319 NA 
ATOM     18  H   ALA A   1      -7.253  12.926  69.880  1.00  0.00     0.000 HD 
BRANCH  17  19
HETATM   19  C   UNK A   0      -8.674  12.749  68.387  1.00  0.00    -0.119 C  
BRANCH  19  20
HETATM   20  C   UNK A   0      -8.285  12.394  66.937  1.00  0.00    -0.089 C  
BRANCH  20  21
HETATM   21  C   UNK A   0      -8.952  11.107  66.422  1.00  0.00    -0.190 C  
BRANCH  21  22
HETATM   22  C   UNK A   0     -10.070  11.423  65.459  1.00  0.00    -0.293 A  
HETATM   23  C   UNK A   0      -9.834  11.471  64.080  1.00  0.00    -0.306 A  
HETATM   24  C   UNK A   0     -11.373  11.631  65.934  1.00  0.00    -0.262 A  
HETATM   25  C   UNK A   0     -10.877  11.738  63.193  1.00  0.00    -0.299 A  
HETATM   26  C   UNK A   0     -12.415  11.899  65.045  1.00  0.00     0.307 A  
HETATM   27  C   UNK A   0     -12.168  11.953  63.675  1.00  0.00    -0.586 A  
ENDBRANCH  21  22
ENDBRANCH  20  21
ENDBRANCH  19  20
BRANCH  19  28
HETATM   28  C   UNK A   0      -8.989  11.447  69.154  1.00  0.00     0.215 C  
HETATM   29  O   UNK A   0      -8.160  10.647  69.559  1.00  0.00    -0.135 OA 
BRANCH  28  30
HETATM   30  O   UNK A   0     -10.344  11.274  69.242  1.00  0.00    -0.176 OA 
BRANCH  30  31
HETATM   31  C   UNK A   0     -10.764   9.975  69.690  1.00  0.00    -0.255 C  
HETATM   32  C   UNK A   0     -10.531   8.986  68.560  1.00  0.00    -0.232 C  
ENDBRANCH  30  31
ENDBRANCH  28  30
ENDBRANCH  19  28
ENDBRANCH  17  19
ENDBRANCH  15  17
ENDBRANCH   8  15
TORSDOF 9
ENDMDL
MODEL      266
REMARK 921   NORMALIZED FREE ENERGY PREDICTED BY IDOCK:   -0.89 KCAL/MOL
REMARK 922        TOTAL FREE ENERGY PREDICTED BY IDOCK:   -3.31 KCAL/MOL
REMARK 923 INTER-LIGAND FREE ENERGY PREDICTED BY IDOCK:   -2.88 KCAL/MOL
REMARK 924 INTRA-LIGAND FREE ENERGY PREDICTED BY IDOCK:   -0.43 KCAL/MOL
REMARK 927      BINDING AFFINITY PREDICTED BY RF-SCORE:    0.00 PKD
ROOT
ATOM      1  C   ALA A   1      -7.279  17.890  68.807  1.00  0.00    -0.275 C  
ATOM      2  C   ALA A   1      -8.638  17.432  68.304  1.00  0.00    -0.260 C  
ATOM      3  CA  ALA A   1      -8.346  15.987  67.871  1.00  0.00    -0.153 C  
ATOM      4  N   ALA A   1      -7.213  15.549  68.732  1.00  0.00    -0.126 N  
ATOM      5  C   ALA A   1      -8.020  15.945  66.376  1.00  0.00    -0.090 C  
ATOM      6  C   ALA A   1      -6.799  16.663  69.590  1.00  0.00    -0.057 C  
ATOM      7  O   ALA A   1      -6.698  15.853  66.110  1.00  0.00     0.614 OA 
ATOM      8  C   ALA A   1      -6.984  14.223  69.120  1.00  0.00    -0.118 C  
ATOM      9  OXT ALA A   1      -8.870  16.035  65.502  1.00  0.00    -0.187 OA 
ATOM     10  C   ALA A   1      -7.247  19.143  69.660  1.00  0.00    -0.018 C  
ATOM     11  O   ALA A   1      -6.201  13.952  70.033  1.00  0.00    -0.137 OA 
ATOM     12  C   ALA A   1      -5.328  16.865  69.951  1.00  0.00    -0.188 C  
ATOM     13  C   ALA A   1      -5.818  19.384  70.158  1.00  0.00    -0.289 C  
ATOM     14  C   ALA A   1      -5.189  18.142  70.804  1.00  0.00    -0.276 C  
ENDROOT
BRANCH   8  15
ATOM     15  CA  ALA A   1      -7.783  13.096  68.375  1.00  0.00    -0.138 C  
ATOM     16  CB  ALA A   1      -8.400  12.137  69.397  1.00  0.00     0.936 C  
BRANCH  15  17
ATOM     17  N   ALA A   1      -6.899  12.399  67.420  1.00  0.00    -0.143 NA 
ATOM     18  H   ALA A   1      -5.939  12.725  67.530  1.00  0.00     0.000 HD 
BRANCH  17  19
HETATM   19  C   UNK A   0      -6.943  10.918  67.479  1.00  0.00    -0.084 C  
BRANCH  19  20
HETATM   20  C   UNK A   0      -6.388  10.261  66.198  1.00  0.00    -0.094 C  
BRANCH  20  21
HETATM   21  C   UNK A   0      -7.406   9.356  65.483  1.00  0.00    -0.088 C  
BRANCH  21  22
HETATM   22  C   UNK A   0      -8.746  10.038  65.359  1.00  0.00    -0.176 A  
HETATM   23  C   UNK A   0      -9.535  10.277  66.491  1.00  0.00    -0.212 A  
HETATM   24  C   UNK A   0      -9.200  10.481  64.108  1.00  0.00    -0.283 A  
HETATM   25  C   UNK A   0     -10.761  10.930  66.373  1.00  0.00    -0.257 A  
HETATM   26  C   UNK A   0     -10.428  11.134  63.992  1.00  0.00    -0.447 A  
HETATM   27  C   UNK A   0     -11.209  11.358  65.124  1.00  0.00    -0.146 A  
ENDBRANCH  21  22
ENDBRANCH  20  21
ENDBRANCH  19  20
BRANCH  19  28
HETATM   28  C   UNK A   0      -6.113  10.436  68.688  1.00  0.00    -0.043 C  
HETATM   29  O   UNK A   0      -5.132  11.002  69.143  1.00  0.00    -0.042 OA 
BRANCH  28  30
HETATM   30  O   UNK A   0      -6.588   9.230  69.128  1.00  0.00    -0.048 OA 
BRANCH  30  31
HETATM   31  C   UNK A   0      -5.582   8.303  69.569  1.00  0.00    -0.030 C  
HETATM   32  C   UNK A   0      -5.206   7.418  68.392  1.00  0.00    -0.025 C  
ENDBRANCH  30  31
ENDBRANCH  28  30
ENDBRANCH  19  28
ENDBRANCH  17  19
ENDBRANCH  15  17
ENDBRANCH   8  15
TORSDOF 9
ENDMDL
MODEL      267
REMARK 921   NORMALIZED FREE ENERGY PREDICTED BY IDOCK:   -0.38 KCAL/MOL
REMARK 922        TOTAL FREE ENERGY PREDICTED BY IDOCK:   -2.52 KCAL/MOL
REMARK 923 INTER-LIGAND FREE ENERGY PREDICTED BY IDOCK:   -4.07 KCAL/MOL
REMARK 924 INTRA-LIGAND FREE ENERGY PREDICTED BY IDOCK:    1.55 KCAL/MOL
REMARK 927      BINDING AFFINITY PREDICTED BY RF-SCORE:    0.00 PKD
ROOT
ATOM      1  C   ALA A   1      -6.410   2.601  65.385  1.00  0.00    -0.024 C  
ATOM      2  C   ALA A   1      -6.636   2.217  66.838  1.00  0.00    -0.038 C  
ATOM      3  CA  ALA A   1      -7.130   3.540  67.444  1.00  0.00    -0.058 C  
ATOM      4  N   ALA A   1      -7.777   4.262  66.314  1.00  0.00    -0.093 N  
ATOM      5  C   ALA A   1      -5.954   4.306  68.055  1.00  0.00    -0.027 C  
ATOM      6  C   ALA A   1      -7.640   3.467  65.089  1.00  0.00    -0.080 C  
ATOM      7  O   ALA A   1      -5.497   5.312  67.277  1.00  0.00    -0.011 OA 
ATOM      8  C   ALA A   1      -8.830   5.173  66.460  1.00  0.00    -0.117 C  
ATOM      9  OXT ALA A   1      -5.443   4.007  69.124  1.00  0.00    -0.011 OA 
ATOM     10  C   ALA A   1      -6.274   1.468  64.387  1.00  0.00    -0.017 C  
ATOM     11  O   ALA A   1      -9.498   5.538  65.491  1.00  0.00    -0.080 OA 
ATOM     12  C   ALA A   1      -7.438   4.148  63.736  1.00  0.00    -0.058 C  
ATOM     13  C   ALA A   1      -6.161   2.046  62.973  1.00  0.00    -0.010 C  
ATOM     14  C   ALA A   1      -7.262   3.068  62.650  1.00  0.00    -0.037 C  
ENDROOT
BRANCH   8  15
ATOM     15  CA  ALA A   1      -9.152   5.690  67.908  1.00  0.00    -0.107 C  
ATOM     16  CB  ALA A   1      -9.676   4.533  68.764  1.00  0.00    -0.213 C  
BRANCH  15  17
ATOM     17  N   ALA A   1     -10.109   6.812  67.840  1.00  0.00    -0.150 NA 
ATOM     18  H   ALA A   1     -10.482   7.010  68.769  1.00  0.00     0.000 HD 
BRANCH  17  19
HETATM   19  C   UNK A   0      -9.586   8.056  67.226  1.00  0.00    -0.162 C  
BRANCH  19  20
HETATM   20  C   UNK A   0     -10.682   9.126  67.038  1.00  0.00    -0.189 C  
BRANCH  20  21
HETATM   21  C   UNK A   0     -10.599  10.273  68.059  1.00  0.00    -0.272 C  
BRANCH  21  22
HETATM   22  C   UNK A   0     -10.410  11.602  67.370  1.00  0.00    -0.231 A  
HETATM   23  C   UNK A   0     -10.183  12.767  68.113  1.00  0.00    -0.241 A  
HETATM   24  C   UNK A   0     -10.417  11.678  65.970  1.00  0.00    -0.294 A  
HETATM   25  C   UNK A   0      -9.983  13.988  67.469  1.00  0.00    -0.236 A  
HETATM   26  C   UNK A   0     -10.218  12.902  65.327  1.00  0.00    -0.294 A  
HETATM   27  C   UNK A   0     -10.002  14.056  66.076  1.00  0.00    -0.331 A  
ENDBRANCH  21  22
ENDBRANCH  20  21
ENDBRANCH  19  20
BRANCH  19  28
HETATM   28  C   UNK A   0      -8.473   8.633  68.125  1.00  0.00    -0.131 C  
HETATM   29  O   UNK A   0      -7.427   9.125  67.729  1.00  0.00    -0.084 OA 
BRANCH  28  30
HETATM   30  O   UNK A   0      -8.788   8.436  69.443  1.00  0.00    -0.139 OA 
BRANCH  30  31
HETATM   31  C   UNK A   0      -8.212   9.385  70.356  1.00  0.00    -0.188 C  
HETATM   32  C   UNK A   0      -7.489  10.446  69.542  1.00  0.00    -0.148 C  
ENDBRANCH  30  31
ENDBRANCH  28  30
ENDBRANCH  19  28
ENDBRANCH  17  19
ENDBRANCH  15  17
ENDBRANCH   8  15
TORSDOF 9
ENDMDL
MODEL      268
REMARK 921   NORMALIZED FREE ENERGY PREDICTED BY IDOCK:   -0.37 KCAL/MOL
REMARK 922        TOTAL FREE ENERGY PREDICTED BY IDOCK:   -2.51 KCAL/MOL
REMARK 923 INTER-LIGAND FREE ENERGY PREDICTED BY IDOCK:   -2.99 KCAL/MOL
REMARK 924 INTRA-LIGAND FREE ENERGY PREDICTED BY IDOCK:    0.48 KCAL/MOL
REMARK 927      BINDING AFFINITY PREDICTED BY RF-SCORE:    0.00 PKD
ROOT
ATOM      1  C   ALA A   1     -10.801  15.132  65.970  1.00  0.00    -0.335 C  
ATOM      2  C   ALA A   1      -9.474  15.570  66.567  1.00  0.00    -0.299 C  
ATOM      3  CA  ALA A   1      -9.094  14.353  67.425  1.00  0.00    -0.198 C  
ATOM      4  N   ALA A   1      -9.746  13.193  66.757  1.00  0.00    -0.239 N  
ATOM      5  C   ALA A   1      -9.565  14.562  68.866  1.00  0.00    -0.158 C  
ATOM      6  C   ALA A   1     -10.520  13.670  65.606  1.00  0.00    -0.299 C  
ATOM      7  O   ALA A   1     -10.703  13.899  69.169  1.00  0.00    -0.225 OA 
ATOM      8  C   ALA A   1      -9.256  11.883  66.795  1.00  0.00    -0.194 C  
ATOM      9  OXT ALA A   1      -8.994  15.298  69.658  1.00  0.00    -0.232 OA 
ATOM     10  C   ALA A   1     -11.310  15.916  64.776  1.00  0.00    -0.314 C  
ATOM     11  O   ALA A   1      -9.676  11.020  66.021  1.00  0.00    -0.207 OA 
ATOM     12  C   ALA A   1     -11.841  13.004  65.224  1.00  0.00    -0.413 C  
ATOM     13  C   ALA A   1     -12.595  15.266  64.251  1.00  0.00     0.165 C  
ATOM     14  C   ALA A   1     -12.454  13.753  64.024  1.00  0.00    -0.280 C  
ENDROOT
BRANCH   8  15
ATOM     15  CA  ALA A   1      -8.126  11.556  67.836  1.00  0.00    -0.132 C  
ATOM     16  CB  ALA A   1      -6.760  11.922  67.249  1.00  0.00    -0.138 C  
BRANCH  15  17
ATOM     17  N   ALA A   1      -8.201  10.136  68.231  1.00  0.00    -0.108 NA 
ATOM     18  H   ALA A   1      -7.286   9.697  68.132  1.00  0.00     0.000 HD 
BRANCH  17  19
HETATM   19  C   UNK A   0      -8.744   9.882  69.588  1.00  0.00    -0.204 C  
BRANCH  19  20
HETATM   20  C   UNK A   0      -9.193   8.418  69.778  1.00  0.00    -0.157 C  
BRANCH  20  21
HETATM   21  C   UNK A   0      -8.256   7.399  69.108  1.00  0.00    -0.121 C  
BRANCH  21  22
HETATM   22  C   UNK A   0      -7.438   6.656  70.136  1.00  0.00    -0.094 A  
HETATM   23  C   UNK A   0      -6.043   6.596  70.032  1.00  0.00    -0.027 A  
HETATM   24  C   UNK A   0      -8.065   6.050  71.234  1.00  0.00    -0.118 A  
HETATM   25  C   UNK A   0      -5.290   5.930  70.999  1.00  0.00    -0.013 A  
HETATM   26  C   UNK A   0      -7.310   5.382  72.200  1.00  0.00    -0.093 A  
HETATM   27  C   UNK A   0      -5.923   5.321  72.082  1.00  0.00    -0.026 A  
ENDBRANCH  21  22
ENDBRANCH  20  21
ENDBRANCH  19  20
BRANCH  19  28
HETATM   28  C   UNK A   0      -7.659  10.213  70.635  1.00  0.00     0.464 C  
HETATM   29  O   UNK A   0      -7.713   9.932  71.822  1.00  0.00     0.688 OA 
BRANCH  28  30
HETATM   30  O   UNK A   0      -6.659  10.946  70.055  1.00  0.00    -0.144 OA 
BRANCH  30  31
HETATM   31  C   UNK A   0      -5.392  10.891  70.731  1.00  0.00    -0.110 C  
HETATM   32  C   UNK A   0      -5.536  11.605  72.064  1.00  0.00     0.577 C  
ENDBRANCH  30  31
ENDBRANCH  28  30
ENDBRANCH  19  28
ENDBRANCH  17  19
ENDBRANCH  15  17
ENDBRANCH   8  15
TORSDOF 9
ENDMDL
MODEL      269
REMARK 921   NORMALIZED FREE ENERGY PREDICTED BY IDOCK:   -0.35 KCAL/MOL
REMARK 922        TOTAL FREE ENERGY PREDICTED BY IDOCK:   -2.48 KCAL/MOL
REMARK 923 INTER-LIGAND FREE ENERGY PREDICTED BY IDOCK:   -5.97 KCAL/MOL
REMARK 924 INTRA-LIGAND FREE ENERGY PREDICTED BY IDOCK:    3.49 KCAL/MOL
REMARK 927      BINDING AFFINITY PREDICTED BY RF-SCORE:    0.00 PKD
ROOT
ATOM      1  C   ALA A   1      -8.708  10.809  67.155  1.00  0.00    -0.131 C  
ATOM      2  C   ALA A   1      -9.121  11.168  65.738  1.00  0.00    -0.222 C  
ATOM      3  CA  ALA A   1     -10.053  12.367  65.973  1.00  0.00    -0.251 C  
ATOM      4  N   ALA A   1      -9.574  12.984  67.240  1.00  0.00    -0.218 N  
ATOM      5  C   ALA A   1     -11.507  11.893  66.045  1.00  0.00    -0.281 C  
ATOM      6  C   ALA A   1      -8.465  12.189  67.777  1.00  0.00    -0.160 C  
ATOM      7  O   ALA A   1     -11.987  11.801  67.304  1.00  0.00    -0.618 OA 
ATOM      8  C   ALA A   1      -9.693  14.345  67.550  1.00  0.00    -0.215 C  
ATOM      9  OXT ALA A   1     -12.159  11.579  65.060  1.00  0.00    -0.019 OA 
ATOM     10  C   ALA A   1      -7.499   9.907  67.312  1.00  0.00    -0.087 C  
ATOM     11  O   ALA A   1      -9.055  14.847  68.477  1.00  0.00    -0.178 OA 
ATOM     12  C   ALA A   1      -8.287  12.016  69.285  1.00  0.00     0.625 C  
ATOM     13  C   ALA A   1      -7.174   9.745  68.801  1.00  0.00    -0.072 C  
ATOM     14  C   ALA A   1      -7.087  11.084  69.547  1.00  0.00    -0.113 C  
ENDROOT
BRANCH   8  15
ATOM     15  CA  ALA A   1     -10.642  15.217  66.652  1.00  0.00    -0.304 C  
ATOM     16  CB  ALA A   1      -9.985  15.461  65.290  1.00  0.00    -0.305 C  
BRANCH  15  17
ATOM     17  N   ALA A   1     -10.972  16.477  67.346  1.00  0.00    -0.192 NA 
ATOM     18  H   ALA A   1     -10.945  16.339  68.356  1.00  0.00     0.000 HD 
BRANCH  17  19
HETATM   19  C   UNK A   0     -10.140  17.646  66.969  1.00  0.00    -0.330 C  
BRANCH  19  20
HETATM   20  C   UNK A   0      -8.668  17.262  66.711  1.00  0.00    -0.275 C  
BRANCH  20  21
HETATM   21  C   UNK A   0      -7.677  18.396  67.019  1.00  0.00    -0.234 C  
BRANCH  21  22
HETATM   22  C   UNK A   0      -6.901  18.112  68.281  1.00  0.00    -0.229 A  
HETATM   23  C   UNK A   0      -6.573  19.146  69.168  1.00  0.00    -0.336 A  
HETATM   24  C   UNK A   0      -6.534  16.797  68.604  1.00  0.00    -0.165 A  
HETATM   25  C   UNK A   0      -5.879  18.873  70.346  1.00  0.00    -0.168 A  
HETATM   26  C   UNK A   0      -5.838  16.527  69.783  1.00  0.00    -0.196 A  
HETATM   27  C   UNK A   0      -5.509  17.564  70.654  1.00  0.00    -0.193 A  
ENDBRANCH  21  22
ENDBRANCH  20  21
ENDBRANCH  19  20
BRANCH  19  28
HETATM   28  C   UNK A   0     -10.721  18.287  65.691  1.00  0.00    -0.033 C  
HETATM   29  O   UNK A   0     -10.838  17.731  64.611  1.00  0.00    -0.519 OA 
BRANCH  28  30
HETATM   30  O   UNK A   0     -11.011  19.606  65.922  1.00  0.00    -0.375 OA 
BRANCH  30  31
HETATM   31  C   UNK A   0     -11.195  19.956  67.303  1.00  0.00     0.260 C  
HETATM   32  C   UNK A   0      -9.845  20.357  67.875  1.00  0.00    -0.433 C  
ENDBRANCH  30  31
ENDBRANCH  28  30
ENDBRANCH  19  28
ENDBRANCH  17  19
ENDBRANCH  15  17
ENDBRANCH   8  15
TORSDOF 9
ENDMDL
MODEL      270
REMARK 921   NORMALIZED FREE ENERGY PREDICTED BY IDOCK:    0.59 KCAL/MOL
REMARK 922        TOTAL FREE ENERGY PREDICTED BY IDOCK:   -1.04 KCAL/MOL
REMARK 923 INTER-LIGAND FREE ENERGY PREDICTED BY IDOCK:   -1.62 KCAL/MOL
REMARK 924 INTRA-LIGAND FREE ENERGY PREDICTED BY IDOCK:    0.58 KCAL/MOL
REMARK 927      BINDING AFFINITY PREDICTED BY RF-SCORE:    0.00 PKD
ROOT
ATOM      1  C   ALA A   1      -6.085  16.472  70.194  1.00  0.00    -0.075 C  
ATOM      2  C   ALA A   1      -6.916  17.288  69.219  1.00  0.00    -0.178 C  
ATOM      3  CA  ALA A   1      -7.222  16.258  68.122  1.00  0.00    -0.142 C  
ATOM      4  N   ALA A   1      -7.198  14.940  68.815  1.00  0.00    -0.115 N  
ATOM      5  C   ALA A   1      -6.190  16.367  66.998  1.00  0.00    -0.120 C  
ATOM      6  C   ALA A   1      -6.843  15.140  70.223  1.00  0.00     0.048 C  
ATOM      7  O   ALA A   1      -5.231  15.417  67.045  1.00  0.00    -0.184 OA 
ATOM      8  C   ALA A   1      -7.947  13.825  68.418  1.00  0.00    -0.144 C  
ATOM      9  OXT ALA A   1      -6.201  17.260  66.162  1.00  0.00    -0.205 OA 
ATOM     10  C   ALA A   1      -5.904  17.040  71.589  1.00  0.00     1.356 C  
ATOM     11  O   ALA A   1      -8.094  12.855  69.164  1.00  0.00     0.264 OA 
ATOM     12  C   ALA A   1      -5.990  14.113  70.967  1.00  0.00    -0.187 C  
ATOM     13  C   ALA A   1      -5.135  16.034  72.452  1.00  0.00     0.850 C  
ATOM     14  C   ALA A   1      -5.728  14.619  72.399  1.00  0.00     0.177 C  
ENDROOT
BRANCH   8  15
ATOM     15  CA  ALA A   1      -8.621  13.867  67.000  1.00  0.00    -0.172 C  
ATOM     16  CB  ALA A   1     -10.089  14.281  67.139  1.00  0.00    -0.254 C  
BRANCH  15  17
ATOM     17  N   ALA A   1      -8.472  12.559  66.333  1.00  0.00    -0.403 NA 
ATOM     18  H   ALA A   1      -7.661  12.066  66.706  1.00  0.00     0.000 HD 
BRANCH  17  19
HETATM   19  C   UNK A   0      -9.667  11.682  66.381  1.00  0.00    -0.214 C  
BRANCH  19  20
HETATM   20  C   UNK A   0      -9.714  10.687  65.202  1.00  0.00    -0.327 C  
BRANCH  20  21
HETATM   21  C   UNK A   0     -10.882  10.940  64.234  1.00  0.00    -0.121 C  
BRANCH  21  22
HETATM   22  C   UNK A   0     -11.423  12.340  64.390  1.00  0.00    -0.417 A  
HETATM   23  C   UNK A   0     -12.570  12.582  65.156  1.00  0.00    -0.358 A  
HETATM   24  C   UNK A   0     -10.757  13.425  63.802  1.00  0.00     0.183 A  
HETATM   25  C   UNK A   0     -13.051  13.882  65.318  1.00  0.00    -0.205 A  
HETATM   26  C   UNK A   0     -11.240  14.724  63.964  1.00  0.00     0.387 A  
HETATM   27  C   UNK A   0     -12.387  14.953  64.721  1.00  0.00    -0.241 A  
ENDBRANCH  21  22
ENDBRANCH  20  21
ENDBRANCH  19  20
BRANCH  19  28
HETATM   28  C   UNK A   0      -9.658  10.889  67.705  1.00  0.00    -0.163 C  
HETATM   29  O   UNK A   0      -8.673  10.676  68.395  1.00  0.00    -0.128 OA 
BRANCH  28  30
HETATM   30  O   UNK A   0     -10.905  10.382  67.953  1.00  0.00    -0.237 OA 
BRANCH  30  31
HETATM   31  C   UNK A   0     -11.562  10.921  69.112  1.00  0.00    -0.319 C  
HETATM   32  C   UNK A   0     -12.205  12.241  68.720  1.00  0.00     0.025 C  
ENDBRANCH  30  31
ENDBRANCH  28  30
ENDBRANCH  19  28
ENDBRANCH  17  19
ENDBRANCH  15  17
ENDBRANCH   8  15
TORSDOF 9
ENDMDL
MODEL      271
REMARK 921   NORMALIZED FREE ENERGY PREDICTED BY IDOCK:    1.42 KCAL/MOL
REMARK 922        TOTAL FREE ENERGY PREDICTED BY IDOCK:    0.22 KCAL/MOL
REMARK 923 INTER-LIGAND FREE ENERGY PREDICTED BY IDOCK:   -5.33 KCAL/MOL
REMARK 924 INTRA-LIGAND FREE ENERGY PREDICTED BY IDOCK:    5.54 KCAL/MOL
REMARK 927      BINDING AFFINITY PREDICTED BY RF-SCORE:    0.00 PKD
ROOT
ATOM      1  C   ALA A   1      -8.717  10.830  67.241  1.00  0.00    -0.130 C  
ATOM      2  C   ALA A   1      -9.347  11.308  65.944  1.00  0.00    -0.240 C  
ATOM      3  CA  ALA A   1     -10.202  12.492  66.422  1.00  0.00    -0.244 C  
ATOM      4  N   ALA A   1      -9.509  12.999  67.639  1.00  0.00    -0.194 N  
ATOM      5  C   ALA A   1     -11.634  12.026  66.694  1.00  0.00    -0.319 C  
ATOM      6  C   ALA A   1      -8.346  12.152  67.922  1.00  0.00    -0.161 C  
ATOM      7  O   ALA A   1     -11.906  11.836  68.004  1.00  0.00    -0.484 OA 
ATOM      8  C   ALA A   1      -9.546  14.330  68.071  1.00  0.00    -0.223 C  
ATOM      9  OXT ALA A   1     -12.445  11.800  65.807  1.00  0.00     0.049 OA 
ATOM     10  C   ALA A   1      -7.519   9.908  67.126  1.00  0.00    -0.091 C  
ATOM     11  O   ALA A   1      -8.755  14.749  68.919  1.00  0.00    -0.175 OA 
ATOM     12  C   ALA A   1      -7.929  11.855  69.362  1.00  0.00     0.564 C  
ATOM     13  C   ALA A   1      -6.961   9.621  68.523  1.00  0.00    -0.065 C  
ATOM     14  C   ALA A   1      -6.724  10.894  69.349  1.00  0.00    -0.107 C  
ENDROOT
BRANCH   8  15
ATOM     15  CA  ALA A   1     -10.609  15.281  67.413  1.00  0.00    -0.282 C  
ATOM     16  CB  ALA A   1     -10.153  15.670  66.004  1.00  0.00    -0.355 C  
BRANCH  15  17
ATOM     17  N   ALA A   1     -10.829  16.461  68.273  1.00  0.00    -0.334 NA 
ATOM     18  H   ALA A   1     -10.825  16.184  69.254  1.00  0.00     0.000 HD 
BRANCH  17  19
HETATM   19  C   UNK A   0      -9.889  17.588  68.057  1.00  0.00    -0.299 C  
BRANCH  19  20
HETATM   20  C   UNK A   0      -8.455  17.107  67.749  1.00  0.00    -0.207 C  
BRANCH  20  21
HETATM   21  C   UNK A   0      -8.092  17.182  66.257  1.00  0.00    -0.325 C  
BRANCH  21  22
HETATM   22  C   UNK A   0      -7.048  18.241  66.004  1.00  0.00    -0.307 A  
HETATM   23  C   UNK A   0      -7.023  18.946  64.793  1.00  0.00     0.838 A  
HETATM   24  C   UNK A   0      -6.114  18.564  66.998  1.00  0.00    -0.179 A  
HETATM   25  C   UNK A   0      -6.071  19.942  64.575  1.00  0.00    -0.313 A  
HETATM   26  C   UNK A   0      -5.162  19.561  66.777  1.00  0.00    -0.164 A  
HETATM   27  C   UNK A   0      -5.140  20.249  65.566  1.00  0.00    -0.189 A  
ENDBRANCH  21  22
ENDBRANCH  20  21
ENDBRANCH  19  20
BRANCH  19  28
HETATM   28  C   UNK A   0     -10.393  18.446  66.878  1.00  0.00    -0.390 C  
HETATM   29  O   UNK A   0     -10.510  18.063  65.724  1.00  0.00    -0.573 OA 
BRANCH  28  30
HETATM   30  O   UNK A   0     -10.612  19.731  67.296  1.00  0.00    -0.446 OA 
BRANCH  30  31
HETATM   31  C   UNK A   0     -10.066  20.053  68.586  1.00  0.00    -0.347 C  
HETATM   32  C   UNK A   0      -8.618  20.474  68.396  1.00  0.00     0.361 C  
ENDBRANCH  30  31
ENDBRANCH  28  30
ENDBRANCH  19  28
ENDBRANCH  17  19
ENDBRANCH  15  17
ENDBRANCH   8  15
TORSDOF 9
ENDMDL
MODEL      272
REMARK 921   NORMALIZED FREE ENERGY PREDICTED BY IDOCK:    1.47 KCAL/MOL
REMARK 922        TOTAL FREE ENERGY PREDICTED BY IDOCK:    0.30 KCAL/MOL
REMARK 923 INTER-LIGAND FREE ENERGY PREDICTED BY IDOCK:   -2.36 KCAL/MOL
REMARK 924 INTRA-LIGAND FREE ENERGY PREDICTED BY IDOCK:    2.66 KCAL/MOL
REMARK 927      BINDING AFFINITY PREDICTED BY RF-SCORE:    0.00 PKD
ROOT
ATOM      1  C   ALA A   1      -8.117   9.731  71.051  1.00  0.00     0.553 C  
ATOM      2  C   ALA A   1      -9.488   9.649  70.402  1.00  0.00    -0.280 C  
ATOM      3  CA  ALA A   1      -9.248  10.359  69.061  1.00  0.00    -0.187 C  
ATOM      4  N   ALA A   1      -7.803  10.148  68.767  1.00  0.00    -0.092 N  
ATOM      5  C   ALA A   1      -9.630  11.836  69.176  1.00  0.00     0.304 C  
ATOM      6  C   ALA A   1      -7.187   9.413  69.876  1.00  0.00    -0.083 C  
ATOM      7  O   ALA A   1      -8.572  12.662  69.331  1.00  0.00     0.779 OA 
ATOM      8  C   ALA A   1      -7.260  10.085  67.478  1.00  0.00    -0.089 C  
ATOM      9  OXT ALA A   1     -10.788  12.231  69.177  1.00  0.00    -0.194 OA 
ATOM     10  C   ALA A   1      -7.858   8.814  72.231  1.00  0.00     0.028 C  
ATOM     11  O   ALA A   1      -6.123   9.652  67.284  1.00  0.00    -0.054 OA 
ATOM     12  C   ALA A   1      -5.749   9.706  70.303  1.00  0.00    -0.045 C  
ATOM     13  C   ALA A   1      -6.400   8.962  72.681  1.00  0.00     0.030 C  
ATOM     14  C   ALA A   1      -5.398   8.833  71.524  1.00  0.00    -0.039 C  
ENDROOT
BRANCH   8  15
ATOM     15  CA  ALA A   1      -8.164  10.554  66.283  1.00  0.00    -0.147 C  
ATOM     16  CB  ALA A   1      -7.421  10.346  64.960  1.00  0.00    -0.079 C  
BRANCH  15  17
ATOM     17  N   ALA A   1      -8.569  11.960  66.479  1.00  0.00    -0.305 NA 
ATOM     18  H   ALA A   1      -7.838  12.585  66.140  1.00  0.00     0.000 HD 
BRANCH  17  19
HETATM   19  C   UNK A   0      -9.876  12.333  65.885  1.00  0.00    -0.251 C  
BRANCH  19  20
HETATM   20  C   UNK A   0      -9.956  13.834  65.536  1.00  0.00    -0.260 C  
BRANCH  20  21
HETATM   21  C   UNK A   0      -8.871  14.681  66.222  1.00  0.00    -0.006 C  
BRANCH  21  22
HETATM   22  C   UNK A   0      -9.478  15.843  66.968  1.00  0.00    -0.234 A  
HETATM   23  C   UNK A   0     -10.383  15.626  68.015  1.00  0.00    -0.246 A  
HETATM   24  C   UNK A   0      -9.111  17.158  66.648  1.00  0.00    -0.280 A  
HETATM   25  C   UNK A   0     -10.922  16.704  68.718  1.00  0.00    -0.309 A  
HETATM   26  C   UNK A   0      -9.652  18.235  67.352  1.00  0.00    -0.284 A  
HETATM   27  C   UNK A   0     -10.558  18.009  68.386  1.00  0.00    -0.249 A  
ENDBRANCH  21  22
ENDBRANCH  20  21
ENDBRANCH  19  20
BRANCH  19  28
HETATM   28  C   UNK A   0     -10.099  11.509  64.600  1.00  0.00    -0.271 C  
HETATM   29  O   UNK A   0     -10.324  11.971  63.492  1.00  0.00    -0.404 OA 
BRANCH  28  30
HETATM   30  O   UNK A   0     -10.093  10.172  64.897  1.00  0.00    -0.330 OA 
BRANCH  30  31
HETATM   31  C   UNK A   0     -10.960   9.783  65.975  1.00  0.00     0.738 C  
HETATM   32  C   UNK A   0     -10.528   8.409  66.458  1.00  0.00    -0.071 C  
ENDBRANCH  30  31
ENDBRANCH  28  30
ENDBRANCH  19  28
ENDBRANCH  17  19
ENDBRANCH  15  17
ENDBRANCH   8  15
TORSDOF 9
ENDMDL
MODEL      273
REMARK 921   NORMALIZED FREE ENERGY PREDICTED BY IDOCK:    1.76 KCAL/MOL
REMARK 922        TOTAL FREE ENERGY PREDICTED BY IDOCK:    0.73 KCAL/MOL
REMARK 923 INTER-LIGAND FREE ENERGY PREDICTED BY IDOCK:   -3.13 KCAL/MOL
REMARK 924 INTRA-LIGAND FREE ENERGY PREDICTED BY IDOCK:    3.87 KCAL/MOL
REMARK 927      BINDING AFFINITY PREDICTED BY RF-SCORE:    0.00 PKD
ROOT
ATOM      1  C   ALA A   1      -8.669  10.785  67.161  1.00  0.00    -0.131 C  
ATOM      2  C   ALA A   1      -8.686  11.482  65.812  1.00  0.00    -0.007 C  
ATOM      3  CA  ALA A   1      -9.246  12.866  66.175  1.00  0.00    -0.014 C  
ATOM      4  N   ALA A   1      -8.847  13.081  67.594  1.00  0.00    -0.179 N  
ATOM      5  C   ALA A   1     -10.761  12.890  65.964  1.00  0.00    -0.277 C  
ATOM      6  C   ALA A   1      -8.145  11.890  68.085  1.00  0.00    -0.155 C  
ATOM      7  O   ALA A   1     -11.472  12.760  67.106  1.00  0.00    -0.299 OA 
ATOM      8  C   ALA A   1      -8.610  14.337  68.166  1.00  0.00    -0.172 C  
ATOM      9  OXT ALA A   1     -11.283  12.969  64.862  1.00  0.00    -0.290 OA 
ATOM     10  C   ALA A   1      -7.835   9.524  67.274  1.00  0.00    -0.098 C  
ATOM     11  O   ALA A   1      -8.035  14.447  69.251  1.00  0.00    -0.063 OA 
ATOM     12  C   ALA A   1      -8.309  11.430  69.533  1.00  0.00     0.605 C  
ATOM     13  C   ALA A   1      -7.854   9.028  68.724  1.00  0.00    -0.096 C  
ATOM     14  C   ALA A   1      -7.512  10.127  69.740  1.00  0.00    -0.166 C  
ENDROOT
BRANCH   8  15
ATOM     15  CA  ALA A   1      -9.073  15.603  67.361  1.00  0.00    -0.194 C  
ATOM     16  CB  ALA A   1      -8.144  15.823  66.163  1.00  0.00     0.291 C  
BRANCH  15  17
ATOM     17  N   ALA A   1      -9.118  16.778  68.254  1.00  0.00    -0.221 NA 
ATOM     18  H   ALA A   1      -9.229  16.478  69.222  1.00  0.00     0.000 HD 
BRANCH  17  19
HETATM   19  C   UNK A   0      -7.969  17.709  68.137  1.00  0.00    -0.256 C  
BRANCH  19  20
HETATM   20  C   UNK A   0      -6.615  16.969  68.096  1.00  0.00    -0.149 C  
BRANCH  20  21
HETATM   21  C   UNK A   0      -5.852  17.014  69.431  1.00  0.00    -0.202 C  
BRANCH  21  22
HETATM   22  C   UNK A   0      -5.634  15.625  69.979  1.00  0.00    -0.141 A  
HETATM   23  C   UNK A   0      -5.774  15.366  71.348  1.00  0.00     0.309 A  
HETATM   24  C   UNK A   0      -5.330  14.564  69.114  1.00  0.00    -0.081 A  
HETATM   25  C   UNK A   0      -5.596  14.075  71.845  1.00  0.00    -0.215 A  
HETATM   26  C   UNK A   0      -5.151  13.273  69.613  1.00  0.00    -0.084 A  
HETATM   27  C   UNK A   0      -5.284  13.028  70.978  1.00  0.00    -0.169 A  
ENDBRANCH  21  22
ENDBRANCH  20  21
ENDBRANCH  19  20
BRANCH  19  28
HETATM   28  C   UNK A   0      -8.124  18.542  66.848  1.00  0.00    -0.245 C  
HETATM   29  O   UNK A   0      -8.398  18.094  65.745  1.00  0.00    -0.499 OA 
BRANCH  28  30
HETATM   30  O   UNK A   0      -7.823  19.853  67.101  1.00  0.00    -0.267 OA 
BRANCH  30  31
HETATM   31  C   UNK A   0      -6.724  20.384  66.342  1.00  0.00    -0.245 C  
HETATM   32  C   UNK A   0      -7.287  21.070  65.109  1.00  0.00     0.577 C  
ENDBRANCH  30  31
ENDBRANCH  28  30
ENDBRANCH  19  28
ENDBRANCH  17  19
ENDBRANCH  15  17
ENDBRANCH   8  15
TORSDOF 9
ENDMDL
MODEL      274
REMARK 921   NORMALIZED FREE ENERGY PREDICTED BY IDOCK:    3.42 KCAL/MOL
REMARK 922        TOTAL FREE ENERGY PREDICTED BY IDOCK:    3.28 KCAL/MOL
REMARK 923 INTER-LIGAND FREE ENERGY PREDICTED BY IDOCK:    0.66 KCAL/MOL
REMARK 924 INTRA-LIGAND FREE ENERGY PREDICTED BY IDOCK:    2.62 KCAL/MOL
REMARK 927      BINDING AFFINITY PREDICTED BY RF-SCORE:    0.00 PKD
ROOT
ATOM      1  C   ALA A   1     -12.419  14.173  72.082  1.00  0.00    -0.266 C  
ATOM      2  C   ALA A   1     -11.919  12.787  71.713  1.00  0.00     1.330 C  
ATOM      3  CA  ALA A   1     -11.575  12.959  70.225  1.00  0.00     0.029 C  
ATOM      4  N   ALA A   1     -11.235  14.401  70.073  1.00  0.00    -0.193 N  
ATOM      5  C   ALA A   1     -12.761  12.525  69.361  1.00  0.00     0.801 C  
ATOM      6  C   ALA A   1     -11.414  15.078  71.362  1.00  0.00    -0.318 C  
ATOM      7  O   ALA A   1     -13.494  13.555  68.885  1.00  0.00     2.662 OA 
ATOM      8  C   ALA A   1     -10.344  14.905  69.118  1.00  0.00    -0.245 C  
ATOM      9  OXT ALA A   1     -13.050  11.354  69.159  1.00  0.00     0.532 OA 
ATOM     10  C   ALA A   1     -12.505  14.503  73.560  1.00  0.00    -0.281 C  
ATOM     11  O   ALA A   1      -9.900  16.052  69.202  1.00  0.00    -0.220 OA 
ATOM     12  C   ALA A   1     -11.927  16.517  71.422  1.00  0.00     0.100 C  
ATOM     13  C   ALA A   1     -12.924  15.967  73.732  1.00  0.00    -0.638 C  
ATOM     14  C   ALA A   1     -12.074  16.937  72.898  1.00  0.00     0.117 C  
ENDROOT
BRANCH   8  15
ATOM     15  CA  ALA A   1      -9.905  13.948  67.953  1.00  0.00    -0.228 C  
ATOM     16  CB  ALA A   1     -10.757  14.222  66.710  1.00  0.00    -0.287 C  
BRANCH  15  17
ATOM     17  N   ALA A   1      -9.999  12.542  68.395  1.00  0.00    -0.258 NA 
ATOM     18  H   ALA A   1     -10.751  12.068  67.895  1.00  0.00     0.000 HD 
BRANCH  17  19
HETATM   19  C   UNK A   0      -8.744  11.759  68.289  1.00  0.00    -0.167 C  
BRANCH  19  20
HETATM   20  C   UNK A   0      -8.911  10.309  68.791  1.00  0.00    -0.148 C  
BRANCH  20  21
HETATM   21  C   UNK A   0      -9.646   9.398  67.794  1.00  0.00    -0.158 C  
BRANCH  21  22
HETATM   22  C   UNK A   0     -10.036   8.090  68.438  1.00  0.00    -0.204 A  
HETATM   23  C   UNK A   0      -9.956   6.889  67.723  1.00  0.00    -0.180 A  
HETATM   24  C   UNK A   0     -10.442   8.057  69.780  1.00  0.00    -0.227 A  
HETATM   25  C   UNK A   0     -10.293   5.680  68.332  1.00  0.00    -0.258 A  
HETATM   26  C   UNK A   0     -10.780   6.847  70.387  1.00  0.00    -0.278 A  
HETATM   27  C   UNK A   0     -10.706   5.658  69.664  1.00  0.00    -0.398 A  
ENDBRANCH  21  22
ENDBRANCH  20  21
ENDBRANCH  19  20
BRANCH  19  28
HETATM   28  C   UNK A   0      -8.291  11.729  66.814  1.00  0.00    -0.165 C  
HETATM   29  O   UNK A   0      -7.588  12.568  66.273  1.00  0.00     0.599 OA 
BRANCH  28  30
HETATM   30  O   UNK A   0      -8.863  10.663  66.172  1.00  0.00    -0.156 OA 
BRANCH  30  31
HETATM   31  C   UNK A   0      -8.004   9.977  65.247  1.00  0.00    -0.143 C  
HETATM   32  C   UNK A   0      -8.714   8.713  64.790  1.00  0.00    -0.099 C  
ENDBRANCH  30  31
ENDBRANCH  28  30
ENDBRANCH  19  28
ENDBRANCH  17  19
ENDBRANCH  15  17
ENDBRANCH   8  15
TORSDOF 9
ENDMDL
MODEL      275
REMARK 921   NORMALIZED FREE ENERGY PREDICTED BY IDOCK:    4.70 KCAL/MOL
REMARK 922        TOTAL FREE ENERGY PREDICTED BY IDOCK:    5.22 KCAL/MOL
REMARK 923 INTER-LIGAND FREE ENERGY PREDICTED BY IDOCK:   -2.00 KCAL/MOL
REMARK 924 INTRA-LIGAND FREE ENERGY PREDICTED BY IDOCK:    7.22 KCAL/MOL
REMARK 927      BINDING AFFINITY PREDICTED BY RF-SCORE:    0.00 PKD
ROOT
ATOM      1  C   ALA A   1     -11.652  12.266  67.962  1.00  0.00    -0.408 C  
ATOM      2  C   ALA A   1     -11.233  11.329  69.082  1.00  0.00    -0.337 C  
ATOM      3  CA  ALA A   1     -10.107  10.522  68.417  1.00  0.00    -0.164 C  
ATOM      4  N   ALA A   1      -9.540  11.433  67.384  1.00  0.00    -0.173 N  
ATOM      5  C   ALA A   1     -10.668   9.224  67.833  1.00  0.00    -0.188 C  
ATOM      6  C   ALA A   1     -10.301  12.687  67.375  1.00  0.00    -0.220 C  
ATOM      7  O   ALA A   1     -10.863   9.267  66.497  1.00  0.00    -0.023 OA 
ATOM      8  C   ALA A   1      -8.210  11.401  66.948  1.00  0.00    -0.157 C  
ATOM      9  OXT ALA A   1     -10.959   8.253  68.517  1.00  0.00     0.018 OA 
ATOM     10  C   ALA A   1     -12.490  13.469  68.348  1.00  0.00     0.321 C  
ATOM     11  O   ALA A   1      -7.728  12.331  66.297  1.00  0.00     0.337 OA 
ATOM     12  C   ALA A   1     -10.553  13.436  66.067  1.00  0.00    -0.290 C  
ATOM     13  C   ALA A   1     -12.723  14.346  67.113  1.00  0.00     0.658 C  
ATOM     14  C   ALA A   1     -11.428  14.673  66.355  1.00  0.00    -0.348 C  
ENDROOT
BRANCH   8  15
ATOM     15  CA  ALA A   1      -7.342  10.154  67.345  1.00  0.00    -0.089 C  
ATOM     16  CB  ALA A   1      -7.905   9.517  68.619  1.00  0.00    -0.084 C  
BRANCH  15  17
ATOM     17  N   ALA A   1      -5.929  10.552  67.498  1.00  0.00    -0.051 NA 
ATOM     18  H   ALA A   1      -5.777  11.471  67.083  1.00  0.00     0.000 HD 
BRANCH  17  19
HETATM   19  C   UNK A   0      -5.410  10.530  68.888  1.00  0.00    -0.041 C  
BRANCH  19  20
HETATM   20  C   UNK A   0      -5.128  11.945  69.434  1.00  0.00    -0.056 C  
BRANCH  20  21
HETATM   21  C   UNK A   0      -5.146  13.035  68.348  1.00  0.00    -0.071 C  
BRANCH  21  22
HETATM   22  C   UNK A   0      -6.202  14.073  68.637  1.00  0.00    -0.088 A  
HETATM   23  C   UNK A   0      -6.151  15.333  68.028  1.00  0.00    -0.157 A  
HETATM   24  C   UNK A   0      -7.274  13.772  69.489  1.00  0.00     0.194 A  
HETATM   25  C   UNK A   0      -7.144  16.280  68.280  1.00  0.00    -0.138 A  
HETATM   26  C   UNK A   0      -8.266  14.721  69.740  1.00  0.00     0.231 A  
HETATM   27  C   UNK A   0      -8.201  15.975  69.136  1.00  0.00    -0.241 A  
ENDBRANCH  21  22
ENDBRANCH  20  21
ENDBRANCH  19  20
BRANCH  19  28
HETATM   28  C   UNK A   0      -6.445   9.838  69.801  1.00  0.00    -0.053 C  
HETATM   29  O   UNK A   0      -7.189  10.407  70.584  1.00  0.00    -0.259 OA 
BRANCH  28  30
HETATM   30  O   UNK A   0      -6.349   8.479  69.668  1.00  0.00    -0.038 OA 
BRANCH  30  31
HETATM   31  C   UNK A   0      -6.925   7.720  70.744  1.00  0.00    -0.046 C  
HETATM   32  C   UNK A   0      -5.968   6.592  71.093  1.00  0.00    -0.035 C  
ENDBRANCH  30  31
ENDBRANCH  28  30
ENDBRANCH  19  28
ENDBRANCH  17  19
ENDBRANCH  15  17
ENDBRANCH   8  15
TORSDOF 9
ENDMDL
MODEL      276
REMARK 921   NORMALIZED FREE ENERGY PREDICTED BY IDOCK:    4.96 KCAL/MOL
REMARK 922        TOTAL FREE ENERGY PREDICTED BY IDOCK:    5.62 KCAL/MOL
REMARK 923 INTER-LIGAND FREE ENERGY PREDICTED BY IDOCK:    0.42 KCAL/MOL
REMARK 924 INTRA-LIGAND FREE ENERGY PREDICTED BY IDOCK:    5.20 KCAL/MOL
REMARK 927      BINDING AFFINITY PREDICTED BY RF-SCORE:    0.00 PKD
ROOT
ATOM      1  C   ALA A   1      -6.129  16.484  70.230  1.00  0.00     0.023 C  
ATOM      2  C   ALA A   1      -6.921  17.250  69.184  1.00  0.00    -0.215 C  
ATOM      3  CA  ALA A   1      -7.294  16.139  68.191  1.00  0.00    -0.132 C  
ATOM      4  N   ALA A   1      -7.339  14.894  69.006  1.00  0.00    -0.132 N  
ATOM      5  C   ALA A   1      -6.267  16.083  67.059  1.00  0.00     0.071 C  
ATOM      6  C   ALA A   1      -6.961  15.207  70.388  1.00  0.00     0.235 C  
ATOM      7  O   ALA A   1      -5.363  15.088  67.193  1.00  0.00    -0.207 OA 
ATOM      8  C   ALA A   1      -8.153  13.791  68.720  1.00  0.00    -0.022 C  
ATOM      9  OXT ALA A   1      -6.235  16.891  66.142  1.00  0.00    -0.201 OA 
ATOM     10  C   ALA A   1      -5.905  17.171  71.564  1.00  0.00     1.235 C  
ATOM     11  O   ALA A   1      -8.348  12.907  69.556  1.00  0.00     0.922 OA 
ATOM     12  C   ALA A   1      -6.162  14.208  71.224  1.00  0.00     0.078 C  
ATOM     13  C   ALA A   1      -5.187  16.210  72.517  1.00  0.00     1.166 C  
ATOM     14  C   ALA A   1      -5.859  14.832  72.601  1.00  0.00     0.414 C  
ENDROOT
BRANCH   8  15
ATOM     15  CA  ALA A   1      -8.836  13.737  67.307  1.00  0.00    -0.220 C  
ATOM     16  CB  ALA A   1     -10.246  13.153  67.436  1.00  0.00    -0.232 C  
BRANCH  15  17
ATOM     17  N   ALA A   1      -7.996  12.964  66.371  1.00  0.00     0.008 NA 
ATOM     18  H   ALA A   1      -7.017  13.019  66.651  1.00  0.00     0.000 HD 
BRANCH  17  19
HETATM   19  C   UNK A   0      -8.392  11.546  66.185  1.00  0.00    -0.018 C  
BRANCH  19  20
HETATM   20  C   UNK A   0      -7.933  10.980  64.826  1.00  0.00     0.388 C  
BRANCH  20  21
HETATM   21  C   UNK A   0      -9.094  10.682  63.862  1.00  0.00    -0.244 C  
BRANCH  21  22
HETATM   22  C   UNK A   0     -10.330  11.459  64.244  1.00  0.00    -0.383 A  
HETATM   23  C   UNK A   0     -10.961  12.299  63.318  1.00  0.00    -0.373 A  
HETATM   24  C   UNK A   0     -10.887  11.316  65.523  1.00  0.00    -0.244 A  
HETATM   25  C   UNK A   0     -12.118  12.995  63.669  1.00  0.00    -0.604 A  
HETATM   26  C   UNK A   0     -12.044  12.014  65.873  1.00  0.00     0.029 A  
HETATM   27  C   UNK A   0     -12.659  12.854  64.947  1.00  0.00    -0.525 A  
ENDBRANCH  21  22
ENDBRANCH  20  21
ENDBRANCH  19  20
BRANCH  19  28
HETATM   28  C   UNK A   0      -7.774  10.698  67.316  1.00  0.00    -0.108 C  
HETATM   29  O   UNK A   0      -7.274  11.139  68.339  1.00  0.00    -0.074 OA 
BRANCH  28  30
HETATM   30  O   UNK A   0      -7.789   9.374  66.967  1.00  0.00    -0.098 OA 
BRANCH  30  31
HETATM   31  C   UNK A   0      -6.983   9.035  65.826  1.00  0.00    -0.080 C  
HETATM   32  C   UNK A   0      -5.841   8.151  66.299  1.00  0.00    -0.041 C  
ENDBRANCH  30  31
ENDBRANCH  28  30
ENDBRANCH  19  28
ENDBRANCH  17  19
ENDBRANCH  15  17
ENDBRANCH   8  15
TORSDOF 9
ENDMDL
MODEL      277
REMARK 921   NORMALIZED FREE ENERGY PREDICTED BY IDOCK:    6.93 KCAL/MOL
REMARK 922        TOTAL FREE ENERGY PREDICTED BY IDOCK:    8.63 KCAL/MOL
REMARK 923 INTER-LIGAND FREE ENERGY PREDICTED BY IDOCK:    5.04 KCAL/MOL
REMARK 924 INTRA-LIGAND FREE ENERGY PREDICTED BY IDOCK:    3.58 KCAL/MOL
REMARK 927      BINDING AFFINITY PREDICTED BY RF-SCORE:    0.00 PKD
ROOT
ATOM      1  C   ALA A   1     -12.237  15.590  72.919  1.00  0.00    -0.547 C  
ATOM      2  C   ALA A   1     -12.081  14.124  72.553  1.00  0.00     0.187 C  
ATOM      3  CA  ALA A   1     -11.812  14.199  71.042  1.00  0.00    -0.182 C  
ATOM      4  N   ALA A   1     -11.173  15.528  70.832  1.00  0.00    -0.348 N  
ATOM      5  C   ALA A   1     -13.120  14.030  70.268  1.00  0.00     0.168 C  
ATOM      6  C   ALA A   1     -11.109  16.242  72.112  1.00  0.00     0.736 C  
ATOM      7  O   ALA A   1     -13.639  15.193  69.814  1.00  0.00     0.747 OA 
ATOM      8  C   ALA A   1     -10.261  15.813  69.808  1.00  0.00    -0.290 C  
ATOM      9  OXT ALA A   1     -13.674  12.950  70.115  1.00  0.00     1.765 OA 
ATOM     10  C   ALA A   1     -12.146  15.946  74.390  1.00  0.00    -0.493 C  
ATOM     11  O   ALA A   1      -9.570  16.833  69.834  1.00  0.00     0.288 OA 
ATOM     12  C   ALA A   1     -11.287  17.759  72.168  1.00  0.00     2.362 C  
ATOM     13  C   ALA A   1     -12.219  17.468  74.551  1.00  0.00     0.496 C  
ATOM     14  C   ALA A   1     -11.236  18.217  73.640  1.00  0.00     1.761 C  
ENDROOT
BRANCH   8  15
ATOM     15  CA  ALA A   1     -10.125  14.770  68.642  1.00  0.00    -0.238 C  
ATOM     16  CB  ALA A   1     -10.974  15.216  67.448  1.00  0.00    -0.314 C  
BRANCH  15  17
ATOM     17  N   ALA A   1     -10.501  13.426  69.123  1.00  0.00    -0.433 NA 
ATOM     18  H   ALA A   1     -11.223  13.029  68.522  1.00  0.00     0.000 HD 
BRANCH  17  19
HETATM   19  C   UNK A   0      -9.378  12.468  69.272  1.00  0.00     0.907 C  
BRANCH  19  20
HETATM   20  C   UNK A   0      -9.659  11.120  68.575  1.00  0.00    -0.193 C  
BRANCH  20  21
HETATM   21  C   UNK A   0      -8.403  10.251  68.395  1.00  0.00    -0.119 C  
BRANCH  21  22
HETATM   22  C   UNK A   0      -8.440   9.508  67.082  1.00  0.00    -0.131 A  
HETATM   23  C   UNK A   0      -7.940   8.203  66.985  1.00  0.00    -0.104 A  
HETATM   24  C   UNK A   0      -9.016  10.101  65.950  1.00  0.00    -0.182 A  
HETATM   25  C   UNK A   0      -8.000   7.512  65.775  1.00  0.00    -0.117 A  
HETATM   26  C   UNK A   0      -9.075   9.408  64.740  1.00  0.00    -0.248 A  
HETATM   27  C   UNK A   0      -8.566   8.114  64.652  1.00  0.00     0.035 A  
ENDBRANCH  21  22
ENDBRANCH  20  21
ENDBRANCH  19  20
BRANCH  19  28
HETATM   28  C   UNK A   0      -8.102  13.088  68.665  1.00  0.00    -0.011 C  
HETATM   29  O   UNK A   0      -7.623  14.168  68.976  1.00  0.00    -0.120 OA 
BRANCH  28  30
HETATM   30  O   UNK A   0      -7.628  12.289  67.659  1.00  0.00    -0.122 OA 
BRANCH  30  31
HETATM   31  C   UNK A   0      -6.207  12.350  67.451  1.00  0.00    -0.158 C  
HETATM   32  C   UNK A   0      -5.861  11.452  66.275  1.00  0.00    -0.059 C  
ENDBRANCH  30  31
ENDBRANCH  28  30
ENDBRANCH  19  28
ENDBRANCH  17  19
ENDBRANCH  15  17
ENDBRANCH   8  15
TORSDOF 9
ENDMDL
MODEL      278
REMARK 921   NORMALIZED FREE ENERGY PREDICTED BY IDOCK:    7.49 KCAL/MOL
REMARK 922        TOTAL FREE ENERGY PREDICTED BY IDOCK:    9.49 KCAL/MOL
REMARK 923 INTER-LIGAND FREE ENERGY PREDICTED BY IDOCK:    5.95 KCAL/MOL
REMARK 924 INTRA-LIGAND FREE ENERGY PREDICTED BY IDOCK:    3.54 KCAL/MOL
REMARK 927      BINDING AFFINITY PREDICTED BY RF-SCORE:    0.00 PKD
ROOT
ATOM      1  C   ALA A   1     -10.537  14.447  65.050  1.00  0.00    -0.452 C  
ATOM      2  C   ALA A   1     -10.857  12.963  64.996  1.00  0.00    -0.323 C  
ATOM      3  CA  ALA A   1     -10.448  12.497  66.402  1.00  0.00    -0.247 C  
ATOM      4  N   ALA A   1     -10.618  13.697  67.268  1.00  0.00    -0.266 N  
ATOM      5  C   ALA A   1      -9.012  11.968  66.380  1.00  0.00    -0.161 C  
ATOM      6  C   ALA A   1     -11.044  14.832  66.444  1.00  0.00    -0.340 C  
ATOM      7  O   ALA A   1      -8.101  12.845  66.855  1.00  0.00    -0.097 OA 
ATOM      8  C   ALA A   1     -10.928  13.647  68.633  1.00  0.00    -0.267 C  
ATOM      9  OXT ALA A   1      -8.709  10.872  65.929  1.00  0.00    -0.176 OA 
ATOM     10  C   ALA A   1     -11.149  15.323  63.974  1.00  0.00     0.569 C  
ATOM     11  O   ALA A   1     -11.314  14.650  69.237  1.00  0.00    -0.257 OA 
ATOM     12  C   ALA A   1     -10.564  16.249  66.760  1.00  0.00    -0.257 C  
ATOM     13  C   ALA A   1     -10.804  16.789  64.254  1.00  0.00     1.175 C  
ATOM     14  C   ALA A   1     -11.117  17.217  65.695  1.00  0.00     0.262 C  
ENDROOT
BRANCH   8  15
ATOM     15  CA  ALA A   1     -10.801  12.261  69.360  1.00  0.00     0.047 C  
ATOM     16  CB  ALA A   1     -11.442  12.345  70.748  1.00  0.00     0.990 C  
BRANCH  15  17
ATOM     17  N   ALA A   1      -9.383  11.855  69.424  1.00  0.00     0.093 NA 
ATOM     18  H   ALA A   1      -8.826  12.595  69.851  1.00  0.00     0.000 HD 
BRANCH  17  19
HETATM   19  C   UNK A   0      -9.123  10.564  70.106  1.00  0.00     0.680 C  
BRANCH  19  20
HETATM   20  C   UNK A   0      -8.126  10.706  71.275  1.00  0.00     4.200 C  
BRANCH  20  21
HETATM   21  C   UNK A   0      -6.676  10.368  70.888  1.00  0.00     0.336 C  
BRANCH  21  22
HETATM   22  C   UNK A   0      -6.626   9.197  69.938  1.00  0.00    -0.047 A  
HETATM   23  C   UNK A   0      -5.563   8.286  69.981  1.00  0.00    -0.022 A  
HETATM   24  C   UNK A   0      -7.669   8.982  69.025  1.00  0.00    -0.089 A  
HETATM   25  C   UNK A   0      -5.535   7.191  69.118  1.00  0.00    -0.015 A  
HETATM   26  C   UNK A   0      -7.639   7.886  68.161  1.00  0.00    -0.116 A  
HETATM   27  C   UNK A   0      -6.572   6.991  68.207  1.00  0.00    -0.059 A  
ENDBRANCH  21  22
ENDBRANCH  20  21
ENDBRANCH  19  20
BRANCH  19  28
HETATM   28  C   UNK A   0     -10.454  10.003  70.649  1.00  0.00    -0.141 C  
HETATM   29  O   UNK A   0     -10.799  10.009  71.821  1.00  0.00     0.289 OA 
BRANCH  28  30
HETATM   30  O   UNK A   0     -11.163   9.418  69.634  1.00  0.00    -0.189 OA 
BRANCH  30  31
HETATM   31  C   UNK A   0     -10.872   8.028  69.411  1.00  0.00    -0.094 C  
HETATM   32  C   UNK A   0     -11.490   7.623  68.083  1.00  0.00     0.929 C  
ENDBRANCH  30  31
ENDBRANCH  28  30
ENDBRANCH  19  28
ENDBRANCH  17  19
ENDBRANCH  15  17
ENDBRANCH   8  15
TORSDOF 9
ENDMDL
MODEL      279
REMARK 921   NORMALIZED FREE ENERGY PREDICTED BY IDOCK:   15.15 KCAL/MOL
REMARK 922        TOTAL FREE ENERGY PREDICTED BY IDOCK:   21.18 KCAL/MOL
REMARK 923 INTER-LIGAND FREE ENERGY PREDICTED BY IDOCK:   -2.95 KCAL/MOL
REMARK 924 INTRA-LIGAND FREE ENERGY PREDICTED BY IDOCK:   24.13 KCAL/MOL
REMARK 927      BINDING AFFINITY PREDICTED BY RF-SCORE:    0.00 PKD
ROOT
ATOM      1  C   ALA A   1     -10.412  12.806  64.934  1.00  0.00    -0.342 C  
ATOM      2  C   ALA A   1      -9.921  13.927  65.834  1.00  0.00    -0.317 C  
ATOM      3  CA  ALA A   1      -9.763  13.207  67.182  1.00  0.00    -0.235 C  
ATOM      4  N   ALA A   1      -9.483  11.787  66.828  1.00  0.00    -0.188 N  
ATOM      5  C   ALA A   1     -11.031  13.381  68.020  1.00  0.00    -0.244 C  
ATOM      6  C   ALA A   1      -9.525  11.635  65.370  1.00  0.00    -0.171 C  
ATOM      7  O   ALA A   1     -11.844  12.301  68.009  1.00  0.00    -0.349 OA 
ATOM      8  C   ALA A   1      -8.727  10.912  67.617  1.00  0.00    -0.127 C  
ATOM      9  OXT ALA A   1     -11.310  14.416  68.607  1.00  0.00    -0.246 OA 
ATOM     10  C   ALA A   1     -10.330  13.039  63.438  1.00  0.00     0.700 C  
ATOM     11  O   ALA A   1      -8.308   9.845  67.164  1.00  0.00    -0.120 OA 
ATOM     12  C   ALA A   1     -10.067  10.355  64.735  1.00  0.00    -0.387 C  
ATOM     13  C   ALA A   1     -10.765  11.769  62.700  1.00  0.00     0.686 C  
ATOM     14  C   ALA A   1     -10.049  10.507  63.201  1.00  0.00    -0.081 C  
ENDROOT
BRANCH   8  15
ATOM     15  CA  ALA A   1      -8.404  11.351  69.090  1.00  0.00     0.137 C  
ATOM     16  CB  ALA A   1      -7.392  12.501  69.076  1.00  0.00     0.043 C  
BRANCH  15  17
ATOM     17  N   ALA A   1      -7.921  10.192  69.866  1.00  0.00    -0.270 NA 
ATOM     18  H   ALA A   1      -8.711   9.673  70.248  1.00  0.00     0.000 HD 
BRANCH  17  19
HETATM   19  C   UNK A   0      -7.013   9.274  69.136  1.00  0.00    -0.058 C  
BRANCH  19  20
HETATM   20  C   UNK A   0      -7.359   7.789  69.377  1.00  0.00    -0.086 C  
BRANCH  20  21
HETATM   21  C   UNK A   0      -7.806   7.492  70.818  1.00  0.00    -0.098 C  
BRANCH  21  22
HETATM   22  C   UNK A   0      -8.308   6.075  70.950  1.00  0.00    -0.126 A  
HETATM   23  C   UNK A   0      -9.673   5.813  71.121  1.00  0.00    -0.210 A  
HETATM   24  C   UNK A   0      -7.415   4.997  70.858  1.00  0.00    -0.077 A  
HETATM   25  C   UNK A   0     -10.134   4.500  71.216  1.00  0.00    -0.225 A  
HETATM   26  C   UNK A   0      -7.879   3.684  70.955  1.00  0.00    -0.047 A  
HETATM   27  C   UNK A   0      -9.238   3.435  71.134  1.00  0.00    -0.194 A  
ENDBRANCH  21  22
ENDBRANCH  20  21
ENDBRANCH  19  20
BRANCH  19  28
HETATM   28  C   UNK A   0      -7.104   9.570  67.625  1.00  0.00    -0.081 C  
HETATM   29  O   UNK A   0      -8.014   9.220  66.889  1.00  0.00    -0.104 OA 
BRANCH  28  30
HETATM   30  O   UNK A   0      -5.970  10.212  67.205  1.00  0.00    -0.053 OA 
BRANCH  30  31
HETATM   31  C   UNK A   0      -5.267  10.936  68.228  1.00  0.00    -0.040 C  
HETATM   32  C   UNK A   0      -5.368  10.146  69.522  1.00  0.00    -0.038 C  
ENDBRANCH  30  31
ENDBRANCH  28  30
ENDBRANCH  19  28
ENDBRANCH  17  19
ENDBRANCH  15  17
ENDBRANCH   8  15
TORSDOF 9
ENDMDL
MODEL      280
REMARK 921   NORMALIZED FREE ENERGY PREDICTED BY IDOCK:   16.51 KCAL/MOL
REMARK 922        TOTAL FREE ENERGY PREDICTED BY IDOCK:   23.24 KCAL/MOL
REMARK 923 INTER-LIGAND FREE ENERGY PREDICTED BY IDOCK:   -2.61 KCAL/MOL
REMARK 924 INTRA-LIGAND FREE ENERGY PREDICTED BY IDOCK:   25.86 KCAL/MOL
REMARK 927      BINDING AFFINITY PREDICTED BY RF-SCORE:    0.00 PKD
ROOT
ATOM      1  C   ALA A   1     -10.412  12.806  64.934  1.00  0.00    -0.342 C  
ATOM      2  C   ALA A   1      -9.921  13.927  65.834  1.00  0.00    -0.317 C  
ATOM      3  CA  ALA A   1      -9.763  13.207  67.182  1.00  0.00    -0.235 C  
ATOM      4  N   ALA A   1      -9.483  11.787  66.828  1.00  0.00    -0.188 N  
ATOM      5  C   ALA A   1     -11.031  13.381  68.020  1.00  0.00    -0.244 C  
ATOM      6  C   ALA A   1      -9.525  11.635  65.370  1.00  0.00    -0.171 C  
ATOM      7  O   ALA A   1     -11.844  12.301  68.009  1.00  0.00    -0.349 OA 
ATOM      8  C   ALA A   1      -8.727  10.912  67.617  1.00  0.00    -0.127 C  
ATOM      9  OXT ALA A   1     -11.310  14.416  68.607  1.00  0.00    -0.246 OA 
ATOM     10  C   ALA A   1     -10.330  13.039  63.438  1.00  0.00     0.700 C  
ATOM     11  O   ALA A   1      -8.308   9.845  67.164  1.00  0.00    -0.120 OA 
ATOM     12  C   ALA A   1     -10.067  10.355  64.735  1.00  0.00    -0.387 C  
ATOM     13  C   ALA A   1     -10.765  11.769  62.700  1.00  0.00     0.686 C  
ATOM     14  C   ALA A   1     -10.049  10.507  63.201  1.00  0.00    -0.081 C  
ENDROOT
BRANCH   8  15
ATOM     15  CA  ALA A   1      -8.404  11.351  69.090  1.00  0.00     0.137 C  
ATOM     16  CB  ALA A   1      -7.392  12.501  69.076  1.00  0.00     0.043 C  
BRANCH  15  17
ATOM     17  N   ALA A   1      -7.921  10.192  69.866  1.00  0.00    -0.270 NA 
ATOM     18  H   ALA A   1      -8.711   9.673  70.248  1.00  0.00     0.000 HD 
BRANCH  17  19
HETATM   19  C   UNK A   0      -7.013   9.274  69.136  1.00  0.00    -0.058 C  
BRANCH  19  20
HETATM   20  C   UNK A   0      -7.359   7.789  69.377  1.00  0.00    -0.086 C  
BRANCH  20  21
HETATM   21  C   UNK A   0      -6.539   6.821  68.509  1.00  0.00    -0.058 C  
BRANCH  21  22
HETATM   22  C   UNK A   0      -7.390   6.212  67.422  1.00  0.00    -0.077 A  
HETATM   23  C   UNK A   0      -8.460   6.925  66.868  1.00  0.00    -0.115 A  
HETATM   24  C   UNK A   0      -7.092   4.935  66.923  1.00  0.00    -0.072 A  
HETATM   25  C   UNK A   0      -9.228   6.367  65.846  1.00  0.00    -0.033 A  
HETATM   26  C   UNK A   0      -7.862   4.378  65.901  1.00  0.00    -0.095 A  
HETATM   27  C   UNK A   0      -8.930   5.093  65.363  1.00  0.00    -0.157 A  
ENDBRANCH  21  22
ENDBRANCH  20  21
ENDBRANCH  19  20
BRANCH  19  28
HETATM   28  C   UNK A   0      -7.104   9.570  67.625  1.00  0.00    -0.081 C  
HETATM   29  O   UNK A   0      -8.014   9.220  66.889  1.00  0.00    -0.104 OA 
BRANCH  28  30
HETATM   30  O   UNK A   0      -5.970  10.212  67.205  1.00  0.00    -0.053 OA 
BRANCH  30  31
HETATM   31  C   UNK A   0      -5.827  10.329  65.780  1.00  0.00    -0.092 C  
HETATM   32  C   UNK A   0      -7.206  10.563  65.184  1.00  0.00    -0.021 C  
ENDBRANCH  30  31
ENDBRANCH  28  30
ENDBRANCH  19  28
ENDBRANCH  17  19
ENDBRANCH  15  17
ENDBRANCH   8  15
TORSDOF 9
ENDMDL
MODEL      281
REMARK 921   NORMALIZED FREE ENERGY PREDICTED BY IDOCK:   19.50 KCAL/MOL
REMARK 922        TOTAL FREE ENERGY PREDICTED BY IDOCK:   27.82 KCAL/MOL
REMARK 923 INTER-LIGAND FREE ENERGY PREDICTED BY IDOCK:   23.96 KCAL/MOL
REMARK 924 INTRA-LIGAND FREE ENERGY PREDICTED BY IDOCK:    3.85 KCAL/MOL
REMARK 927      BINDING AFFINITY PREDICTED BY RF-SCORE:    0.00 PKD
ROOT
ATOM      1  C   ALA A   1      -7.608  11.329  71.369  1.00  0.00     6.119 C  
ATOM      2  C   ALA A   1      -9.103  11.538  71.194  1.00  0.00     8.957 C  
ATOM      3  CA  ALA A   1      -9.176  12.148  69.786  1.00  0.00     2.253 C  
ATOM      4  N   ALA A   1      -7.981  11.615  69.074  1.00  0.00    -0.009 N  
ATOM      5  C   ALA A   1      -9.192  13.675  69.877  1.00  0.00     2.158 C  
ATOM      6  C   ALA A   1      -7.199  10.785  69.996  1.00  0.00     0.047 C  
ATOM      7  O   ALA A   1      -7.997  14.249  69.614  1.00  0.00     0.209 OA 
ATOM      8  C   ALA A   1      -7.915  11.404  67.691  1.00  0.00    -0.123 C  
ATOM      9  OXT ALA A   1     -10.179  14.316  70.206  1.00  0.00     0.614 OA 
ATOM     10  C   ALA A   1      -7.169  10.403  72.488  1.00  0.00     4.504 C  
ATOM     11  O   ALA A   1      -7.016  10.724  67.191  1.00  0.00    -0.082 OA 
ATOM     12  C   ALA A   1      -5.672  10.761  69.920  1.00  0.00    -0.063 C  
ATOM     13  C   ALA A   1      -5.647  10.234  72.440  1.00  0.00     0.433 C  
ATOM     14  C   ALA A   1      -5.126   9.859  71.045  1.00  0.00    -0.051 C  
ENDROOT
BRANCH   8  15
ATOM     15  CA  ALA A   1      -9.045  12.035  66.803  1.00  0.00    -0.197 C  
ATOM     16  CB  ALA A   1      -8.802  11.686  65.331  1.00  0.00     0.171 C  
BRANCH  15  17
ATOM     17  N   ALA A   1      -9.106  13.493  67.027  1.00  0.00    -0.237 NA 
ATOM     18  H   ALA A   1      -8.173  13.897  66.957  1.00  0.00     0.000 HD 
BRANCH  17  19
HETATM   19  C   UNK A   0     -10.048  14.231  66.150  1.00  0.00    -0.313 C  
BRANCH  19  20
HETATM   20  C   UNK A   0      -9.394  15.460  65.486  1.00  0.00    -0.037 C  
BRANCH  20  21
HETATM   21  C   UNK A   0      -8.274  16.089  66.331  1.00  0.00    -0.309 C  
BRANCH  21  22
HETATM   22  C   UNK A   0      -8.343  17.596  66.291  1.00  0.00    -0.251 A  
HETATM   23  C   UNK A   0      -9.354  18.284  66.974  1.00  0.00    -0.274 A  
HETATM   24  C   UNK A   0      -7.368  18.329  65.600  1.00  0.00    -0.074 A  
HETATM   25  C   UNK A   0      -9.398  19.678  66.954  1.00  0.00    -0.445 A  
HETATM   26  C   UNK A   0      -7.414  19.724  65.581  1.00  0.00    -0.269 A  
HETATM   27  C   UNK A   0      -8.429  20.399  66.256  1.00  0.00    -0.084 A  
ENDBRANCH  21  22
ENDBRANCH  20  21
ENDBRANCH  19  20
BRANCH  19  28
HETATM   28  C   UNK A   0     -10.562  13.280  65.048  1.00  0.00    -0.346 C  
HETATM   29  O   UNK A   0     -10.507  13.494  63.847  1.00  0.00    -0.196 OA 
BRANCH  28  30
HETATM   30  O   UNK A   0     -11.168  12.192  65.617  1.00  0.00    -0.312 OA 
BRANCH  30  31
HETATM   31  C   UNK A   0     -12.333  12.487  66.405  1.00  0.00     0.209 C  
HETATM   32  C   UNK A   0     -12.526  11.359  67.405  1.00  0.00     1.963 C  
ENDBRANCH  30  31
ENDBRANCH  28  30
ENDBRANCH  19  28
ENDBRANCH  17  19
ENDBRANCH  15  17
ENDBRANCH   8  15
TORSDOF 9
ENDMDL
MODEL      282
REMARK 921   NORMALIZED FREE ENERGY PREDICTED BY IDOCK:   23.12 KCAL/MOL
REMARK 922        TOTAL FREE ENERGY PREDICTED BY IDOCK:   33.34 KCAL/MOL
REMARK 923 INTER-LIGAND FREE ENERGY PREDICTED BY IDOCK:   26.37 KCAL/MOL
REMARK 924 INTRA-LIGAND FREE ENERGY PREDICTED BY IDOCK:    6.97 KCAL/MOL
REMARK 927      BINDING AFFINITY PREDICTED BY RF-SCORE:    0.00 PKD
ROOT
ATOM      1  C   ALA A   1      -7.234  18.031  66.982  1.00  0.00    -0.219 C  
ATOM      2  C   ALA A   1      -5.924  17.327  67.290  1.00  0.00    -0.168 C  
ATOM      3  CA  ALA A   1      -6.376  16.224  68.260  1.00  0.00    -0.124 C  
ATOM      4  N   ALA A   1      -7.791  15.945  67.891  1.00  0.00    -0.135 N  
ATOM      5  C   ALA A   1      -6.211  16.698  69.705  1.00  0.00    -0.209 C  
ATOM      6  C   ALA A   1      -8.198  16.851  66.813  1.00  0.00    -0.240 C  
ATOM      7  O   ALA A   1      -7.365  17.102  70.280  1.00  0.00     1.243 OA 
ATOM      8  C   ALA A   1      -8.421  14.705  68.059  1.00  0.00    -0.154 C  
ATOM      9  OXT ALA A   1      -5.130  16.754  70.273  1.00  0.00    -0.168 OA 
ATOM     10  C   ALA A   1      -7.256  18.945  65.772  1.00  0.00    -0.246 C  
ATOM     11  O   ALA A   1      -9.492  14.453  67.505  1.00  0.00    -0.201 OA 
ATOM     12  C   ALA A   1      -9.625  17.397  66.749  1.00  0.00    -0.283 C  
ATOM     13  C   ALA A   1      -8.678  19.476  65.561  1.00  0.00     0.592 C  
ATOM     14  C   ALA A   1      -9.740  18.366  65.556  1.00  0.00     0.766 C  
ENDROOT
BRANCH   8  15
ATOM     15  CA  ALA A   1      -7.697  13.635  68.952  1.00  0.00     0.005 C  
ATOM     16  CB  ALA A   1      -6.733  12.811  68.092  1.00  0.00    -0.092 C  
BRANCH  15  17
ATOM     17  N   ALA A   1      -8.697  12.789  69.633  1.00  0.00     1.119 NA 
ATOM     18  H   ALA A   1      -9.579  12.808  69.121  1.00  0.00     0.000 HD 
BRANCH  17  19
HETATM   19  C   UNK A   0      -8.281  11.387  69.879  1.00  0.00     1.413 C  
BRANCH  19  20
HETATM   20  C   UNK A   0      -7.832  11.153  71.337  1.00  0.00     6.522 C  
BRANCH  20  21
HETATM   21  C   UNK A   0      -8.555   9.980  72.019  1.00  0.00     4.049 C  
BRANCH  21  22
HETATM   22  C   UNK A   0     -10.053  10.129  71.914  1.00  0.00     3.211 A  
HETATM   23  C   UNK A   0     -10.693  11.278  72.396  1.00  0.00     9.879 A  
HETATM   24  C   UNK A   0     -10.820   9.134  71.291  1.00  0.00    -0.402 A  
HETATM   25  C   UNK A   0     -12.074  11.422  72.273  1.00  0.00     2.106 A  
HETATM   26  C   UNK A   0     -12.203   9.280  71.170  1.00  0.00    -0.373 A  
HETATM   27  C   UNK A   0     -12.831  10.423  71.661  1.00  0.00    -0.579 A  
ENDBRANCH  21  22
ENDBRANCH  20  21
ENDBRANCH  19  20
BRANCH  19  28
HETATM   28  C   UNK A   0      -9.463  10.447  69.563  1.00  0.00    -0.139 C  
HETATM   29  O   UNK A   0      -9.391   9.233  69.448  1.00  0.00    -0.153 OA 
BRANCH  28  30
HETATM   30  O   UNK A   0     -10.598  11.182  69.344  1.00  0.00    -0.208 OA 
BRANCH  30  31
HETATM   31  C   UNK A   0     -10.815  11.575  67.979  1.00  0.00    -0.213 C  
HETATM   32  C   UNK A   0     -10.919  10.316  67.134  1.00  0.00    -0.233 C  
ENDBRANCH  30  31
ENDBRANCH  28  30
ENDBRANCH  19  28
ENDBRANCH  17  19
ENDBRANCH  15  17
ENDBRANCH   8  15
TORSDOF 9
ENDMDL
MODEL      283
REMARK 921   NORMALIZED FREE ENERGY PREDICTED BY IDOCK:   47.49 KCAL/MOL
REMARK 922        TOTAL FREE ENERGY PREDICTED BY IDOCK:   70.54 KCAL/MOL
REMARK 923 INTER-LIGAND FREE ENERGY PREDICTED BY IDOCK:   33.30 KCAL/MOL
REMARK 924 INTRA-LIGAND FREE ENERGY PREDICTED BY IDOCK:   37.24 KCAL/MOL
REMARK 927      BINDING AFFINITY PREDICTED BY RF-SCORE:    0.00 PKD
ROOT
ATOM      1  C   ALA A   1      -8.976  11.699  67.644  1.00  0.00    -0.166 C  
ATOM      2  C   ALA A   1      -9.646  11.954  66.304  1.00  0.00    -0.243 C  
ATOM      3  CA  ALA A   1     -10.647  13.065  66.655  1.00  0.00    -0.266 C  
ATOM      4  N   ALA A   1     -10.037  13.782  67.809  1.00  0.00    -0.240 N  
ATOM      5  C   ALA A   1     -12.013  12.456  66.979  1.00  0.00    -0.186 C  
ATOM      6  C   ALA A   1      -8.780  13.122  68.178  1.00  0.00    -0.193 C  
ATOM      7  O   ALA A   1     -12.273  12.374  68.302  1.00  0.00    -0.275 OA 
ATOM      8  C   ALA A   1     -10.244  15.137  68.096  1.00  0.00    -0.227 C  
ATOM      9  OXT ALA A   1     -12.780  12.037  66.123  1.00  0.00     0.482 OA 
ATOM     10  C   ALA A   1      -7.671  10.927  67.625  1.00  0.00    -0.108 C  
ATOM     11  O   ALA A   1      -9.520  15.739  68.892  1.00  0.00    -0.201 OA 
ATOM     12  C   ALA A   1      -8.345  13.035  69.641  1.00  0.00     1.710 C  
ATOM     13  C   ALA A   1      -7.097  10.864  69.044  1.00  0.00    -0.095 C  
ATOM     14  C   ALA A   1      -7.029  12.237  69.728  1.00  0.00     0.337 C  
ENDROOT
BRANCH   8  15
ATOM     15  CA  ALA A   1     -11.409  15.872  67.343  1.00  0.00    -0.048 C  
ATOM     16  CB  ALA A   1     -10.916  16.361  65.978  1.00  0.00     0.029 C  
BRANCH  15  17
ATOM     17  N   ALA A   1     -11.930  16.974  68.175  1.00  0.00     0.898 NA 
ATOM     18  H   ALA A   1     -11.985  16.681  69.150  1.00  0.00     0.000 HD 
BRANCH  17  19
HETATM   19  C   UNK A   0     -11.188  18.254  68.069  1.00  0.00     0.464 C  
BRANCH  19  20
HETATM   20  C   UNK A   0      -9.669  18.042  67.896  1.00  0.00    -0.297 C  
BRANCH  20  21
HETATM   21  C   UNK A   0      -8.895  18.047  69.225  1.00  0.00     0.274 C  
BRANCH  21  22
HETATM   22  C   UNK A   0      -8.440  16.657  69.595  1.00  0.00     0.586 A  
HETATM   23  C   UNK A   0      -8.699  16.135  70.869  1.00  0.00     3.726 A  
HETATM   24  C   UNK A   0      -7.787  15.853  68.650  1.00  0.00    -0.164 A  
HETATM   25  C   UNK A   0      -8.298  14.840  71.197  1.00  0.00     3.270 A  
HETATM   26  C   UNK A   0      -7.385  14.558  68.981  1.00  0.00    -0.132 A  
HETATM   27  C   UNK A   0      -7.640  14.051  70.253  1.00  0.00     1.218 A  
ENDBRANCH  21  22
ENDBRANCH  20  21
ENDBRANCH  19  20
BRANCH  19  28
HETATM   28  C   UNK A   0     -11.722  19.049  66.859  1.00  0.00     1.652 C  
HETATM   29  O   UNK A   0     -11.795  18.630  65.714  1.00  0.00     2.085 OA 
BRANCH  28  30
HETATM   30  O   UNK A   0     -12.028  20.328  67.239  1.00  0.00     1.622 OA 
BRANCH  30  31
HETATM   31  C   UNK A   0     -13.144  20.918  66.552  1.00  0.00     7.288 C  
HETATM   32  C   UNK A   0     -13.086  20.485  65.096  1.00  0.00    10.500 C  
ENDBRANCH  30  31
ENDBRANCH  28  30
ENDBRANCH  19  28
ENDBRANCH  17  19
ENDBRANCH  15  17
ENDBRANCH   8  15
TORSDOF 9
ENDMDL
