MODEL        1
REMARK 921   NORMALIZED FREE ENERGY PREDICTED BY IDOCK:   -4.84 KCAL/MOL
REMARK 922        TOTAL FREE ENERGY PREDICTED BY IDOCK:   -5.22 KCAL/MOL
REMARK 923 INTER-LIGAND FREE ENERGY PREDICTED BY IDOCK:   -5.13 KCAL/MOL
REMARK 924 INTRA-LIGAND FREE ENERGY PREDICTED BY IDOCK:   -0.09 KCAL/MOL
REMARK 927      BINDING AFFINITY PREDICTED BY RF-SCORE:    0.00 PKD
ROOT
HETATM    1  N   UNL     1     -13.188  16.194  73.730  1.00  0.00    -0.902 NA 
HETATM    2  C   UNL     1     -13.638  15.046  72.941  1.00  0.00    -0.426 C  
HETATM    3  H1  UNL     1     -12.696  16.043  74.611  1.00  0.00     0.000 HD 
HETATM    4  H2  UNL     1     -13.990  16.800  73.905  1.00  0.00     0.000 HD 
HETATM    5  C   UNL     1     -14.359  15.266  71.647  1.00  0.00    -0.666 C  
HETATM    6  C   UNL     1     -12.948  14.721  71.633  1.00  0.00    -0.411 C  
ENDROOT
BRANCH   6   7
HETATM    7  C   UNL     1     -12.708  13.282  71.239  1.00  0.00    -0.411 A  
HETATM    8  C   UNL     1     -13.197  12.221  72.020  1.00  0.00    -0.508 A  
HETATM    9  C   UNL     1     -12.977  10.888  71.658  1.00  0.00    -0.569 A  
HETATM   10  C   UNL     1     -12.268  10.589  70.500  1.00  0.00    -0.435 A  
HETATM   11  C   UNL     1     -11.785  11.622  69.700  1.00  0.00    -0.418 A  
HETATM   12  C   UNL     1     -12.011  12.951  70.065  1.00  0.00    -0.380 A  
ENDBRANCH   6   7
TORSDOF 1
ENDMDL
MODEL        2
REMARK 921   NORMALIZED FREE ENERGY PREDICTED BY IDOCK:   -4.73 KCAL/MOL
REMARK 922        TOTAL FREE ENERGY PREDICTED BY IDOCK:   -5.10 KCAL/MOL
REMARK 923 INTER-LIGAND FREE ENERGY PREDICTED BY IDOCK:   -5.01 KCAL/MOL
REMARK 924 INTRA-LIGAND FREE ENERGY PREDICTED BY IDOCK:   -0.09 KCAL/MOL
REMARK 927      BINDING AFFINITY PREDICTED BY RF-SCORE:    0.00 PKD
ROOT
HETATM    1  N   UNL     1     -12.999  16.271  73.834  1.00  0.00    -0.841 NA 
HETATM    2  C   UNL     1     -13.522  15.110  73.113  1.00  0.00    -0.373 C  
HETATM    3  H1  UNL     1     -12.418  16.136  74.662  1.00  0.00     0.000 HD 
HETATM    4  H2  UNL     1     -13.781  16.877  74.082  1.00  0.00     0.000 HD 
HETATM    5  C   UNL     1     -14.374  15.308  71.898  1.00  0.00    -0.691 C  
HETATM    6  C   UNL     1     -12.970  14.767  71.745  1.00  0.00    -0.410 C  
ENDROOT
BRANCH   6   7
HETATM    7  C   UNL     1     -12.765  13.324  71.350  1.00  0.00    -0.401 A  
HETATM    8  C   UNL     1     -12.100  12.981  70.160  1.00  0.00    -0.377 A  
HETATM    9  C   UNL     1     -11.908  11.646  69.791  1.00  0.00    -0.428 A  
HETATM   10  C   UNL     1     -12.372  10.623  70.612  1.00  0.00    -0.462 A  
HETATM   11  C   UNL     1     -13.021  10.935  71.804  1.00  0.00    -0.557 A  
HETATM   12  C   UNL     1     -13.207  12.271  72.168  1.00  0.00    -0.466 A  
ENDBRANCH   6   7
TORSDOF 1
ENDMDL
MODEL        3
REMARK 921   NORMALIZED FREE ENERGY PREDICTED BY IDOCK:   -4.67 KCAL/MOL
REMARK 922        TOTAL FREE ENERGY PREDICTED BY IDOCK:   -5.03 KCAL/MOL
REMARK 923 INTER-LIGAND FREE ENERGY PREDICTED BY IDOCK:   -4.94 KCAL/MOL
REMARK 924 INTRA-LIGAND FREE ENERGY PREDICTED BY IDOCK:   -0.09 KCAL/MOL
REMARK 927      BINDING AFFINITY PREDICTED BY RF-SCORE:    0.00 PKD
ROOT
HETATM    1  N   UNL     1     -11.471  16.318  64.060  1.00  0.00    -1.521 NA 
HETATM    2  C   UNL     1     -11.298  15.085  64.829  1.00  0.00    -0.406 C  
HETATM    3  H1  UNL     1     -10.660  16.770  63.635  1.00  0.00     0.000 HD 
HETATM    4  H2  UNL     1     -11.952  17.000  64.646  1.00  0.00     0.000 HD 
HETATM    5  C   UNL     1     -12.487  14.421  65.451  1.00  0.00    -0.357 C  
HETATM    6  C   UNL     1     -11.806  13.774  64.265  1.00  0.00    -0.451 C  
ENDROOT
BRANCH   6   7
HETATM    7  C   UNL     1     -11.011  12.505  64.461  1.00  0.00    -0.359 A  
HETATM    8  C   UNL     1     -10.321  11.904  63.394  1.00  0.00    -0.481 A  
HETATM    9  C   UNL     1      -9.583  10.730  63.572  1.00  0.00    -0.359 A  
HETATM   10  C   UNL     1      -9.515  10.134  64.827  1.00  0.00    -0.355 A  
HETATM   11  C   UNL     1     -10.178  10.716  65.905  1.00  0.00    -0.314 A  
HETATM   12  C   UNL     1     -10.910  11.892  65.721  1.00  0.00    -0.341 A  
ENDBRANCH   6   7
TORSDOF 1
ENDMDL
MODEL        4
REMARK 921   NORMALIZED FREE ENERGY PREDICTED BY IDOCK:   -4.66 KCAL/MOL
REMARK 922        TOTAL FREE ENERGY PREDICTED BY IDOCK:   -5.02 KCAL/MOL
REMARK 923 INTER-LIGAND FREE ENERGY PREDICTED BY IDOCK:   -4.93 KCAL/MOL
REMARK 924 INTRA-LIGAND FREE ENERGY PREDICTED BY IDOCK:   -0.09 KCAL/MOL
REMARK 927      BINDING AFFINITY PREDICTED BY RF-SCORE:    0.00 PKD
ROOT
HETATM    1  N   UNL     1     -11.500  16.242  63.830  1.00  0.00    -1.539 NA 
HETATM    2  C   UNL     1     -12.040  15.090  64.554  1.00  0.00    -0.363 C  
HETATM    3  H1  UNL     1     -11.458  17.154  64.286  1.00  0.00     0.000 HD 
HETATM    4  H2  UNL     1     -12.012  16.342  62.953  1.00  0.00     0.000 HD 
HETATM    5  C   UNL     1     -12.102  13.751  63.885  1.00  0.00    -0.423 C  
HETATM    6  C   UNL     1     -11.107  13.983  65.001  1.00  0.00    -0.364 C  
ENDROOT
BRANCH   6   7
HETATM    7  C   UNL     1     -11.313  13.311  66.338  1.00  0.00    -0.341 A  
HETATM    8  C   UNL     1     -11.088  11.933  66.504  1.00  0.00    -0.357 A  
HETATM    9  C   UNL     1     -11.277  11.308  67.739  1.00  0.00    -0.354 A  
HETATM   10  C   UNL     1     -11.690  12.051  68.840  1.00  0.00    -0.383 A  
HETATM   11  C   UNL     1     -11.907  13.420  68.707  1.00  0.00    -0.386 A  
HETATM   12  C   UNL     1     -11.713  14.040  67.470  1.00  0.00    -0.421 A  
ENDBRANCH   6   7
TORSDOF 1
ENDMDL
MODEL        5
REMARK 921   NORMALIZED FREE ENERGY PREDICTED BY IDOCK:   -4.61 KCAL/MOL
REMARK 922        TOTAL FREE ENERGY PREDICTED BY IDOCK:   -4.97 KCAL/MOL
REMARK 923 INTER-LIGAND FREE ENERGY PREDICTED BY IDOCK:   -4.88 KCAL/MOL
REMARK 924 INTRA-LIGAND FREE ENERGY PREDICTED BY IDOCK:   -0.09 KCAL/MOL
REMARK 927      BINDING AFFINITY PREDICTED BY RF-SCORE:    0.00 PKD
ROOT
HETATM    1  N   UNL     1     -11.809  16.012  63.733  1.00  0.00    -1.306 NA 
HETATM    2  C   UNL     1     -12.213  14.819  64.479  1.00  0.00    -0.428 C  
HETATM    3  H1  UNL     1     -11.949  16.937  64.139  1.00  0.00     0.000 HD 
HETATM    4  H2  UNL     1     -12.259  15.988  62.817  1.00  0.00     0.000 HD 
HETATM    5  C   UNL     1     -12.007  13.461  63.883  1.00  0.00    -0.520 C  
HETATM    6  C   UNL     1     -11.153  13.901  65.051  1.00  0.00    -0.353 C  
ENDROOT
BRANCH   6   7
HETATM    7  C   UNL     1     -11.355  13.262  66.405  1.00  0.00    -0.341 A  
HETATM    8  C   UNL     1     -11.685  14.032  67.534  1.00  0.00    -0.421 A  
HETATM    9  C   UNL     1     -11.873  13.444  68.788  1.00  0.00    -0.386 A  
HETATM   10  C   UNL     1     -11.741  12.068  68.938  1.00  0.00    -0.383 A  
HETATM   11  C   UNL     1     -11.429  11.279  67.834  1.00  0.00    -0.360 A  
HETATM   12  C   UNL     1     -11.246  11.872  66.582  1.00  0.00    -0.384 A  
ENDBRANCH   6   7
TORSDOF 1
ENDMDL
MODEL        6
REMARK 921   NORMALIZED FREE ENERGY PREDICTED BY IDOCK:   -4.57 KCAL/MOL
REMARK 922        TOTAL FREE ENERGY PREDICTED BY IDOCK:   -4.93 KCAL/MOL
REMARK 923 INTER-LIGAND FREE ENERGY PREDICTED BY IDOCK:   -4.85 KCAL/MOL
REMARK 924 INTRA-LIGAND FREE ENERGY PREDICTED BY IDOCK:   -0.09 KCAL/MOL
REMARK 927      BINDING AFFINITY PREDICTED BY RF-SCORE:    0.00 PKD
ROOT
HETATM    1  N   UNL     1     -11.715  16.229  63.784  1.00  0.00    -1.488 NA 
HETATM    2  C   UNL     1     -11.658  15.200  64.822  1.00  0.00    -0.364 C  
HETATM    3  H1  UNL     1     -12.550  16.807  63.685  1.00  0.00     0.000 HD 
HETATM    4  H2  UNL     1     -11.515  15.792  62.884  1.00  0.00     0.000 HD 
HETATM    5  C   UNL     1     -10.432  14.352  64.968  1.00  0.00    -0.454 C  
HETATM    6  C   UNL     1     -10.750  15.393  66.019  1.00  0.00    -0.326 C  
ENDROOT
BRANCH   6   7
HETATM    7  C   UNL     1     -11.200  14.954  67.392  1.00  0.00    -0.343 A  
HETATM    8  C   UNL     1     -11.398  15.884  68.427  1.00  0.00    -0.361 A  
HETATM    9  C   UNL     1     -11.816  15.481  69.699  1.00  0.00    -0.384 A  
HETATM   10  C   UNL     1     -12.052  14.135  69.961  1.00  0.00    -0.409 A  
HETATM   11  C   UNL     1     -11.876  13.194  68.949  1.00  0.00    -0.361 A  
HETATM   12  C   UNL     1     -11.463  13.604  67.679  1.00  0.00    -0.357 A  
ENDBRANCH   6   7
TORSDOF 1
ENDMDL
MODEL        7
REMARK 921   NORMALIZED FREE ENERGY PREDICTED BY IDOCK:   -4.56 KCAL/MOL
REMARK 922        TOTAL FREE ENERGY PREDICTED BY IDOCK:   -4.92 KCAL/MOL
REMARK 923 INTER-LIGAND FREE ENERGY PREDICTED BY IDOCK:   -4.83 KCAL/MOL
REMARK 924 INTRA-LIGAND FREE ENERGY PREDICTED BY IDOCK:   -0.09 KCAL/MOL
REMARK 927      BINDING AFFINITY PREDICTED BY RF-SCORE:    0.00 PKD
ROOT
HETATM    1  N   UNL     1     -12.700  15.889  74.355  1.00  0.00    -0.921 NA 
HETATM    2  C   UNL     1     -13.023  15.088  73.173  1.00  0.00    -0.522 C  
HETATM    3  H1  UNL     1     -11.851  15.693  74.886  1.00  0.00     0.000 HD 
HETATM    4  H2  UNL     1     -13.496  15.858  74.993  1.00  0.00     0.000 HD 
HETATM    5  C   UNL     1     -14.268  15.376  72.394  1.00  0.00    -0.584 C  
HETATM    6  C   UNL     1     -12.919  15.712  71.797  1.00  0.00    -0.541 C  
ENDROOT
BRANCH   6   7
HETATM    7  C   UNL     1     -12.395  14.901  70.634  1.00  0.00    -0.406 A  
HETATM    8  C   UNL     1     -12.399  13.496  70.664  1.00  0.00    -0.432 A  
HETATM    9  C   UNL     1     -11.916  12.743  69.590  1.00  0.00    -0.354 A  
HETATM   10  C   UNL     1     -11.422  13.383  68.457  1.00  0.00    -0.345 A  
HETATM   11  C   UNL     1     -11.419  14.774  68.396  1.00  0.00    -0.336 A  
HETATM   12  C   UNL     1     -11.908  15.521  69.471  1.00  0.00    -0.390 A  
ENDBRANCH   6   7
TORSDOF 1
ENDMDL
MODEL        8
REMARK 921   NORMALIZED FREE ENERGY PREDICTED BY IDOCK:   -4.52 KCAL/MOL
REMARK 922        TOTAL FREE ENERGY PREDICTED BY IDOCK:   -4.88 KCAL/MOL
REMARK 923 INTER-LIGAND FREE ENERGY PREDICTED BY IDOCK:   -4.79 KCAL/MOL
REMARK 924 INTRA-LIGAND FREE ENERGY PREDICTED BY IDOCK:   -0.09 KCAL/MOL
REMARK 927      BINDING AFFINITY PREDICTED BY RF-SCORE:    0.00 PKD
ROOT
HETATM    1  N   UNL     1     -12.385  14.104  66.893  1.00  0.00    -0.565 NA 
HETATM    2  C   UNL     1     -11.909  13.992  68.273  1.00  0.00    -0.371 C  
HETATM    3  H1  UNL     1     -13.300  13.730  66.639  1.00  0.00     0.000 HD 
HETATM    4  H2  UNL     1     -11.684  13.694  66.275  1.00  0.00     0.000 HD 
HETATM    5  C   UNL     1     -10.567  14.542  68.646  1.00  0.00    -0.255 C  
HETATM    6  C   UNL     1     -11.820  15.234  69.136  1.00  0.00    -0.345 C  
ENDROOT
BRANCH   6   7
HETATM    7  C   UNL     1     -12.185  15.167  70.600  1.00  0.00    -0.401 A  
HETATM    8  C   UNL     1     -12.886  14.069  71.128  1.00  0.00    -0.427 A  
HETATM    9  C   UNL     1     -13.225  14.004  72.482  1.00  0.00    -0.602 A  
HETATM   10  C   UNL     1     -12.862  15.036  73.342  1.00  0.00    -0.652 A  
HETATM   11  C   UNL     1     -12.155  16.129  72.848  1.00  0.00    -0.643 A  
HETATM   12  C   UNL     1     -11.816  16.186  71.493  1.00  0.00    -0.528 A  
ENDBRANCH   6   7
TORSDOF 1
ENDMDL
MODEL        9
REMARK 921   NORMALIZED FREE ENERGY PREDICTED BY IDOCK:   -4.48 KCAL/MOL
REMARK 922        TOTAL FREE ENERGY PREDICTED BY IDOCK:   -4.83 KCAL/MOL
REMARK 923 INTER-LIGAND FREE ENERGY PREDICTED BY IDOCK:   -4.74 KCAL/MOL
REMARK 924 INTRA-LIGAND FREE ENERGY PREDICTED BY IDOCK:   -0.09 KCAL/MOL
REMARK 927      BINDING AFFINITY PREDICTED BY RF-SCORE:    0.00 PKD
ROOT
HETATM    1  N   UNL     1     -12.409  13.842  63.207  1.00  0.00    -1.124 NA 
HETATM    2  C   UNL     1     -11.577  13.495  64.360  1.00  0.00    -0.396 C  
HETATM    3  H1  UNL     1     -13.018  13.137  62.789  1.00  0.00     0.000 HD 
HETATM    4  H2  UNL     1     -11.807  14.224  62.477  1.00  0.00     0.000 HD 
HETATM    5  C   UNL     1     -10.684  14.528  64.974  1.00  0.00    -0.444 C  
HETATM    6  C   UNL     1     -11.913  14.063  65.723  1.00  0.00    -0.417 C  
ENDROOT
BRANCH   6   7
HETATM    7  C   UNL     1     -11.755  13.211  66.960  1.00  0.00    -0.431 A  
HETATM    8  C   UNL     1     -11.442  11.844  66.869  1.00  0.00    -0.390 A  
HETATM    9  C   UNL     1     -11.294  11.052  68.011  1.00  0.00    -0.374 A  
HETATM   10  C   UNL     1     -11.451  11.615  69.274  1.00  0.00    -0.364 A  
HETATM   11  C   UNL     1     -11.747  12.971  69.393  1.00  0.00    -0.386 A  
HETATM   12  C   UNL     1     -11.890  13.757  68.247  1.00  0.00    -0.413 A  
ENDBRANCH   6   7
TORSDOF 1
ENDMDL
MODEL       10
REMARK 921   NORMALIZED FREE ENERGY PREDICTED BY IDOCK:   -4.45 KCAL/MOL
REMARK 922        TOTAL FREE ENERGY PREDICTED BY IDOCK:   -4.81 KCAL/MOL
REMARK 923 INTER-LIGAND FREE ENERGY PREDICTED BY IDOCK:   -4.71 KCAL/MOL
REMARK 924 INTRA-LIGAND FREE ENERGY PREDICTED BY IDOCK:   -0.09 KCAL/MOL
REMARK 927      BINDING AFFINITY PREDICTED BY RF-SCORE:    0.00 PKD
ROOT
HETATM    1  N   UNL     1     -13.967   8.312  71.449  1.00  0.00    -0.576 NA 
HETATM    2  C   UNL     1     -13.226   9.497  71.882  1.00  0.00    -0.439 C  
HETATM    3  H1  UNL     1     -14.972   8.251  71.616  1.00  0.00     0.000 HD 
HETATM    4  H2  UNL     1     -13.521   7.487  71.852  1.00  0.00     0.000 HD 
HETATM    5  C   UNL     1     -11.751   9.586  71.636  1.00  0.00    -0.460 C  
HETATM    6  C   UNL     1     -12.694  10.466  70.846  1.00  0.00    -0.477 C  
ENDROOT
BRANCH   6   7
HETATM    7  C   UNL     1     -12.727  11.953  71.111  1.00  0.00    -0.384 A  
HETATM    8  C   UNL     1     -12.039  12.857  70.283  1.00  0.00    -0.377 A  
HETATM    9  C   UNL     1     -12.067  14.233  70.525  1.00  0.00    -0.413 A  
HETATM   10  C   UNL     1     -12.793  14.737  71.600  1.00  0.00    -0.405 A  
HETATM   11  C   UNL     1     -13.495  13.864  72.428  1.00  0.00    -0.661 A  
HETATM   12  C   UNL     1     -13.465  12.490  72.179  1.00  0.00    -0.523 A  
ENDBRANCH   6   7
TORSDOF 1
ENDMDL
MODEL       11
REMARK 921   NORMALIZED FREE ENERGY PREDICTED BY IDOCK:   -4.45 KCAL/MOL
REMARK 922        TOTAL FREE ENERGY PREDICTED BY IDOCK:   -4.80 KCAL/MOL
REMARK 923 INTER-LIGAND FREE ENERGY PREDICTED BY IDOCK:   -4.71 KCAL/MOL
REMARK 924 INTRA-LIGAND FREE ENERGY PREDICTED BY IDOCK:   -0.09 KCAL/MOL
REMARK 927      BINDING AFFINITY PREDICTED BY RF-SCORE:    0.00 PKD
ROOT
HETATM    1  N   UNL     1     -12.408  14.110  66.874  1.00  0.00    -0.565 NA 
HETATM    2  C   UNL     1     -11.888  14.020  68.239  1.00  0.00    -0.371 C  
HETATM    3  H1  UNL     1     -13.320  13.710  66.650  1.00  0.00     0.000 HD 
HETATM    4  H2  UNL     1     -11.716  13.714  66.238  1.00  0.00     0.000 HD 
HETATM    5  C   UNL     1     -10.550  14.606  68.568  1.00  0.00    -0.245 C  
HETATM    6  C   UNL     1     -11.805  15.268  69.092  1.00  0.00    -0.345 C  
ENDROOT
BRANCH   6   7
HETATM    7  C   UNL     1     -12.124  15.202  70.567  1.00  0.00    -0.390 A  
HETATM    8  C   UNL     1     -11.641  16.171  71.463  1.00  0.00    -0.502 A  
HETATM    9  C   UNL     1     -11.935  16.114  72.828  1.00  0.00    -0.638 A  
HETATM   10  C   UNL     1     -12.727  15.085  73.327  1.00  0.00    -0.635 A  
HETATM   11  C   UNL     1     -13.231  14.119  72.459  1.00  0.00    -0.596 A  
HETATM   12  C   UNL     1     -12.937  14.184  71.095  1.00  0.00    -0.419 A  
ENDBRANCH   6   7
TORSDOF 1
ENDMDL
MODEL       12
REMARK 921   NORMALIZED FREE ENERGY PREDICTED BY IDOCK:   -4.44 KCAL/MOL
REMARK 922        TOTAL FREE ENERGY PREDICTED BY IDOCK:   -4.79 KCAL/MOL
REMARK 923 INTER-LIGAND FREE ENERGY PREDICTED BY IDOCK:   -4.70 KCAL/MOL
REMARK 924 INTRA-LIGAND FREE ENERGY PREDICTED BY IDOCK:   -0.09 KCAL/MOL
REMARK 927      BINDING AFFINITY PREDICTED BY RF-SCORE:    0.00 PKD
ROOT
HETATM    1  N   UNL     1     -10.472  11.069  62.718  1.00  0.00    -0.786 NA 
HETATM    2  C   UNL     1     -10.744  12.192  63.615  1.00  0.00    -0.467 C  
HETATM    3  H1  UNL     1      -9.662  10.471  62.884  1.00  0.00     0.000 HD 
HETATM    4  H2  UNL     1     -10.423  11.423  61.762  1.00  0.00     0.000 HD 
HETATM    5  C   UNL     1     -11.933  13.070  63.372  1.00  0.00    -0.592 C  
HETATM    6  C   UNL     1     -11.930  12.128  64.556  1.00  0.00    -0.415 C  
ENDROOT
BRANCH   6   7
HETATM    7  C   UNL     1     -11.819  12.687  65.955  1.00  0.00    -0.499 A  
HETATM    8  C   UNL     1     -11.506  11.860  67.048  1.00  0.00    -0.384 A  
HETATM    9  C   UNL     1     -11.402  12.374  68.344  1.00  0.00    -0.330 A  
HETATM   10  C   UNL     1     -11.603  13.731  68.573  1.00  0.00    -0.373 A  
HETATM   11  C   UNL     1     -11.901  14.575  67.506  1.00  0.00    -0.404 A  
HETATM   12  C   UNL     1     -12.000  14.056  66.212  1.00  0.00    -0.454 A  
ENDBRANCH   6   7
TORSDOF 1
ENDMDL
MODEL       13
REMARK 921   NORMALIZED FREE ENERGY PREDICTED BY IDOCK:   -4.42 KCAL/MOL
REMARK 922        TOTAL FREE ENERGY PREDICTED BY IDOCK:   -4.77 KCAL/MOL
REMARK 923 INTER-LIGAND FREE ENERGY PREDICTED BY IDOCK:   -4.68 KCAL/MOL
REMARK 924 INTRA-LIGAND FREE ENERGY PREDICTED BY IDOCK:   -0.09 KCAL/MOL
REMARK 927      BINDING AFFINITY PREDICTED BY RF-SCORE:    0.00 PKD
ROOT
HETATM    1  N   UNL     1     -14.057   8.448  71.315  1.00  0.00    -0.620 NA 
HETATM    2  C   UNL     1     -13.296   9.607  71.784  1.00  0.00    -0.419 C  
HETATM    3  H1  UNL     1     -15.060   8.393  71.492  1.00  0.00     0.000 HD 
HETATM    4  H2  UNL     1     -13.616   7.603  71.680  1.00  0.00     0.000 HD 
HETATM    5  C   UNL     1     -11.824   9.688  71.524  1.00  0.00    -0.483 C  
HETATM    6  C   UNL     1     -12.766  10.610  70.781  1.00  0.00    -0.468 C  
ENDROOT
BRANCH   6   7
HETATM    7  C   UNL     1     -12.777  12.085  71.104  1.00  0.00    -0.365 A  
HETATM    8  C   UNL     1     -13.572  12.598  72.144  1.00  0.00    -0.510 A  
HETATM    9  C   UNL     1     -13.584  13.962  72.447  1.00  0.00    -0.676 A  
HETATM   10  C   UNL     1     -12.793  14.845  71.718  1.00  0.00    -0.404 A  
HETATM   11  C   UNL     1     -11.985  14.361  70.692  1.00  0.00    -0.393 A  
HETATM   12  C   UNL     1     -11.975  12.995  70.396  1.00  0.00    -0.337 A  
ENDBRANCH   6   7
TORSDOF 1
ENDMDL
MODEL       14
REMARK 921   NORMALIZED FREE ENERGY PREDICTED BY IDOCK:   -4.37 KCAL/MOL
REMARK 922        TOTAL FREE ENERGY PREDICTED BY IDOCK:   -4.71 KCAL/MOL
REMARK 923 INTER-LIGAND FREE ENERGY PREDICTED BY IDOCK:   -4.63 KCAL/MOL
REMARK 924 INTRA-LIGAND FREE ENERGY PREDICTED BY IDOCK:   -0.09 KCAL/MOL
REMARK 927      BINDING AFFINITY PREDICTED BY RF-SCORE:    0.00 PKD
ROOT
HETATM    1  N   UNL     1     -13.213  16.033  73.934  1.00  0.00    -0.899 NA 
HETATM    2  C   UNL     1     -13.063  15.051  72.860  1.00  0.00    -0.478 C  
HETATM    3  H1  UNL     1     -12.385  16.412  74.396  1.00  0.00     0.000 HD 
HETATM    4  H2  UNL     1     -13.830  15.642  74.646  1.00  0.00     0.000 HD 
HETATM    5  C   UNL     1     -14.277  14.495  72.182  1.00  0.00    -0.619 C  
HETATM    6  C   UNL     1     -13.375  15.450  71.432  1.00  0.00    -0.601 C  
ENDROOT
BRANCH   6   7
HETATM    7  C   UNL     1     -12.522  14.935  70.297  1.00  0.00    -0.386 A  
HETATM    8  C   UNL     1     -11.872  15.816  69.415  1.00  0.00    -0.361 A  
HETATM    9  C   UNL     1     -11.081  15.344  68.364  1.00  0.00    -0.301 A  
HETATM   10  C   UNL     1     -10.917  13.975  68.177  1.00  0.00    -0.268 A  
HETATM   11  C   UNL     1     -11.538  13.080  69.044  1.00  0.00    -0.367 A  
HETATM   12  C   UNL     1     -12.324  13.559  70.095  1.00  0.00    -0.345 A  
ENDBRANCH   6   7
TORSDOF 1
ENDMDL
MODEL       15
REMARK 921   NORMALIZED FREE ENERGY PREDICTED BY IDOCK:   -4.31 KCAL/MOL
REMARK 922        TOTAL FREE ENERGY PREDICTED BY IDOCK:   -4.66 KCAL/MOL
REMARK 923 INTER-LIGAND FREE ENERGY PREDICTED BY IDOCK:   -4.56 KCAL/MOL
REMARK 924 INTRA-LIGAND FREE ENERGY PREDICTED BY IDOCK:   -0.09 KCAL/MOL
REMARK 927      BINDING AFFINITY PREDICTED BY RF-SCORE:    0.00 PKD
ROOT
HETATM    1  N   UNL     1     -11.316  16.499  64.013  1.00  0.00    -1.559 NA 
HETATM    2  C   UNL     1     -10.738  15.377  64.754  1.00  0.00    -0.314 C  
HETATM    3  H1  UNL     1     -12.089  16.337  63.367  1.00  0.00     0.000 HD 
HETATM    4  H2  UNL     1     -10.566  16.974  63.510  1.00  0.00     0.000 HD 
HETATM    5  C   UNL     1      -9.604  15.614  65.702  1.00  0.00    -0.319 C  
HETATM    6  C   UNL     1     -10.972  15.265  66.246  1.00  0.00    -0.300 C  
ENDROOT
BRANCH   6   7
HETATM    7  C   UNL     1     -11.201  13.913  66.879  1.00  0.00    -0.324 A  
HETATM    8  C   UNL     1     -11.576  13.793  68.228  1.00  0.00    -0.373 A  
HETATM    9  C   UNL     1     -11.790  12.544  68.817  1.00  0.00    -0.347 A  
HETATM   10  C   UNL     1     -11.641  11.384  68.063  1.00  0.00    -0.357 A  
HETATM   11  C   UNL     1     -11.284  11.475  66.720  1.00  0.00    -0.350 A  
HETATM   12  C   UNL     1     -11.075  12.727  66.137  1.00  0.00    -0.322 A  
ENDBRANCH   6   7
TORSDOF 1
ENDMDL
MODEL       16
REMARK 921   NORMALIZED FREE ENERGY PREDICTED BY IDOCK:   -4.29 KCAL/MOL
REMARK 922        TOTAL FREE ENERGY PREDICTED BY IDOCK:   -4.63 KCAL/MOL
REMARK 923 INTER-LIGAND FREE ENERGY PREDICTED BY IDOCK:   -4.54 KCAL/MOL
REMARK 924 INTRA-LIGAND FREE ENERGY PREDICTED BY IDOCK:   -0.09 KCAL/MOL
REMARK 927      BINDING AFFINITY PREDICTED BY RF-SCORE:    0.00 PKD
ROOT
HETATM    1  N   UNL     1     -12.612   6.628  72.266  1.00  0.00    -0.551 NA 
HETATM    2  C   UNL     1     -13.051   7.803  71.513  1.00  0.00    -0.320 C  
HETATM    3  H1  UNL     1     -11.688   6.229  72.094  1.00  0.00     0.000 HD 
HETATM    4  H2  UNL     1     -13.309   5.891  72.151  1.00  0.00     0.000 HD 
HETATM    5  C   UNL     1     -14.406   8.388  71.765  1.00  0.00    -0.558 C  
HETATM    6  C   UNL     1     -13.172   9.139  72.215  1.00  0.00    -0.528 C  
ENDROOT
BRANCH   6   7
HETATM    7  C   UNL     1     -12.771  10.410  71.503  1.00  0.00    -0.564 A  
HETATM    8  C   UNL     1     -11.961  10.378  70.354  1.00  0.00    -0.409 A  
HETATM    9  C   UNL     1     -11.588  11.551  69.692  1.00  0.00    -0.403 A  
HETATM   10  C   UNL     1     -12.025  12.785  70.164  1.00  0.00    -0.371 A  
HETATM   11  C   UNL     1     -12.839  12.844  71.292  1.00  0.00    -0.361 A  
HETATM   12  C   UNL     1     -13.211  11.668  71.946  1.00  0.00    -0.475 A  
ENDBRANCH   6   7
TORSDOF 1
ENDMDL
MODEL       17
REMARK 921   NORMALIZED FREE ENERGY PREDICTED BY IDOCK:   -4.27 KCAL/MOL
REMARK 922        TOTAL FREE ENERGY PREDICTED BY IDOCK:   -4.61 KCAL/MOL
REMARK 923 INTER-LIGAND FREE ENERGY PREDICTED BY IDOCK:   -4.53 KCAL/MOL
REMARK 924 INTRA-LIGAND FREE ENERGY PREDICTED BY IDOCK:   -0.09 KCAL/MOL
REMARK 927      BINDING AFFINITY PREDICTED BY RF-SCORE:    0.00 PKD
ROOT
HETATM    1  N   UNL     1     -12.536  13.935  63.041  1.00  0.00    -1.009 NA 
HETATM    2  C   UNL     1     -12.143  12.767  63.830  1.00  0.00    -0.517 C  
HETATM    3  H1  UNL     1     -13.439  14.380  63.207  1.00  0.00     0.000 HD 
HETATM    4  H2  UNL     1     -12.470  13.694  62.052  1.00  0.00     0.000 HD 
HETATM    5  C   UNL     1     -10.817  12.114  63.587  1.00  0.00    -0.523 C  
HETATM    6  C   UNL     1     -11.042  12.897  64.862  1.00  0.00    -0.326 C  
ENDROOT
BRANCH   6   7
HETATM    7  C   UNL     1     -11.146  12.165  66.179  1.00  0.00    -0.354 A  
HETATM    8  C   UNL     1     -10.604  10.879  66.344  1.00  0.00    -0.289 A  
HETATM    9  C   UNL     1     -10.697  10.199  67.561  1.00  0.00    -0.347 A  
HETATM   10  C   UNL     1     -11.332  10.796  68.646  1.00  0.00    -0.356 A  
HETATM   11  C   UNL     1     -11.866  12.076  68.514  1.00  0.00    -0.369 A  
HETATM   12  C   UNL     1     -11.765  12.752  67.295  1.00  0.00    -0.440 A  
ENDBRANCH   6   7
TORSDOF 1
ENDMDL
MODEL       18
REMARK 921   NORMALIZED FREE ENERGY PREDICTED BY IDOCK:   -4.25 KCAL/MOL
REMARK 922        TOTAL FREE ENERGY PREDICTED BY IDOCK:   -4.59 KCAL/MOL
REMARK 923 INTER-LIGAND FREE ENERGY PREDICTED BY IDOCK:   -4.50 KCAL/MOL
REMARK 924 INTRA-LIGAND FREE ENERGY PREDICTED BY IDOCK:   -0.09 KCAL/MOL
REMARK 927      BINDING AFFINITY PREDICTED BY RF-SCORE:    0.00 PKD
ROOT
HETATM    1  N   UNL     1     -12.609   6.393  72.241  1.00  0.00    -0.552 NA 
HETATM    2  C   UNL     1     -13.059   7.581  71.515  1.00  0.00    -0.356 C  
HETATM    3  H1  UNL     1     -11.694   5.989  72.037  1.00  0.00     0.000 HD 
HETATM    4  H2  UNL     1     -13.315   5.664  72.137  1.00  0.00     0.000 HD 
HETATM    5  C   UNL     1     -14.401   8.174  71.813  1.00  0.00    -0.582 C  
HETATM    6  C   UNL     1     -13.149   8.909  72.237  1.00  0.00    -0.491 C  
ENDROOT
BRANCH   6   7
HETATM    7  C   UNL     1     -12.758  10.185  71.529  1.00  0.00    -0.541 A  
HETATM    8  C   UNL     1     -13.269  11.430  71.935  1.00  0.00    -0.485 A  
HETATM    9  C   UNL     1     -12.908  12.613  71.283  1.00  0.00    -0.344 A  
HETATM   10  C   UNL     1     -12.020  12.576  70.213  1.00  0.00    -0.364 A  
HETATM   11  C   UNL     1     -11.488  11.357  69.799  1.00  0.00    -0.376 A  
HETATM   12  C   UNL     1     -11.850  10.179  70.457  1.00  0.00    -0.408 A  
ENDBRANCH   6   7
TORSDOF 1
ENDMDL
MODEL       19
REMARK 921   NORMALIZED FREE ENERGY PREDICTED BY IDOCK:   -4.21 KCAL/MOL
REMARK 922        TOTAL FREE ENERGY PREDICTED BY IDOCK:   -4.55 KCAL/MOL
REMARK 923 INTER-LIGAND FREE ENERGY PREDICTED BY IDOCK:   -4.46 KCAL/MOL
REMARK 924 INTRA-LIGAND FREE ENERGY PREDICTED BY IDOCK:   -0.09 KCAL/MOL
REMARK 927      BINDING AFFINITY PREDICTED BY RF-SCORE:    0.00 PKD
ROOT
HETATM    1  N   UNL     1     -10.711  11.040  63.178  1.00  0.00    -0.789 NA 
HETATM    2  C   UNL     1     -10.933  12.430  63.581  1.00  0.00    -0.470 C  
HETATM    3  H1  UNL     1      -9.791  10.616  63.302  1.00  0.00     0.000 HD 
HETATM    4  H2  UNL     1     -10.985  10.940  62.200  1.00  0.00     0.000 HD 
HETATM    5  C   UNL     1     -12.282  13.053  63.399  1.00  0.00    -0.552 C  
HETATM    6  C   UNL     1     -11.790  12.730  64.792  1.00  0.00    -0.423 C  
ENDROOT
BRANCH   6   7
HETATM    7  C   UNL     1     -11.413  13.852  65.730  1.00  0.00    -0.324 A  
HETATM    8  C   UNL     1     -10.548  14.882  65.324  1.00  0.00    -0.421 A  
HETATM    9  C   UNL     1     -10.197  15.923  66.188  1.00  0.00    -0.340 A  
HETATM   10  C   UNL     1     -10.712  15.958  67.480  1.00  0.00    -0.318 A  
HETATM   11  C   UNL     1     -11.582  14.957  67.904  1.00  0.00    -0.364 A  
HETATM   12  C   UNL     1     -11.932  13.922  67.034  1.00  0.00    -0.459 A  
ENDBRANCH   6   7
TORSDOF 1
ENDMDL
MODEL       20
REMARK 921   NORMALIZED FREE ENERGY PREDICTED BY IDOCK:   -4.21 KCAL/MOL
REMARK 922        TOTAL FREE ENERGY PREDICTED BY IDOCK:   -4.55 KCAL/MOL
REMARK 923 INTER-LIGAND FREE ENERGY PREDICTED BY IDOCK:   -4.46 KCAL/MOL
REMARK 924 INTRA-LIGAND FREE ENERGY PREDICTED BY IDOCK:   -0.09 KCAL/MOL
REMARK 927      BINDING AFFINITY PREDICTED BY RF-SCORE:    0.00 PKD
ROOT
HETATM    1  N   UNL     1     -10.408  10.856  62.779  1.00  0.00    -0.783 NA 
HETATM    2  C   UNL     1     -10.956  12.096  63.330  1.00  0.00    -0.412 C  
HETATM    3  H1  UNL     1      -9.405  10.775  62.610  1.00  0.00     0.000 HD 
HETATM    4  H2  UNL     1     -10.901  10.642  61.912  1.00  0.00     0.000 HD 
HETATM    5  C   UNL     1     -12.428  12.216  63.579  1.00  0.00    -0.666 C  
HETATM    6  C   UNL     1     -11.478  12.117  64.752  1.00  0.00    -0.377 C  
ENDROOT
BRANCH   6   7
HETATM    7  C   UNL     1     -11.246  13.326  65.628  1.00  0.00    -0.304 A  
HETATM    8  C   UNL     1     -11.921  13.481  66.851  1.00  0.00    -0.447 A  
HETATM    9  C   UNL     1     -11.708  14.597  67.664  1.00  0.00    -0.389 A  
HETATM   10  C   UNL     1     -10.805  15.582  67.273  1.00  0.00    -0.313 A  
HETATM   11  C   UNL     1     -10.113  15.446  66.073  1.00  0.00    -0.346 A  
HETATM   12  C   UNL     1     -10.327  14.325  65.266  1.00  0.00    -0.417 A  
ENDBRANCH   6   7
TORSDOF 1
ENDMDL
MODEL       21
REMARK 921   NORMALIZED FREE ENERGY PREDICTED BY IDOCK:   -4.20 KCAL/MOL
REMARK 922        TOTAL FREE ENERGY PREDICTED BY IDOCK:   -4.54 KCAL/MOL
REMARK 923 INTER-LIGAND FREE ENERGY PREDICTED BY IDOCK:   -4.45 KCAL/MOL
REMARK 924 INTRA-LIGAND FREE ENERGY PREDICTED BY IDOCK:   -0.09 KCAL/MOL
REMARK 927      BINDING AFFINITY PREDICTED BY RF-SCORE:    0.00 PKD
ROOT
HETATM    1  N   UNL     1     -10.108  13.690  64.323  1.00  0.00    -0.763 NA 
HETATM    2  C   UNL     1     -11.050  13.826  65.434  1.00  0.00    -0.302 C  
HETATM    3  H1  UNL     1      -9.148  14.020  64.426  1.00  0.00     0.000 HD 
HETATM    4  H2  UNL     1     -10.515  14.131  63.498  1.00  0.00     0.000 HD 
HETATM    5  C   UNL     1     -12.458  13.341  65.283  1.00  0.00    -0.543 C  
HETATM    6  C   UNL     1     -11.503  12.592  66.186  1.00  0.00    -0.426 C  
ENDROOT
BRANCH   6   7
HETATM    7  C   UNL     1     -11.696  12.643  67.683  1.00  0.00    -0.420 A  
HETATM    8  C   UNL     1     -11.896  13.864  68.352  1.00  0.00    -0.409 A  
HETATM    9  C   UNL     1     -12.076  13.915  69.737  1.00  0.00    -0.404 A  
HETATM   10  C   UNL     1     -12.065  12.742  70.484  1.00  0.00    -0.369 A  
HETATM   11  C   UNL     1     -11.883  11.518  69.846  1.00  0.00    -0.430 A  
HETATM   12  C   UNL     1     -11.708  11.473  68.460  1.00  0.00    -0.379 A  
ENDBRANCH   6   7
TORSDOF 1
ENDMDL
MODEL       22
REMARK 921   NORMALIZED FREE ENERGY PREDICTED BY IDOCK:   -4.18 KCAL/MOL
REMARK 922        TOTAL FREE ENERGY PREDICTED BY IDOCK:   -4.52 KCAL/MOL
REMARK 923 INTER-LIGAND FREE ENERGY PREDICTED BY IDOCK:   -4.43 KCAL/MOL
REMARK 924 INTRA-LIGAND FREE ENERGY PREDICTED BY IDOCK:   -0.09 KCAL/MOL
REMARK 927      BINDING AFFINITY PREDICTED BY RF-SCORE:    0.00 PKD
ROOT
HETATM    1  N   UNL     1     -12.212  14.819  63.589  1.00  0.00    -1.025 NA 
HETATM    2  C   UNL     1     -12.397  13.534  64.263  1.00  0.00    -0.335 C  
HETATM    3  H1  UNL     1     -12.286  15.688  64.120  1.00  0.00     0.000 HD 
HETATM    4  H2  UNL     1     -12.857  14.866  62.800  1.00  0.00     0.000 HD 
HETATM    5  C   UNL     1     -12.288  12.260  63.484  1.00  0.00    -0.670 C  
HETATM    6  C   UNL     1     -11.206  12.623  64.477  1.00  0.00    -0.375 C  
ENDROOT
BRANCH   6   7
HETATM    7  C   UNL     1     -11.074  11.835  65.758  1.00  0.00    -0.351 A  
HETATM    8  C   UNL     1     -11.684  12.269  66.948  1.00  0.00    -0.404 A  
HETATM    9  C   UNL     1     -11.565  11.541  68.135  1.00  0.00    -0.378 A  
HETATM   10  C   UNL     1     -10.836  10.357  68.157  1.00  0.00    -0.311 A  
HETATM   11  C   UNL     1     -10.232   9.897  66.989  1.00  0.00    -0.294 A  
HETATM   12  C   UNL     1     -10.358  10.627  65.804  1.00  0.00    -0.287 A  
ENDBRANCH   6   7
TORSDOF 1
ENDMDL
MODEL       23
REMARK 921   NORMALIZED FREE ENERGY PREDICTED BY IDOCK:   -4.18 KCAL/MOL
REMARK 922        TOTAL FREE ENERGY PREDICTED BY IDOCK:   -4.51 KCAL/MOL
REMARK 923 INTER-LIGAND FREE ENERGY PREDICTED BY IDOCK:   -4.42 KCAL/MOL
REMARK 924 INTRA-LIGAND FREE ENERGY PREDICTED BY IDOCK:   -0.09 KCAL/MOL
REMARK 927      BINDING AFFINITY PREDICTED BY RF-SCORE:    0.00 PKD
ROOT
HETATM    1  N   UNL     1     -14.159  15.744  72.744  1.00  0.00    -0.552 NA 
HETATM    2  C   UNL     1     -13.350  15.526  71.544  1.00  0.00    -0.509 C  
HETATM    3  H1  UNL     1     -15.149  15.493  72.743  1.00  0.00     0.000 HD 
HETATM    4  H2  UNL     1     -14.074  16.723  73.018  1.00  0.00     0.000 HD 
HETATM    5  C   UNL     1     -11.899  15.894  71.546  1.00  0.00    -0.536 C  
HETATM    6  C   UNL     1     -12.299  14.436  71.538  1.00  0.00    -0.427 C  
ENDROOT
BRANCH   6   7
HETATM    7  C   UNL     1     -12.074  13.606  70.296  1.00  0.00    -0.427 A  
HETATM    8  C   UNL     1     -11.797  14.209  69.057  1.00  0.00    -0.384 A  
HETATM    9  C   UNL     1     -11.587  13.444  67.905  1.00  0.00    -0.374 A  
HETATM   10  C   UNL     1     -11.643  12.056  67.972  1.00  0.00    -0.407 A  
HETATM   11  C   UNL     1     -11.901  11.433  69.190  1.00  0.00    -0.413 A  
HETATM   12  C   UNL     1     -12.106  12.202  70.338  1.00  0.00    -0.395 A  
ENDBRANCH   6   7
TORSDOF 1
ENDMDL
MODEL       24
REMARK 921   NORMALIZED FREE ENERGY PREDICTED BY IDOCK:   -4.17 KCAL/MOL
REMARK 922        TOTAL FREE ENERGY PREDICTED BY IDOCK:   -4.51 KCAL/MOL
REMARK 923 INTER-LIGAND FREE ENERGY PREDICTED BY IDOCK:   -4.42 KCAL/MOL
REMARK 924 INTRA-LIGAND FREE ENERGY PREDICTED BY IDOCK:   -0.09 KCAL/MOL
REMARK 927      BINDING AFFINITY PREDICTED BY RF-SCORE:    0.00 PKD
ROOT
HETATM    1  N   UNL     1     -14.384   8.935  73.233  1.00  0.00    -1.177 NA 
HETATM    2  C   UNL     1     -13.717   9.003  71.932  1.00  0.00    -0.441 C  
HETATM    3  H1  UNL     1     -14.954   8.123  73.471  1.00  0.00     0.000 HD 
HETATM    4  H2  UNL     1     -14.952   9.775  73.348  1.00  0.00     0.000 HD 
HETATM    5  C   UNL     1     -12.880  10.194  71.583  1.00  0.00    -0.559 C  
HETATM    6  C   UNL     1     -12.210   8.866  71.857  1.00  0.00    -0.445 C  
ENDROOT
BRANCH   6   7
HETATM    7  C   UNL     1     -11.574   8.103  70.719  1.00  0.00    -0.249 A  
HETATM    8  C   UNL     1     -11.700   6.706  70.617  1.00  0.00    -0.452 A  
HETATM    9  C   UNL     1     -11.113   5.997  69.565  1.00  0.00    -0.468 A  
HETATM   10  C   UNL     1     -10.392   6.672  68.586  1.00  0.00    -0.208 A  
HETATM   11  C   UNL     1     -10.264   8.057  68.655  1.00  0.00    -0.225 A  
HETATM   12  C   UNL     1     -10.856   8.761  69.707  1.00  0.00    -0.196 A  
ENDBRANCH   6   7
TORSDOF 1
ENDMDL
MODEL       25
REMARK 921   NORMALIZED FREE ENERGY PREDICTED BY IDOCK:   -4.15 KCAL/MOL
REMARK 922        TOTAL FREE ENERGY PREDICTED BY IDOCK:   -4.49 KCAL/MOL
REMARK 923 INTER-LIGAND FREE ENERGY PREDICTED BY IDOCK:   -4.40 KCAL/MOL
REMARK 924 INTRA-LIGAND FREE ENERGY PREDICTED BY IDOCK:   -0.09 KCAL/MOL
REMARK 927      BINDING AFFINITY PREDICTED BY RF-SCORE:    0.00 PKD
ROOT
HETATM    1  N   UNL     1     -12.229  14.422  68.417  1.00  0.00    -0.605 NA 
HETATM    2  C   UNL     1     -11.776  15.764  68.784  1.00  0.00    -0.378 C  
HETATM    3  H1  UNL     1     -13.015  14.309  67.775  1.00  0.00     0.000 HD 
HETATM    4  H2  UNL     1     -12.432  13.904  69.272  1.00  0.00     0.000 HD 
HETATM    5  C   UNL     1     -10.623  15.931  69.724  1.00  0.00    -0.322 C  
HETATM    6  C   UNL     1     -10.449  16.275  68.262  1.00  0.00    -0.284 C  
ENDROOT
BRANCH   6   7
HETATM    7  C   UNL     1     -10.302  17.720  67.846  1.00  0.00    -0.388 A  
HETATM    8  C   UNL     1     -10.335  18.096  66.493  1.00  0.00    -0.397 A  
HETATM    9  C   UNL     1     -10.200  19.433  66.104  1.00  0.00    -0.570 A  
HETATM   10  C   UNL     1     -10.036  20.424  67.067  1.00  0.00    -0.568 A  
HETATM   11  C   UNL     1     -10.013  20.080  68.416  1.00  0.00    -0.481 A  
HETATM   12  C   UNL     1     -10.153  18.743  68.797  1.00  0.00    -0.407 A  
ENDBRANCH   6   7
TORSDOF 1
ENDMDL
MODEL       26
REMARK 921   NORMALIZED FREE ENERGY PREDICTED BY IDOCK:   -4.14 KCAL/MOL
REMARK 922        TOTAL FREE ENERGY PREDICTED BY IDOCK:   -4.48 KCAL/MOL
REMARK 923 INTER-LIGAND FREE ENERGY PREDICTED BY IDOCK:   -4.39 KCAL/MOL
REMARK 924 INTRA-LIGAND FREE ENERGY PREDICTED BY IDOCK:   -0.09 KCAL/MOL
REMARK 927      BINDING AFFINITY PREDICTED BY RF-SCORE:    0.00 PKD
ROOT
HETATM    1  N   UNL     1     -12.264  15.482  68.765  1.00  0.00    -0.584 NA 
HETATM    2  C   UNL     1     -11.445  14.551  67.987  1.00  0.00    -0.321 C  
HETATM    3  H1  UNL     1     -12.592  16.349  68.339  1.00  0.00     0.000 HD 
HETATM    4  H2  UNL     1     -11.764  15.712  69.624  1.00  0.00     0.000 HD 
HETATM    5  C   UNL     1     -10.965  13.278  68.613  1.00  0.00    -0.294 C  
HETATM    6  C   UNL     1     -12.034  13.228  67.544  1.00  0.00    -0.371 C  
ENDROOT
BRANCH   6   7
HETATM    7  C   UNL     1     -11.701  12.669  66.181  1.00  0.00    -0.461 A  
HETATM    8  C   UNL     1     -10.689  11.708  66.014  1.00  0.00    -0.328 A  
HETATM    9  C   UNL     1     -10.380  11.187  64.754  1.00  0.00    -0.387 A  
HETATM   10  C   UNL     1     -11.083  11.613  63.632  1.00  0.00    -0.506 A  
HETATM   11  C   UNL     1     -12.100  12.554  63.771  1.00  0.00    -0.615 A  
HETATM   12  C   UNL     1     -12.408  13.068  65.034  1.00  0.00    -0.526 A  
ENDBRANCH   6   7
TORSDOF 1
ENDMDL
MODEL       27
REMARK 921   NORMALIZED FREE ENERGY PREDICTED BY IDOCK:   -4.13 KCAL/MOL
REMARK 922        TOTAL FREE ENERGY PREDICTED BY IDOCK:   -4.46 KCAL/MOL
REMARK 923 INTER-LIGAND FREE ENERGY PREDICTED BY IDOCK:   -4.37 KCAL/MOL
REMARK 924 INTRA-LIGAND FREE ENERGY PREDICTED BY IDOCK:   -0.09 KCAL/MOL
REMARK 927      BINDING AFFINITY PREDICTED BY RF-SCORE:    0.00 PKD
ROOT
HETATM    1  N   UNL     1     -10.230  13.733  64.367  1.00  0.00    -0.729 NA 
HETATM    2  C   UNL     1     -11.175  13.782  65.483  1.00  0.00    -0.299 C  
HETATM    3  H1  UNL     1      -9.285  14.102  64.485  1.00  0.00     0.000 HD 
HETATM    4  H2  UNL     1     -10.658  14.189  63.561  1.00  0.00     0.000 HD 
HETATM    5  C   UNL     1     -12.560  13.240  65.312  1.00  0.00    -0.528 C  
HETATM    6  C   UNL     1     -11.572  12.499  66.184  1.00  0.00    -0.448 C  
ENDROOT
BRANCH   6   7
HETATM    7  C   UNL     1     -11.764  12.481  67.682  1.00  0.00    -0.423 A  
HETATM    8  C   UNL     1     -11.776  11.274  68.402  1.00  0.00    -0.365 A  
HETATM    9  C   UNL     1     -11.953  11.254  69.788  1.00  0.00    -0.431 A  
HETATM   10  C   UNL     1     -12.116  12.446  70.487  1.00  0.00    -0.363 A  
HETATM   11  C   UNL     1     -12.094  13.657  69.800  1.00  0.00    -0.396 A  
HETATM   12  C   UNL     1     -11.913  13.671  68.415  1.00  0.00    -0.391 A  
ENDBRANCH   6   7
TORSDOF 1
ENDMDL
MODEL       28
REMARK 921   NORMALIZED FREE ENERGY PREDICTED BY IDOCK:   -4.12 KCAL/MOL
REMARK 922        TOTAL FREE ENERGY PREDICTED BY IDOCK:   -4.45 KCAL/MOL
REMARK 923 INTER-LIGAND FREE ENERGY PREDICTED BY IDOCK:   -4.36 KCAL/MOL
REMARK 924 INTRA-LIGAND FREE ENERGY PREDICTED BY IDOCK:   -0.09 KCAL/MOL
REMARK 927      BINDING AFFINITY PREDICTED BY RF-SCORE:    0.00 PKD
ROOT
HETATM    1  N   UNL     1     -12.344  13.833  63.180  1.00  0.00    -1.106 NA 
HETATM    2  C   UNL     1     -12.406  14.344  64.550  1.00  0.00    -0.418 C  
HETATM    3  H1  UNL     1     -12.374  14.482  62.393  1.00  0.00     0.000 HD 
HETATM    4  H2  UNL     1     -13.085  13.143  63.058  1.00  0.00     0.000 HD 
HETATM    5  C   UNL     1     -12.362  13.391  65.704  1.00  0.00    -0.521 C  
HETATM    6  C   UNL     1     -11.173  14.284  65.427  1.00  0.00    -0.329 C  
ENDROOT
BRANCH   6   7
HETATM    7  C   UNL     1     -10.857  15.421  66.370  1.00  0.00    -0.303 A  
HETATM    8  C   UNL     1     -11.105  15.315  67.750  1.00  0.00    -0.318 A  
HETATM    9  C   UNL     1     -10.813  16.364  68.625  1.00  0.00    -0.331 A  
HETATM   10  C   UNL     1     -10.259  17.544  68.139  1.00  0.00    -0.359 A  
HETATM   11  C   UNL     1      -9.990  17.670  66.778  1.00  0.00    -0.320 A  
HETATM   12  C   UNL     1     -10.280  16.616  65.909  1.00  0.00    -0.358 A  
ENDBRANCH   6   7
TORSDOF 1
ENDMDL
MODEL       29
REMARK 921   NORMALIZED FREE ENERGY PREDICTED BY IDOCK:   -4.11 KCAL/MOL
REMARK 922        TOTAL FREE ENERGY PREDICTED BY IDOCK:   -4.45 KCAL/MOL
REMARK 923 INTER-LIGAND FREE ENERGY PREDICTED BY IDOCK:   -4.36 KCAL/MOL
REMARK 924 INTRA-LIGAND FREE ENERGY PREDICTED BY IDOCK:   -0.09 KCAL/MOL
REMARK 927      BINDING AFFINITY PREDICTED BY RF-SCORE:    0.00 PKD
ROOT
HETATM    1  N   UNL     1      -9.354  13.903  66.190  1.00  0.00    -0.493 NA 
HETATM    2  C   UNL     1      -9.538  15.317  65.861  1.00  0.00    -0.342 C  
HETATM    3  H1  UNL     1      -8.525  13.605  66.706  1.00  0.00     0.000 HD 
HETATM    4  H2  UNL     1      -9.412  13.360  65.328  1.00  0.00     0.000 HD 
HETATM    5  C   UNL     1     -10.754  15.754  65.104  1.00  0.00    -0.455 C  
HETATM    6  C   UNL     1     -10.615  16.115  66.567  1.00  0.00    -0.268 C  
ENDROOT
BRANCH   6   7
HETATM    7  C   UNL     1     -10.359  17.551  66.960  1.00  0.00    -0.324 A  
HETATM    8  C   UNL     1     -10.128  17.910  68.299  1.00  0.00    -0.376 A  
HETATM    9  C   UNL     1      -9.890  19.238  68.667  1.00  0.00    -0.500 A  
HETATM   10  C   UNL     1      -9.871  20.236  67.699  1.00  0.00    -0.563 A  
HETATM   11  C   UNL     1     -10.083  19.905  66.362  1.00  0.00    -0.615 A  
HETATM   12  C   UNL     1     -10.316  18.576  66.001  1.00  0.00    -0.423 A  
ENDBRANCH   6   7
TORSDOF 1
ENDMDL
MODEL       30
REMARK 921   NORMALIZED FREE ENERGY PREDICTED BY IDOCK:   -4.11 KCAL/MOL
REMARK 922        TOTAL FREE ENERGY PREDICTED BY IDOCK:   -4.44 KCAL/MOL
REMARK 923 INTER-LIGAND FREE ENERGY PREDICTED BY IDOCK:   -4.35 KCAL/MOL
REMARK 924 INTRA-LIGAND FREE ENERGY PREDICTED BY IDOCK:   -0.09 KCAL/MOL
REMARK 927      BINDING AFFINITY PREDICTED BY RF-SCORE:    0.00 PKD
ROOT
HETATM    1  N   UNL     1     -10.516  17.352  67.859  1.00  0.00    -0.370 NA 
HETATM    2  C   UNL     1     -10.740  16.142  68.652  1.00  0.00    -0.295 C  
HETATM    3  H1  UNL     1     -11.296  17.787  67.365  1.00  0.00     0.000 HD 
HETATM    4  H2  UNL     1      -9.771  17.165  67.188  1.00  0.00     0.000 HD 
HETATM    5  C   UNL     1      -9.596  15.504  69.378  1.00  0.00    -0.279 C  
HETATM    6  C   UNL     1     -10.675  16.216  70.163  1.00  0.00    -0.289 C  
ENDROOT
BRANCH   6   7
HETATM    7  C   UNL     1     -11.639  15.413  71.004  1.00  0.00    -0.410 A  
HETATM    8  C   UNL     1     -12.159  15.923  72.206  1.00  0.00    -0.597 A  
HETATM    9  C   UNL     1     -13.053  15.184  72.986  1.00  0.00    -0.605 A  
HETATM   10  C   UNL     1     -13.452  13.916  72.575  1.00  0.00    -0.676 A  
HETATM   11  C   UNL     1     -12.963  13.392  71.381  1.00  0.00    -0.412 A  
HETATM   12  C   UNL     1     -12.073  14.138  70.604  1.00  0.00    -0.421 A  
ENDBRANCH   6   7
TORSDOF 1
ENDMDL
MODEL       31
REMARK 921   NORMALIZED FREE ENERGY PREDICTED BY IDOCK:   -4.09 KCAL/MOL
REMARK 922        TOTAL FREE ENERGY PREDICTED BY IDOCK:   -4.42 KCAL/MOL
REMARK 923 INTER-LIGAND FREE ENERGY PREDICTED BY IDOCK:   -4.34 KCAL/MOL
REMARK 924 INTRA-LIGAND FREE ENERGY PREDICTED BY IDOCK:   -0.09 KCAL/MOL
REMARK 927      BINDING AFFINITY PREDICTED BY RF-SCORE:    0.00 PKD
ROOT
HETATM    1  N   UNL     1     -13.950   8.876  73.144  1.00  0.00    -1.215 NA 
HETATM    2  C   UNL     1     -13.625   9.503  71.862  1.00  0.00    -0.391 C  
HETATM    3  H1  UNL     1     -14.186   7.884  73.179  1.00  0.00     0.000 HD 
HETATM    4  H2  UNL     1     -14.706   9.405  73.579  1.00  0.00     0.000 HD 
HETATM    5  C   UNL     1     -13.278  10.958  71.810  1.00  0.00    -0.513 C  
HETATM    6  C   UNL     1     -12.199   9.925  71.576  1.00  0.00    -0.505 C  
ENDROOT
BRANCH   6   7
HETATM    7  C   UNL     1     -11.619   9.751  70.192  1.00  0.00    -0.239 A  
HETATM    8  C   UNL     1     -11.806  10.724  69.195  1.00  0.00    -0.347 A  
HETATM    9  C   UNL     1     -11.270  10.567  67.913  1.00  0.00    -0.358 A  
HETATM   10  C   UNL     1     -10.528   9.431  67.604  1.00  0.00    -0.328 A  
HETATM   11  C   UNL     1     -10.316   8.458  68.577  1.00  0.00    -0.232 A  
HETATM   12  C   UNL     1     -10.851   8.623  69.857  1.00  0.00    -0.210 A  
ENDBRANCH   6   7
TORSDOF 1
ENDMDL
MODEL       32
REMARK 921   NORMALIZED FREE ENERGY PREDICTED BY IDOCK:   -4.07 KCAL/MOL
REMARK 922        TOTAL FREE ENERGY PREDICTED BY IDOCK:   -4.40 KCAL/MOL
REMARK 923 INTER-LIGAND FREE ENERGY PREDICTED BY IDOCK:   -4.32 KCAL/MOL
REMARK 924 INTRA-LIGAND FREE ENERGY PREDICTED BY IDOCK:   -0.09 KCAL/MOL
REMARK 927      BINDING AFFINITY PREDICTED BY RF-SCORE:    0.00 PKD
ROOT
HETATM    1  N   UNL     1     -12.399  14.739  68.930  1.00  0.00    -0.587 NA 
HETATM    2  C   UNL     1     -11.490  14.021  68.035  1.00  0.00    -0.311 C  
HETATM    3  H1  UNL     1     -12.865  15.588  68.607  1.00  0.00     0.000 HD 
HETATM    4  H2  UNL     1     -11.901  14.951  69.794  1.00  0.00     0.000 HD 
HETATM    5  C   UNL     1     -10.807  12.775  68.508  1.00  0.00    -0.279 C  
HETATM    6  C   UNL     1     -11.902  12.678  67.470  1.00  0.00    -0.396 C  
ENDROOT
BRANCH   6   7
HETATM    7  C   UNL     1     -11.552  12.315  66.046  1.00  0.00    -0.451 A  
HETATM    8  C   UNL     1     -12.408  12.636  64.979  1.00  0.00    -0.561 A  
HETATM    9  C   UNL     1     -12.087  12.302  63.660  1.00  0.00    -0.648 A  
HETATM   10  C   UNL     1     -10.894  11.643  63.380  1.00  0.00    -0.453 A  
HETATM   11  C   UNL     1     -10.021  11.325  64.417  1.00  0.00    -0.338 A  
HETATM   12  C   UNL     1     -10.346  11.666  65.732  1.00  0.00    -0.292 A  
ENDBRANCH   6   7
TORSDOF 1
ENDMDL
MODEL       33
REMARK 921   NORMALIZED FREE ENERGY PREDICTED BY IDOCK:   -3.99 KCAL/MOL
REMARK 922        TOTAL FREE ENERGY PREDICTED BY IDOCK:   -4.32 KCAL/MOL
REMARK 923 INTER-LIGAND FREE ENERGY PREDICTED BY IDOCK:   -4.23 KCAL/MOL
REMARK 924 INTRA-LIGAND FREE ENERGY PREDICTED BY IDOCK:   -0.09 KCAL/MOL
REMARK 927      BINDING AFFINITY PREDICTED BY RF-SCORE:    0.00 PKD
ROOT
HETATM    1  N   UNL     1      -9.169  13.204  68.237  1.00  0.00    -0.240 NA 
HETATM    2  C   UNL     1     -10.510  13.699  68.549  1.00  0.00    -0.244 C  
HETATM    3  H1  UNL     1      -8.352  13.638  68.669  1.00  0.00     0.000 HD 
HETATM    4  H2  UNL     1      -9.046  13.220  67.224  1.00  0.00     0.000 HD 
HETATM    5  C   UNL     1     -11.707  13.062  67.915  1.00  0.00    -0.402 C  
HETATM    6  C   UNL     1     -11.443  12.853  69.390  1.00  0.00    -0.323 C  
ENDROOT
BRANCH   6   7
HETATM    7  C   UNL     1     -12.347  13.506  70.410  1.00  0.00    -0.397 A  
HETATM    8  C   UNL     1     -13.022  12.744  71.379  1.00  0.00    -0.359 A  
HETATM    9  C   UNL     1     -13.858  13.344  72.325  1.00  0.00    -0.671 A  
HETATM   10  C   UNL     1     -14.031  14.724  72.326  1.00  0.00    -0.598 A  
HETATM   11  C   UNL     1     -13.363  15.504  71.385  1.00  0.00    -0.592 A  
HETATM   12  C   UNL     1     -12.525  14.899  70.444  1.00  0.00    -0.403 A  
ENDBRANCH   6   7
TORSDOF 1
ENDMDL
MODEL       34
REMARK 921   NORMALIZED FREE ENERGY PREDICTED BY IDOCK:   -3.94 KCAL/MOL
REMARK 922        TOTAL FREE ENERGY PREDICTED BY IDOCK:   -4.26 KCAL/MOL
REMARK 923 INTER-LIGAND FREE ENERGY PREDICTED BY IDOCK:   -4.17 KCAL/MOL
REMARK 924 INTRA-LIGAND FREE ENERGY PREDICTED BY IDOCK:   -0.09 KCAL/MOL
REMARK 927      BINDING AFFINITY PREDICTED BY RF-SCORE:    0.00 PKD
ROOT
HETATM    1  N   UNL     1     -11.548  16.072  63.855  1.00  0.00    -1.314 NA 
HETATM    2  C   UNL     1     -11.266  16.323  65.269  1.00  0.00    -0.033 C  
HETATM    3  H1  UNL     1     -12.031  16.780  63.300  1.00  0.00     0.000 HD 
HETATM    4  H2  UNL     1     -12.063  15.194  63.779  1.00  0.00     0.000 HD 
HETATM    5  C   UNL     1     -10.557  15.286  66.084  1.00  0.00    -0.318 C  
HETATM    6  C   UNL     1      -9.839  16.565  65.715  1.00  0.00    -0.275 C  
ENDROOT
BRANCH   6   7
HETATM    7  C   UNL     1      -9.541  17.589  66.784  1.00  0.00    -0.286 A  
HETATM    8  C   UNL     1      -8.364  17.524  67.549  1.00  0.00    -0.220 A  
HETATM    9  C   UNL     1      -8.084  18.471  68.539  1.00  0.00    -0.354 A  
HETATM   10  C   UNL     1      -8.977  19.510  68.780  1.00  0.00    -0.364 A  
HETATM   11  C   UNL     1     -10.145  19.606  68.028  1.00  0.00    -0.555 A  
HETATM   12  C   UNL     1     -10.416  18.659  67.037  1.00  0.00    -0.453 A  
ENDBRANCH   6   7
TORSDOF 1
ENDMDL
MODEL       35
REMARK 921   NORMALIZED FREE ENERGY PREDICTED BY IDOCK:   -3.93 KCAL/MOL
REMARK 922        TOTAL FREE ENERGY PREDICTED BY IDOCK:   -4.25 KCAL/MOL
REMARK 923 INTER-LIGAND FREE ENERGY PREDICTED BY IDOCK:   -4.16 KCAL/MOL
REMARK 924 INTRA-LIGAND FREE ENERGY PREDICTED BY IDOCK:   -0.09 KCAL/MOL
REMARK 927      BINDING AFFINITY PREDICTED BY RF-SCORE:    0.00 PKD
ROOT
HETATM    1  N   UNL     1     -12.337  10.402  69.368  1.00  0.00    -0.651 NA 
HETATM    2  C   UNL     1     -11.885  11.494  68.506  1.00  0.00    -0.297 C  
HETATM    3  H1  UNL     1     -13.331  10.176  69.425  1.00  0.00     0.000 HD 
HETATM    4  H2  UNL     1     -11.989  10.570  70.312  1.00  0.00     0.000 HD 
HETATM    5  C   UNL     1     -10.427  11.825  68.422  1.00  0.00    -0.231 C  
HETATM    6  C   UNL     1     -11.115  11.179  67.240  1.00  0.00    -0.366 C  
ENDROOT
BRANCH   6   7
HETATM    7  C   UNL     1     -11.356  11.984  65.985  1.00  0.00    -0.398 A  
HETATM    8  C   UNL     1     -12.107  13.171  66.013  1.00  0.00    -0.495 A  
HETATM    9  C   UNL     1     -12.331  13.919  64.853  1.00  0.00    -0.445 A  
HETATM   10  C   UNL     1     -11.800  13.496  63.639  1.00  0.00    -0.383 A  
HETATM   11  C   UNL     1     -11.040  12.331  63.585  1.00  0.00    -0.537 A  
HETATM   12  C   UNL     1     -10.817  11.590  64.749  1.00  0.00    -0.360 A  
ENDBRANCH   6   7
TORSDOF 1
ENDMDL
MODEL       36
REMARK 921   NORMALIZED FREE ENERGY PREDICTED BY IDOCK:   -3.92 KCAL/MOL
REMARK 922        TOTAL FREE ENERGY PREDICTED BY IDOCK:   -4.24 KCAL/MOL
REMARK 923 INTER-LIGAND FREE ENERGY PREDICTED BY IDOCK:   -4.15 KCAL/MOL
REMARK 924 INTRA-LIGAND FREE ENERGY PREDICTED BY IDOCK:   -0.09 KCAL/MOL
REMARK 927      BINDING AFFINITY PREDICTED BY RF-SCORE:    0.00 PKD
ROOT
HETATM    1  N   UNL     1     -12.571  14.452  63.646  1.00  0.00    -0.997 NA 
HETATM    2  C   UNL     1     -11.702  13.545  64.397  1.00  0.00    -0.407 C  
HETATM    3  H1  UNL     1     -12.172  15.061  62.930  1.00  0.00     0.000 HD 
HETATM    4  H2  UNL     1     -13.088  15.029  64.310  1.00  0.00     0.000 HD 
HETATM    5  C   UNL     1     -12.286  12.652  65.447  1.00  0.00    -0.499 C  
HETATM    6  C   UNL     1     -11.787  12.053  64.151  1.00  0.00    -0.462 C  
ENDROOT
BRANCH   6   7
HETATM    7  C   UNL     1     -10.533  11.212  64.152  1.00  0.00    -0.442 A  
HETATM    8  C   UNL     1     -10.137  10.493  65.293  1.00  0.00    -0.369 A  
HETATM    9  C   UNL     1      -8.978   9.712  65.297  1.00  0.00    -0.246 A  
HETATM   10  C   UNL     1      -8.191   9.629  64.153  1.00  0.00    -0.158 A  
HETATM   11  C   UNL     1      -8.567  10.320  63.004  1.00  0.00    -0.190 A  
HETATM   12  C   UNL     1      -9.729  11.095  63.005  1.00  0.00    -0.384 A  
ENDBRANCH   6   7
TORSDOF 1
ENDMDL
MODEL       37
REMARK 921   NORMALIZED FREE ENERGY PREDICTED BY IDOCK:   -3.90 KCAL/MOL
REMARK 922        TOTAL FREE ENERGY PREDICTED BY IDOCK:   -4.22 KCAL/MOL
REMARK 923 INTER-LIGAND FREE ENERGY PREDICTED BY IDOCK:   -4.13 KCAL/MOL
REMARK 924 INTRA-LIGAND FREE ENERGY PREDICTED BY IDOCK:   -0.09 KCAL/MOL
REMARK 927      BINDING AFFINITY PREDICTED BY RF-SCORE:    0.00 PKD
ROOT
HETATM    1  N   UNL     1     -14.332  14.200  72.452  1.00  0.00    -0.607 NA 
HETATM    2  C   UNL     1     -13.586  15.017  71.494  1.00  0.00    -0.452 C  
HETATM    3  H1  UNL     1     -15.173  13.705  72.151  1.00  0.00     0.000 HD 
HETATM    4  H2  UNL     1     -14.570  14.781  73.256  1.00  0.00     0.000 HD 
HETATM    5  C   UNL     1     -12.353  15.744  71.935  1.00  0.00    -0.533 C  
HETATM    6  C   UNL     1     -12.227  14.552  71.013  1.00  0.00    -0.407 C  
ENDROOT
BRANCH   6   7
HETATM    7  C   UNL     1     -11.819  14.761  69.574  1.00  0.00    -0.366 A  
HETATM    8  C   UNL     1     -11.241  15.969  69.148  1.00  0.00    -0.342 A  
HETATM    9  C   UNL     1     -10.862  16.166  67.817  1.00  0.00    -0.318 A  
HETATM   10  C   UNL     1     -11.047  15.152  66.883  1.00  0.00    -0.314 A  
HETATM   11  C   UNL     1     -11.605  13.939  67.281  1.00  0.00    -0.393 A  
HETATM   12  C   UNL     1     -11.978  13.748  68.614  1.00  0.00    -0.401 A  
ENDBRANCH   6   7
TORSDOF 1
ENDMDL
MODEL       38
REMARK 921   NORMALIZED FREE ENERGY PREDICTED BY IDOCK:   -3.89 KCAL/MOL
REMARK 922        TOTAL FREE ENERGY PREDICTED BY IDOCK:   -4.21 KCAL/MOL
REMARK 923 INTER-LIGAND FREE ENERGY PREDICTED BY IDOCK:   -4.12 KCAL/MOL
REMARK 924 INTRA-LIGAND FREE ENERGY PREDICTED BY IDOCK:   -0.09 KCAL/MOL
REMARK 927      BINDING AFFINITY PREDICTED BY RF-SCORE:    0.00 PKD
ROOT
HETATM    1  N   UNL     1     -11.911  11.971  67.116  1.00  0.00    -0.598 NA 
HETATM    2  C   UNL     1     -11.421  11.684  68.464  1.00  0.00    -0.298 C  
HETATM    3  H1  UNL     1     -11.703  11.327  66.352  1.00  0.00     0.000 HD 
HETATM    4  H2  UNL     1     -11.597  12.904  66.849  1.00  0.00     0.000 HD 
HETATM    5  C   UNL     1     -11.727  12.628  69.586  1.00  0.00    -0.373 C  
HETATM    6  C   UNL     1     -12.399  11.274  69.545  1.00  0.00    -0.243 C  
ENDROOT
BRANCH   6   7
HETATM    7  C   UNL     1     -12.015  10.219  70.555  1.00  0.00    -0.415 A  
HETATM    8  C   UNL     1     -10.677   9.825  70.725  1.00  0.00    -0.393 A  
HETATM    9  C   UNL     1     -10.317   8.849  71.660  1.00  0.00    -0.416 A  
HETATM   10  C   UNL     1     -11.292   8.251  72.452  1.00  0.00    -0.457 A  
HETATM   11  C   UNL     1     -12.624   8.633  72.314  1.00  0.00    -0.457 A  
HETATM   12  C   UNL     1     -12.976   9.611  71.380  1.00  0.00    -0.474 A  
ENDBRANCH   6   7
TORSDOF 1
ENDMDL
MODEL       39
REMARK 921   NORMALIZED FREE ENERGY PREDICTED BY IDOCK:   -3.87 KCAL/MOL
REMARK 922        TOTAL FREE ENERGY PREDICTED BY IDOCK:   -4.19 KCAL/MOL
REMARK 923 INTER-LIGAND FREE ENERGY PREDICTED BY IDOCK:   -4.10 KCAL/MOL
REMARK 924 INTRA-LIGAND FREE ENERGY PREDICTED BY IDOCK:   -0.09 KCAL/MOL
REMARK 927      BINDING AFFINITY PREDICTED BY RF-SCORE:    0.00 PKD
ROOT
HETATM    1  N   UNL     1     -12.190  10.474  69.246  1.00  0.00    -0.669 NA 
HETATM    2  C   UNL     1     -11.905  11.616  68.375  1.00  0.00    -0.278 C  
HETATM    3  H1  UNL     1     -13.135  10.090  69.287  1.00  0.00     0.000 HD 
HETATM    4  H2  UNL     1     -11.894  10.709  70.194  1.00  0.00     0.000 HD 
HETATM    5  C   UNL     1     -10.520  12.180  68.314  1.00  0.00    -0.225 C  
HETATM    6  C   UNL     1     -11.067  11.416  67.130  1.00  0.00    -0.366 C  
ENDROOT
BRANCH   6   7
HETATM    7  C   UNL     1     -11.410  12.155  65.858  1.00  0.00    -0.407 A  
HETATM    8  C   UNL     1     -10.988  11.683  64.603  1.00  0.00    -0.363 A  
HETATM    9  C   UNL     1     -11.305  12.364  63.424  1.00  0.00    -0.507 A  
HETATM   10  C   UNL     1     -12.059  13.532  63.476  1.00  0.00    -0.425 A  
HETATM   11  C   UNL     1     -12.501  14.015  64.705  1.00  0.00    -0.366 A  
HETATM   12  C   UNL     1     -12.185  13.327  65.879  1.00  0.00    -0.497 A  
ENDBRANCH   6   7
TORSDOF 1
ENDMDL
MODEL       40
REMARK 921   NORMALIZED FREE ENERGY PREDICTED BY IDOCK:   -3.87 KCAL/MOL
REMARK 922        TOTAL FREE ENERGY PREDICTED BY IDOCK:   -4.18 KCAL/MOL
REMARK 923 INTER-LIGAND FREE ENERGY PREDICTED BY IDOCK:   -4.09 KCAL/MOL
REMARK 924 INTRA-LIGAND FREE ENERGY PREDICTED BY IDOCK:   -0.09 KCAL/MOL
REMARK 927      BINDING AFFINITY PREDICTED BY RF-SCORE:    0.00 PKD
ROOT
HETATM    1  N   UNL     1      -9.920  14.428  64.589  1.00  0.00    -0.613 NA 
HETATM    2  C   UNL     1     -10.093  15.261  65.780  1.00  0.00    -0.356 C  
HETATM    3  H1  UNL     1     -10.443  14.641  63.739  1.00  0.00     0.000 HD 
HETATM    4  H2  UNL     1     -10.100  13.457  64.845  1.00  0.00     0.000 HD 
HETATM    5  C   UNL     1      -9.325  14.948  67.027  1.00  0.00    -0.240 C  
HETATM    6  C   UNL     1      -8.971  16.177  66.221  1.00  0.00    -0.379 C  
ENDROOT
BRANCH   6   7
HETATM    7  C   UNL     1      -9.283  17.548  66.773  1.00  0.00    -0.277 A  
HETATM    8  C   UNL     1     -10.325  18.328  66.242  1.00  0.00    -0.422 A  
HETATM    9  C   UNL     1     -10.619  19.596  66.751  1.00  0.00    -0.602 A  
HETATM   10  C   UNL     1      -9.877  20.110  67.810  1.00  0.00    -0.547 A  
HETATM   11  C   UNL     1      -8.848  19.353  68.364  1.00  0.00    -0.397 A  
HETATM   12  C   UNL     1      -8.563  18.084  67.853  1.00  0.00    -0.258 A  
ENDBRANCH   6   7
TORSDOF 1
ENDMDL
MODEL       41
REMARK 921   NORMALIZED FREE ENERGY PREDICTED BY IDOCK:   -3.86 KCAL/MOL
REMARK 922        TOTAL FREE ENERGY PREDICTED BY IDOCK:   -4.18 KCAL/MOL
REMARK 923 INTER-LIGAND FREE ENERGY PREDICTED BY IDOCK:   -4.09 KCAL/MOL
REMARK 924 INTRA-LIGAND FREE ENERGY PREDICTED BY IDOCK:   -0.09 KCAL/MOL
REMARK 927      BINDING AFFINITY PREDICTED BY RF-SCORE:    0.00 PKD
ROOT
HETATM    1  N   UNL     1     -12.971  15.778  70.344  1.00  0.00    -0.714 NA 
HETATM    2  C   UNL     1     -12.009  15.556  69.264  1.00  0.00    -0.316 C  
HETATM    3  H1  UNL     1     -13.858  16.245  70.148  1.00  0.00     0.000 HD 
HETATM    4  H2  UNL     1     -12.501  16.281  71.098  1.00  0.00     0.000 HD 
HETATM    5  C   UNL     1     -10.709  14.872  69.552  1.00  0.00    -0.256 C  
HETATM    6  C   UNL     1     -11.771  14.151  68.752  1.00  0.00    -0.380 C  
ENDROOT
BRANCH   6   7
HETATM    7  C   UNL     1     -11.557  13.907  67.276  1.00  0.00    -0.393 A  
HETATM    8  C   UNL     1     -10.855  14.828  66.479  1.00  0.00    -0.319 A  
HETATM    9  C   UNL     1     -10.655  14.606  65.114  1.00  0.00    -0.441 A  
HETATM   10  C   UNL     1     -11.149  13.450  64.517  1.00  0.00    -0.396 A  
HETATM   11  C   UNL     1     -11.836  12.515  65.286  1.00  0.00    -0.461 A  
HETATM   12  C   UNL     1     -12.029  12.741  66.652  1.00  0.00    -0.411 A  
ENDBRANCH   6   7
TORSDOF 1
ENDMDL
MODEL       42
REMARK 921   NORMALIZED FREE ENERGY PREDICTED BY IDOCK:   -3.82 KCAL/MOL
REMARK 922        TOTAL FREE ENERGY PREDICTED BY IDOCK:   -4.13 KCAL/MOL
REMARK 923 INTER-LIGAND FREE ENERGY PREDICTED BY IDOCK:   -4.04 KCAL/MOL
REMARK 924 INTRA-LIGAND FREE ENERGY PREDICTED BY IDOCK:   -0.09 KCAL/MOL
REMARK 927      BINDING AFFINITY PREDICTED BY RF-SCORE:    0.00 PKD
ROOT
HETATM    1  N   UNL     1     -12.047  10.931  68.323  1.00  0.00    -0.810 NA 
HETATM    2  C   UNL     1     -11.405  10.789  69.631  1.00  0.00    -0.294 C  
HETATM    3  H1  UNL     1     -11.583  10.573  67.487  1.00  0.00     0.000 HD 
HETATM    4  H2  UNL     1     -12.265  11.916  68.175  1.00  0.00     0.000 HD 
HETATM    5  C   UNL     1     -12.086  11.314  70.857  1.00  0.00    -0.406 C  
HETATM    6  C   UNL     1     -11.978   9.820  70.644  1.00  0.00    -0.340 C  
ENDROOT
BRANCH   6   7
HETATM    7  C   UNL     1     -11.056   9.005  71.520  1.00  0.00    -0.419 A  
HETATM    8  C   UNL     1     -11.560   8.183  72.543  1.00  0.00    -0.468 A  
HETATM    9  C   UNL     1     -10.710   7.427  73.355  1.00  0.00    -0.407 A  
HETATM   10  C   UNL     1      -9.334   7.473  73.156  1.00  0.00    -0.258 A  
HETATM   11  C   UNL     1      -8.809   8.269  72.141  1.00  0.00    -0.265 A  
HETATM   12  C   UNL     1      -9.665   9.019  71.330  1.00  0.00    -0.371 A  
ENDBRANCH   6   7
TORSDOF 1
ENDMDL
MODEL       43
REMARK 921   NORMALIZED FREE ENERGY PREDICTED BY IDOCK:   -3.80 KCAL/MOL
REMARK 922        TOTAL FREE ENERGY PREDICTED BY IDOCK:   -4.12 KCAL/MOL
REMARK 923 INTER-LIGAND FREE ENERGY PREDICTED BY IDOCK:   -4.03 KCAL/MOL
REMARK 924 INTRA-LIGAND FREE ENERGY PREDICTED BY IDOCK:   -0.09 KCAL/MOL
REMARK 927      BINDING AFFINITY PREDICTED BY RF-SCORE:    0.00 PKD
ROOT
HETATM    1  N   UNL     1     -11.418  11.709  69.994  1.00  0.00    -0.484 NA 
HETATM    2  C   UNL     1     -11.894  12.218  68.707  1.00  0.00    -0.306 C  
HETATM    3  H1  UNL     1     -11.533  10.722  70.225  1.00  0.00     0.000 HD 
HETATM    4  H2  UNL     1     -11.839  12.267  70.737  1.00  0.00     0.000 HD 
HETATM    5  C   UNL     1     -11.725  13.666  68.368  1.00  0.00    -0.393 C  
HETATM    6  C   UNL     1     -10.892  12.629  67.648  1.00  0.00    -0.248 C  
ENDROOT
BRANCH   6   7
HETATM    7  C   UNL     1     -11.163  12.333  66.191  1.00  0.00    -0.372 A  
HETATM    8  C   UNL     1     -12.301  12.845  65.543  1.00  0.00    -0.517 A  
HETATM    9  C   UNL     1     -12.555  12.574  64.195  1.00  0.00    -0.474 A  
HETATM   10  C   UNL     1     -11.669  11.789  63.464  1.00  0.00    -0.485 A  
HETATM   11  C   UNL     1     -10.527  11.282  64.078  1.00  0.00    -0.440 A  
HETATM   12  C   UNL     1     -10.277  11.559  65.425  1.00  0.00    -0.311 A  
ENDBRANCH   6   7
TORSDOF 1
ENDMDL
MODEL       44
REMARK 921   NORMALIZED FREE ENERGY PREDICTED BY IDOCK:   -3.79 KCAL/MOL
REMARK 922        TOTAL FREE ENERGY PREDICTED BY IDOCK:   -4.11 KCAL/MOL
REMARK 923 INTER-LIGAND FREE ENERGY PREDICTED BY IDOCK:   -4.02 KCAL/MOL
REMARK 924 INTRA-LIGAND FREE ENERGY PREDICTED BY IDOCK:   -0.09 KCAL/MOL
REMARK 927      BINDING AFFINITY PREDICTED BY RF-SCORE:    0.00 PKD
ROOT
HETATM    1  N   UNL     1      -8.863   8.881  63.847  1.00  0.00    -0.430 NA 
HETATM    2  C   UNL     1      -9.131  10.313  63.982  1.00  0.00    -0.251 C  
HETATM    3  H1  UNL     1      -8.913   8.274  64.666  1.00  0.00     0.000 HD 
HETATM    4  H2  UNL     1      -7.947   8.763  63.413  1.00  0.00     0.000 HD 
HETATM    5  C   UNL     1      -9.057  11.203  62.780  1.00  0.00    -0.353 C  
HETATM    6  C   UNL     1     -10.402  10.894  63.399  1.00  0.00    -0.299 C  
ENDROOT
BRANCH   6   7
HETATM    7  C   UNL     1     -11.150  11.978  64.140  1.00  0.00    -0.431 A  
HETATM    8  C   UNL     1     -11.717  13.069  63.458  1.00  0.00    -0.532 A  
HETATM    9  C   UNL     1     -12.411  14.073  64.140  1.00  0.00    -0.374 A  
HETATM   10  C   UNL     1     -12.557  14.003  65.522  1.00  0.00    -0.543 A  
HETATM   11  C   UNL     1     -12.017  12.926  66.220  1.00  0.00    -0.472 A  
HETATM   12  C   UNL     1     -11.329  11.924  65.532  1.00  0.00    -0.334 A  
ENDBRANCH   6   7
TORSDOF 1
ENDMDL
MODEL       45
REMARK 921   NORMALIZED FREE ENERGY PREDICTED BY IDOCK:   -3.78 KCAL/MOL
REMARK 922        TOTAL FREE ENERGY PREDICTED BY IDOCK:   -4.10 KCAL/MOL
REMARK 923 INTER-LIGAND FREE ENERGY PREDICTED BY IDOCK:   -4.00 KCAL/MOL
REMARK 924 INTRA-LIGAND FREE ENERGY PREDICTED BY IDOCK:   -0.09 KCAL/MOL
REMARK 927      BINDING AFFINITY PREDICTED BY RF-SCORE:    0.00 PKD
ROOT
HETATM    1  N   UNL     1     -11.058  11.225  69.994  1.00  0.00    -0.477 NA 
HETATM    2  C   UNL     1     -11.753  12.136  69.083  1.00  0.00    -0.328 C  
HETATM    3  H1  UNL     1     -10.941  10.244  69.741  1.00  0.00     0.000 HD 
HETATM    4  H2  UNL     1     -11.511  11.273  70.907  1.00  0.00     0.000 HD 
HETATM    5  C   UNL     1     -11.924  13.576  69.455  1.00  0.00    -0.383 C  
HETATM    6  C   UNL     1     -10.968  13.200  68.345  1.00  0.00    -0.287 C  
ENDROOT
BRANCH   6   7
HETATM    7  C   UNL     1     -11.313  13.541  66.914  1.00  0.00    -0.350 A  
HETATM    8  C   UNL     1     -12.015  12.637  66.098  1.00  0.00    -0.458 A  
HETATM    9  C   UNL     1     -12.337  12.950  64.774  1.00  0.00    -0.516 A  
HETATM   10  C   UNL     1     -11.968  14.181  64.240  1.00  0.00    -0.460 A  
HETATM   11  C   UNL     1     -11.284  15.100  65.031  1.00  0.00    -0.414 A  
HETATM   12  C   UNL     1     -10.969  14.782  66.355  1.00  0.00    -0.331 A  
ENDBRANCH   6   7
TORSDOF 1
ENDMDL
MODEL       46
REMARK 921   NORMALIZED FREE ENERGY PREDICTED BY IDOCK:   -3.78 KCAL/MOL
REMARK 922        TOTAL FREE ENERGY PREDICTED BY IDOCK:   -4.09 KCAL/MOL
REMARK 923 INTER-LIGAND FREE ENERGY PREDICTED BY IDOCK:   -4.01 KCAL/MOL
REMARK 924 INTRA-LIGAND FREE ENERGY PREDICTED BY IDOCK:   -0.09 KCAL/MOL
REMARK 927      BINDING AFFINITY PREDICTED BY RF-SCORE:    0.00 PKD
ROOT
HETATM    1  N   UNL     1     -12.030  14.009  66.338  1.00  0.00    -0.418 NA 
HETATM    2  C   UNL     1     -11.832  12.937  67.313  1.00  0.00    -0.356 C  
HETATM    3  H1  UNL     1     -12.971  14.229  66.007  1.00  0.00     0.000 HD 
HETATM    4  H2  UNL     1     -11.438  13.823  65.528  1.00  0.00     0.000 HD 
HETATM    5  C   UNL     1     -10.453  12.615  67.798  1.00  0.00    -0.228 C  
HETATM    6  C   UNL     1     -11.436  13.282  68.734  1.00  0.00    -0.346 C  
ENDROOT
BRANCH   6   7
HETATM    7  C   UNL     1     -12.011  12.501  69.893  1.00  0.00    -0.371 A  
HETATM    8  C   UNL     1     -12.640  13.151  70.969  1.00  0.00    -0.397 A  
HETATM    9  C   UNL     1     -13.174  12.432  72.043  1.00  0.00    -0.514 A  
HETATM   10  C   UNL     1     -13.097  11.043  72.058  1.00  0.00    -0.449 A  
HETATM   11  C   UNL     1     -12.492  10.374  70.997  1.00  0.00    -0.488 A  
HETATM   12  C   UNL     1     -11.963  11.098  69.925  1.00  0.00    -0.439 A  
ENDBRANCH   6   7
TORSDOF 1
ENDMDL
MODEL       47
REMARK 921   NORMALIZED FREE ENERGY PREDICTED BY IDOCK:   -3.76 KCAL/MOL
REMARK 922        TOTAL FREE ENERGY PREDICTED BY IDOCK:   -4.07 KCAL/MOL
REMARK 923 INTER-LIGAND FREE ENERGY PREDICTED BY IDOCK:   -3.98 KCAL/MOL
REMARK 924 INTRA-LIGAND FREE ENERGY PREDICTED BY IDOCK:   -0.09 KCAL/MOL
REMARK 927      BINDING AFFINITY PREDICTED BY RF-SCORE:    0.00 PKD
ROOT
HETATM    1  N   UNL     1      -8.024  17.599  65.773  1.00  0.00    -0.541 NA 
HETATM    2  C   UNL     1      -8.809  16.477  66.289  1.00  0.00    -0.329 C  
HETATM    3  H1  UNL     1      -7.417  17.464  64.964  1.00  0.00     0.000 HD 
HETATM    4  H2  UNL     1      -7.466  17.982  66.536  1.00  0.00     0.000 HD 
HETATM    5  C   UNL     1      -9.701  16.674  67.476  1.00  0.00    -0.247 C  
HETATM    6  C   UNL     1     -10.313  16.470  66.108  1.00  0.00    -0.344 C  
ENDROOT
BRANCH   6   7
HETATM    7  C   UNL     1     -11.034  15.180  65.797  1.00  0.00    -0.350 A  
HETATM    8  C   UNL     1     -11.447  14.871  64.490  1.00  0.00    -0.328 A  
HETATM    9  C   UNL     1     -12.113  13.677  64.198  1.00  0.00    -0.484 A  
HETATM   10  C   UNL     1     -12.375  12.761  65.212  1.00  0.00    -0.546 A  
HETATM   11  C   UNL     1     -11.964  13.035  66.514  1.00  0.00    -0.457 A  
HETATM   12  C   UNL     1     -11.295  14.228  66.798  1.00  0.00    -0.357 A  
ENDBRANCH   6   7
TORSDOF 1
ENDMDL
MODEL       48
REMARK 921   NORMALIZED FREE ENERGY PREDICTED BY IDOCK:   -3.76 KCAL/MOL
REMARK 922        TOTAL FREE ENERGY PREDICTED BY IDOCK:   -4.07 KCAL/MOL
REMARK 923 INTER-LIGAND FREE ENERGY PREDICTED BY IDOCK:   -3.98 KCAL/MOL
REMARK 924 INTRA-LIGAND FREE ENERGY PREDICTED BY IDOCK:   -0.09 KCAL/MOL
REMARK 927      BINDING AFFINITY PREDICTED BY RF-SCORE:    0.00 PKD
ROOT
HETATM    1  N   UNL     1     -11.387  16.482  63.874  1.00  0.00    -1.559 NA 
HETATM    2  C   UNL     1     -11.445  15.471  64.931  1.00  0.00    -0.279 C  
HETATM    3  H1  UNL     1     -10.735  17.263  63.954  1.00  0.00     0.000 HD 
HETATM    4  H2  UNL     1     -12.325  16.856  63.732  1.00  0.00     0.000 HD 
HETATM    5  C   UNL     1     -12.401  14.324  64.814  1.00  0.00    -0.440 C  
HETATM    6  C   UNL     1     -10.916  14.077  64.663  1.00  0.00    -0.401 C  
ENDROOT
BRANCH   6   7
HETATM    7  C   UNL     1     -10.170  13.328  65.742  1.00  0.00    -0.296 A  
HETATM    8  C   UNL     1     -10.017  13.867  67.031  1.00  0.00    -0.258 A  
HETATM    9  C   UNL     1      -9.328  13.176  68.032  1.00  0.00    -0.219 A  
HETATM   10  C   UNL     1      -8.782  11.925  67.765  1.00  0.00    -0.158 A  
HETATM   11  C   UNL     1      -8.931  11.362  66.500  1.00  0.00    -0.192 A  
HETATM   12  C   UNL     1      -9.624  12.056  65.505  1.00  0.00    -0.174 A  
ENDBRANCH   6   7
TORSDOF 1
ENDMDL
MODEL       49
REMARK 921   NORMALIZED FREE ENERGY PREDICTED BY IDOCK:   -3.76 KCAL/MOL
REMARK 922        TOTAL FREE ENERGY PREDICTED BY IDOCK:   -4.07 KCAL/MOL
REMARK 923 INTER-LIGAND FREE ENERGY PREDICTED BY IDOCK:   -3.98 KCAL/MOL
REMARK 924 INTRA-LIGAND FREE ENERGY PREDICTED BY IDOCK:   -0.09 KCAL/MOL
REMARK 927      BINDING AFFINITY PREDICTED BY RF-SCORE:    0.00 PKD
ROOT
HETATM    1  N   UNL     1     -11.525  11.170  70.216  1.00  0.00    -0.450 NA 
HETATM    2  C   UNL     1     -11.847  11.902  68.990  1.00  0.00    -0.308 C  
HETATM    3  H1  UNL     1     -11.879  10.222  70.350  1.00  0.00     0.000 HD 
HETATM    4  H2  UNL     1     -11.808  11.738  71.015  1.00  0.00     0.000 HD 
HETATM    5  C   UNL     1     -11.328  13.293  68.793  1.00  0.00    -0.331 C  
HETATM    6  C   UNL     1     -10.762  12.160  67.966  1.00  0.00    -0.242 C  
ENDROOT
BRANCH   6   7
HETATM    7  C   UNL     1     -11.078  12.083  66.491  1.00  0.00    -0.362 A  
HETATM    8  C   UNL     1     -10.400  11.187  65.646  1.00  0.00    -0.311 A  
HETATM    9  C   UNL     1     -10.690  11.112  64.280  1.00  0.00    -0.403 A  
HETATM   10  C   UNL     1     -11.672  11.930  63.731  1.00  0.00    -0.554 A  
HETATM   11  C   UNL     1     -12.369  12.817  64.549  1.00  0.00    -0.515 A  
HETATM   12  C   UNL     1     -12.077  12.884  65.913  1.00  0.00    -0.503 A  
ENDBRANCH   6   7
TORSDOF 1
ENDMDL
MODEL       50
REMARK 921   NORMALIZED FREE ENERGY PREDICTED BY IDOCK:   -3.75 KCAL/MOL
REMARK 922        TOTAL FREE ENERGY PREDICTED BY IDOCK:   -4.06 KCAL/MOL
REMARK 923 INTER-LIGAND FREE ENERGY PREDICTED BY IDOCK:   -3.97 KCAL/MOL
REMARK 924 INTRA-LIGAND FREE ENERGY PREDICTED BY IDOCK:   -0.09 KCAL/MOL
REMARK 927      BINDING AFFINITY PREDICTED BY RF-SCORE:    0.00 PKD
ROOT
HETATM    1  N   UNL     1     -10.139   9.793  69.683  1.00  0.00    -0.214 NA 
HETATM    2  C   UNL     1     -10.727  11.125  69.543  1.00  0.00    -0.143 C  
HETATM    3  H1  UNL     1      -9.387   9.637  70.355  1.00  0.00     0.000 HD 
HETATM    4  H2  UNL     1      -9.823   9.480  68.765  1.00  0.00     0.000 HD 
HETATM    5  C   UNL     1     -11.831  11.354  68.557  1.00  0.00    -0.364 C  
HETATM    6  C   UNL     1     -12.136  11.377  70.039  1.00  0.00    -0.417 C  
ENDROOT
BRANCH   6   7
HETATM    7  C   UNL     1     -12.481  12.686  70.709  1.00  0.00    -0.357 A  
HETATM    8  C   UNL     1     -13.231  12.722  71.897  1.00  0.00    -0.511 A  
HETATM    9  C   UNL     1     -13.552  13.931  72.521  1.00  0.00    -0.680 A  
HETATM   10  C   UNL     1     -13.121  15.134  71.971  1.00  0.00    -0.453 A  
HETATM   11  C   UNL     1     -12.365  15.127  70.801  1.00  0.00    -0.415 A  
HETATM   12  C   UNL     1     -12.045  13.914  70.185  1.00  0.00    -0.418 A  
ENDBRANCH   6   7
TORSDOF 1
ENDMDL
MODEL       51
REMARK 921   NORMALIZED FREE ENERGY PREDICTED BY IDOCK:   -3.72 KCAL/MOL
REMARK 922        TOTAL FREE ENERGY PREDICTED BY IDOCK:   -4.03 KCAL/MOL
REMARK 923 INTER-LIGAND FREE ENERGY PREDICTED BY IDOCK:   -3.95 KCAL/MOL
REMARK 924 INTRA-LIGAND FREE ENERGY PREDICTED BY IDOCK:   -0.09 KCAL/MOL
REMARK 927      BINDING AFFINITY PREDICTED BY RF-SCORE:    0.00 PKD
ROOT
HETATM    1  N   UNL     1      -7.468  17.857  65.797  1.00  0.00    -0.548 NA 
HETATM    2  C   UNL     1      -8.362  16.849  66.369  1.00  0.00    -0.298 C  
HETATM    3  H1  UNL     1      -6.922  17.638  64.963  1.00  0.00     0.000 HD 
HETATM    4  H2  UNL     1      -6.831  18.176  66.527  1.00  0.00     0.000 HD 
HETATM    5  C   UNL     1      -9.164  17.171  67.592  1.00  0.00    -0.238 C  
HETATM    6  C   UNL     1      -9.862  17.030  66.257  1.00  0.00    -0.310 C  
ENDROOT
BRANCH   6   7
HETATM    7  C   UNL     1     -10.753  15.837  66.003  1.00  0.00    -0.311 A  
HETATM    8  C   UNL     1     -11.173  15.003  67.053  1.00  0.00    -0.328 A  
HETATM    9  C   UNL     1     -11.998  13.898  66.821  1.00  0.00    -0.472 A  
HETATM   10  C   UNL     1     -12.427  13.609  65.530  1.00  0.00    -0.544 A  
HETATM   11  C   UNL     1     -12.037  14.427  64.473  1.00  0.00    -0.498 A  
HETATM   12  C   UNL     1     -11.216  15.531  64.712  1.00  0.00    -0.399 A  
ENDBRANCH   6   7
TORSDOF 1
ENDMDL
MODEL       52
REMARK 921   NORMALIZED FREE ENERGY PREDICTED BY IDOCK:   -3.72 KCAL/MOL
REMARK 922        TOTAL FREE ENERGY PREDICTED BY IDOCK:   -4.03 KCAL/MOL
REMARK 923 INTER-LIGAND FREE ENERGY PREDICTED BY IDOCK:   -3.95 KCAL/MOL
REMARK 924 INTRA-LIGAND FREE ENERGY PREDICTED BY IDOCK:   -0.09 KCAL/MOL
REMARK 927      BINDING AFFINITY PREDICTED BY RF-SCORE:    0.00 PKD
ROOT
HETATM    1  N   UNL     1     -10.672   5.465  69.875  1.00  0.00    -0.290 NA 
HETATM    2  C   UNL     1     -11.589   6.470  70.412  1.00  0.00    -0.407 C  
HETATM    3  H1  UNL     1     -10.451   5.459  68.878  1.00  0.00     0.000 HD 
HETATM    4  H2  UNL     1     -11.018   4.540  70.135  1.00  0.00     0.000 HD 
HETATM    5  C   UNL     1     -11.914   6.479  71.874  1.00  0.00    -0.389 C  
HETATM    6  C   UNL     1     -11.051   7.578  71.294  1.00  0.00    -0.267 C  
ENDROOT
BRANCH   6   7
HETATM    7  C   UNL     1     -11.605   8.979  71.176  1.00  0.00    -0.372 A  
HETATM    8  C   UNL     1     -12.690   9.402  71.963  1.00  0.00    -0.483 A  
HETATM    9  C   UNL     1     -13.205  10.698  71.857  1.00  0.00    -0.528 A  
HETATM   10  C   UNL     1     -12.637  11.602  70.964  1.00  0.00    -0.431 A  
HETATM   11  C   UNL     1     -11.553  11.212  70.183  1.00  0.00    -0.410 A  
HETATM   12  C   UNL     1     -11.040   9.917  70.297  1.00  0.00    -0.368 A  
ENDBRANCH   6   7
TORSDOF 1
ENDMDL
MODEL       53
REMARK 921   NORMALIZED FREE ENERGY PREDICTED BY IDOCK:   -3.71 KCAL/MOL
REMARK 922        TOTAL FREE ENERGY PREDICTED BY IDOCK:   -4.02 KCAL/MOL
REMARK 923 INTER-LIGAND FREE ENERGY PREDICTED BY IDOCK:   -3.93 KCAL/MOL
REMARK 924 INTRA-LIGAND FREE ENERGY PREDICTED BY IDOCK:   -0.09 KCAL/MOL
REMARK 927      BINDING AFFINITY PREDICTED BY RF-SCORE:    0.00 PKD
ROOT
HETATM    1  N   UNL     1     -13.090   9.823  70.590  1.00  0.00    -0.586 NA 
HETATM    2  C   UNL     1     -12.252  10.909  70.081  1.00  0.00    -0.343 C  
HETATM    3  H1  UNL     1     -14.077   9.992  70.788  1.00  0.00     0.000 HD 
HETATM    4  H2  UNL     1     -12.652   9.443  71.429  1.00  0.00     0.000 HD 
HETATM    5  C   UNL     1     -10.804  10.661  69.790  1.00  0.00    -0.317 C  
HETATM    6  C   UNL     1     -11.770  10.873  68.646  1.00  0.00    -0.334 C  
ENDROOT
BRANCH   6   7
HETATM    7  C   UNL     1     -11.701  12.147  67.836  1.00  0.00    -0.403 A  
HETATM    8  C   UNL     1     -11.793  13.407  68.451  1.00  0.00    -0.401 A  
HETATM    9  C   UNL     1     -11.728  14.588  67.705  1.00  0.00    -0.410 A  
HETATM   10  C   UNL     1     -11.563  14.532  66.325  1.00  0.00    -0.364 A  
HETATM   11  C   UNL     1     -11.455  13.296  65.692  1.00  0.00    -0.342 A  
HETATM   12  C   UNL     1     -11.517  12.119  66.444  1.00  0.00    -0.430 A  
ENDBRANCH   6   7
TORSDOF 1
ENDMDL
MODEL       54
REMARK 921   NORMALIZED FREE ENERGY PREDICTED BY IDOCK:   -3.71 KCAL/MOL
REMARK 922        TOTAL FREE ENERGY PREDICTED BY IDOCK:   -4.02 KCAL/MOL
REMARK 923 INTER-LIGAND FREE ENERGY PREDICTED BY IDOCK:   -3.92 KCAL/MOL
REMARK 924 INTRA-LIGAND FREE ENERGY PREDICTED BY IDOCK:   -0.09 KCAL/MOL
REMARK 927      BINDING AFFINITY PREDICTED BY RF-SCORE:    0.00 PKD
ROOT
HETATM    1  N   UNL     1      -8.559  17.007  66.005  1.00  0.00    -0.518 NA 
HETATM    2  C   UNL     1      -9.407  15.821  66.131  1.00  0.00    -0.346 C  
HETATM    3  H1  UNL     1      -7.621  16.922  65.612  1.00  0.00     0.000 HD 
HETATM    4  H2  UNL     1      -8.488  17.452  66.921  1.00  0.00     0.000 HD 
HETATM    5  C   UNL     1     -10.783  15.945  66.708  1.00  0.00    -0.281 C  
HETATM    6  C   UNL     1     -10.615  15.666  65.231  1.00  0.00    -0.448 C  
ENDROOT
BRANCH   6   7
HETATM    7  C   UNL     1     -10.982  14.307  64.682  1.00  0.00    -0.379 A  
HETATM    8  C   UNL     1     -10.138  13.197  64.857  1.00  0.00    -0.236 A  
HETATM    9  C   UNL     1     -10.475  11.938  64.352  1.00  0.00    -0.356 A  
HETATM   10  C   UNL     1     -11.670  11.762  63.663  1.00  0.00    -0.517 A  
HETATM   11  C   UNL     1     -12.531  12.842  63.486  1.00  0.00    -0.474 A  
HETATM   12  C   UNL     1     -12.191  14.096  63.998  1.00  0.00    -0.369 A  
ENDBRANCH   6   7
TORSDOF 1
ENDMDL
MODEL       55
REMARK 921   NORMALIZED FREE ENERGY PREDICTED BY IDOCK:   -3.71 KCAL/MOL
REMARK 922        TOTAL FREE ENERGY PREDICTED BY IDOCK:   -4.01 KCAL/MOL
REMARK 923 INTER-LIGAND FREE ENERGY PREDICTED BY IDOCK:   -3.93 KCAL/MOL
REMARK 924 INTRA-LIGAND FREE ENERGY PREDICTED BY IDOCK:   -0.09 KCAL/MOL
REMARK 927      BINDING AFFINITY PREDICTED BY RF-SCORE:    0.00 PKD
ROOT
HETATM    1  N   UNL     1     -11.323   4.699  65.186  1.00  0.00    -1.090 NA 
HETATM    2  C   UNL     1     -10.482   4.901  66.367  1.00  0.00    -0.280 C  
HETATM    3  H1  UNL     1     -11.914   3.870  65.118  1.00  0.00     0.000 HD 
HETATM    4  H2  UNL     1     -10.730   4.743  64.357  1.00  0.00     0.000 HD 
HETATM    5  C   UNL     1      -9.615   6.117  66.467  1.00  0.00    -0.183 C  
HETATM    6  C   UNL     1     -10.832   5.993  67.357  1.00  0.00    -0.394 C  
ENDROOT
BRANCH   6   7
HETATM    7  C   UNL     1     -10.653   5.760  68.838  1.00  0.00    -0.337 A  
HETATM    8  C   UNL     1     -11.441   6.439  69.784  1.00  0.00    -0.468 A  
HETATM    9  C   UNL     1     -11.280   6.225  71.156  1.00  0.00    -0.365 A  
HETATM   10  C   UNL     1     -10.328   5.319  71.612  1.00  0.00    -0.281 A  
HETATM   11  C   UNL     1      -9.543   4.623  70.696  1.00  0.00    -0.261 A  
HETATM   12  C   UNL     1      -9.712   4.838  69.326  1.00  0.00    -0.266 A  
ENDBRANCH   6   7
TORSDOF 1
ENDMDL
MODEL       56
REMARK 921   NORMALIZED FREE ENERGY PREDICTED BY IDOCK:   -3.70 KCAL/MOL
REMARK 922        TOTAL FREE ENERGY PREDICTED BY IDOCK:   -4.01 KCAL/MOL
REMARK 923 INTER-LIGAND FREE ENERGY PREDICTED BY IDOCK:   -3.92 KCAL/MOL
REMARK 924 INTRA-LIGAND FREE ENERGY PREDICTED BY IDOCK:   -0.09 KCAL/MOL
REMARK 927      BINDING AFFINITY PREDICTED BY RF-SCORE:    0.00 PKD
ROOT
HETATM    1  N   UNL     1     -12.133  10.945  68.344  1.00  0.00    -0.818 NA 
HETATM    2  C   UNL     1     -11.309  11.888  67.587  1.00  0.00    -0.304 C  
HETATM    3  H1  UNL     1     -12.015  10.864  69.355  1.00  0.00     0.000 HD 
HETATM    4  H2  UNL     1     -12.028  10.019  67.930  1.00  0.00     0.000 HD 
HETATM    5  C   UNL     1     -11.482  12.007  66.104  1.00  0.00    -0.401 C  
HETATM    6  C   UNL     1     -11.942  13.134  67.003  1.00  0.00    -0.412 C  
ENDROOT
BRANCH   6   7
HETATM    7  C   UNL     1     -11.185  14.442  67.007  1.00  0.00    -0.336 A  
HETATM    8  C   UNL     1     -11.432  15.424  67.981  1.00  0.00    -0.333 A  
HETATM    9  C   UNL     1     -10.734  16.635  67.988  1.00  0.00    -0.350 A  
HETATM   10  C   UNL     1      -9.766  16.886  67.021  1.00  0.00    -0.255 A  
HETATM   11  C   UNL     1      -9.492  15.924  66.052  1.00  0.00    -0.389 A  
HETATM   12  C   UNL     1     -10.190  14.714  66.053  1.00  0.00    -0.326 A  
ENDBRANCH   6   7
TORSDOF 1
ENDMDL
MODEL       57
REMARK 921   NORMALIZED FREE ENERGY PREDICTED BY IDOCK:   -3.70 KCAL/MOL
REMARK 922        TOTAL FREE ENERGY PREDICTED BY IDOCK:   -4.00 KCAL/MOL
REMARK 923 INTER-LIGAND FREE ENERGY PREDICTED BY IDOCK:   -3.91 KCAL/MOL
REMARK 924 INTRA-LIGAND FREE ENERGY PREDICTED BY IDOCK:   -0.09 KCAL/MOL
REMARK 927      BINDING AFFINITY PREDICTED BY RF-SCORE:    0.00 PKD
ROOT
HETATM    1  N   UNL     1     -11.793  16.117  63.706  1.00  0.00    -1.368 NA 
HETATM    2  C   UNL     1     -11.388  15.363  64.893  1.00  0.00    -0.363 C  
HETATM    3  H1  UNL     1     -12.235  17.031  63.811  1.00  0.00     0.000 HD 
HETATM    4  H2  UNL     1     -12.402  15.526  63.140  1.00  0.00     0.000 HD 
HETATM    5  C   UNL     1     -10.739  14.022  64.739  1.00  0.00    -0.442 C  
HETATM    6  C   UNL     1      -9.916  15.201  65.210  1.00  0.00    -0.325 C  
ENDROOT
BRANCH   6   7
HETATM    7  C   UNL     1      -9.437  15.254  66.642  1.00  0.00    -0.281 A  
HETATM    8  C   UNL     1      -8.091  15.512  66.952  1.00  0.00    -0.284 A  
HETATM    9  C   UNL     1      -7.645  15.563  68.276  1.00  0.00    -0.115 A  
HETATM   10  C   UNL     1      -8.541  15.362  69.321  1.00  0.00    -0.252 A  
HETATM   11  C   UNL     1      -9.884  15.119  69.042  1.00  0.00    -0.238 A  
HETATM   12  C   UNL     1     -10.324  15.073  67.716  1.00  0.00    -0.245 A  
ENDBRANCH   6   7
TORSDOF 1
ENDMDL
MODEL       58
REMARK 921   NORMALIZED FREE ENERGY PREDICTED BY IDOCK:   -3.68 KCAL/MOL
REMARK 922        TOTAL FREE ENERGY PREDICTED BY IDOCK:   -3.99 KCAL/MOL
REMARK 923 INTER-LIGAND FREE ENERGY PREDICTED BY IDOCK:   -3.90 KCAL/MOL
REMARK 924 INTRA-LIGAND FREE ENERGY PREDICTED BY IDOCK:   -0.09 KCAL/MOL
REMARK 927      BINDING AFFINITY PREDICTED BY RF-SCORE:    0.00 PKD
ROOT
HETATM    1  N   UNL     1      -9.308  15.110  67.820  1.00  0.00    -0.188 NA 
HETATM    2  C   UNL     1     -10.160  14.984  69.003  1.00  0.00    -0.241 C  
HETATM    3  H1  UNL     1      -8.497  14.499  67.709  1.00  0.00     0.000 HD 
HETATM    4  H2  UNL     1      -8.995  16.079  67.749  1.00  0.00     0.000 HD 
HETATM    5  C   UNL     1     -11.349  15.880  69.165  1.00  0.00    -0.366 C  
HETATM    6  C   UNL     1     -11.556  14.412  68.861  1.00  0.00    -0.340 C  
ENDROOT
BRANCH   6   7
HETATM    7  C   UNL     1     -12.114  13.500  69.928  1.00  0.00    -0.408 A  
HETATM    8  C   UNL     1     -11.881  12.115  69.898  1.00  0.00    -0.392 A  
HETATM    9  C   UNL     1     -12.395  11.268  70.884  1.00  0.00    -0.490 A  
HETATM   10  C   UNL     1     -13.150  11.792  71.928  1.00  0.00    -0.482 A  
HETATM   11  C   UNL     1     -13.385  13.164  71.989  1.00  0.00    -0.587 A  
HETATM   12  C   UNL     1     -12.865  14.005  71.003  1.00  0.00    -0.410 A  
ENDBRANCH   6   7
TORSDOF 1
ENDMDL
MODEL       59
REMARK 921   NORMALIZED FREE ENERGY PREDICTED BY IDOCK:   -3.65 KCAL/MOL
REMARK 922        TOTAL FREE ENERGY PREDICTED BY IDOCK:   -3.95 KCAL/MOL
REMARK 923 INTER-LIGAND FREE ENERGY PREDICTED BY IDOCK:   -3.87 KCAL/MOL
REMARK 924 INTRA-LIGAND FREE ENERGY PREDICTED BY IDOCK:   -0.09 KCAL/MOL
REMARK 927      BINDING AFFINITY PREDICTED BY RF-SCORE:    0.00 PKD
ROOT
HETATM    1  N   UNL     1      -5.808  19.192  63.662  1.00  0.00    -0.418 NA 
HETATM    2  C   UNL     1      -6.262  19.236  65.053  1.00  0.00    -0.282 C  
HETATM    3  H1  UNL     1      -6.093  18.420  63.058  1.00  0.00     0.000 HD 
HETATM    4  H2  UNL     1      -4.789  19.251  63.653  1.00  0.00     0.000 HD 
HETATM    5  C   UNL     1      -5.844  20.368  65.939  1.00  0.00    -0.216 C  
HETATM    6  C   UNL     1      -7.281  20.274  65.474  1.00  0.00    -0.241 C  
ENDROOT
BRANCH   6   7
HETATM    7  C   UNL     1      -8.364  19.917  66.464  1.00  0.00    -0.372 A  
HETATM    8  C   UNL     1      -8.056  19.588  67.795  1.00  0.00    -0.331 A  
HETATM    9  C   UNL     1      -9.056  19.258  68.715  1.00  0.00    -0.409 A  
HETATM   10  C   UNL     1     -10.390  19.256  68.321  1.00  0.00    -0.478 A  
HETATM   11  C   UNL     1     -10.725  19.591  67.012  1.00  0.00    -0.592 A  
HETATM   12  C   UNL     1      -9.721  19.925  66.099  1.00  0.00    -0.527 A  
ENDBRANCH   6   7
TORSDOF 1
ENDMDL
MODEL       60
REMARK 921   NORMALIZED FREE ENERGY PREDICTED BY IDOCK:   -3.64 KCAL/MOL
REMARK 922        TOTAL FREE ENERGY PREDICTED BY IDOCK:   -3.94 KCAL/MOL
REMARK 923 INTER-LIGAND FREE ENERGY PREDICTED BY IDOCK:   -3.86 KCAL/MOL
REMARK 924 INTRA-LIGAND FREE ENERGY PREDICTED BY IDOCK:   -0.09 KCAL/MOL
REMARK 927      BINDING AFFINITY PREDICTED BY RF-SCORE:    0.00 PKD
ROOT
HETATM    1  N   UNL     1     -10.754  16.575  67.599  1.00  0.00    -0.329 NA 
HETATM    2  C   UNL     1     -10.057  17.812  67.244  1.00  0.00    -0.337 C  
HETATM    3  H1  UNL     1     -10.271  15.679  67.519  1.00  0.00     0.000 HD 
HETATM    4  H2  UNL     1     -11.620  16.526  67.062  1.00  0.00     0.000 HD 
HETATM    5  C   UNL     1     -10.764  19.127  67.361  1.00  0.00    -0.578 C  
HETATM    6  C   UNL     1      -9.657  18.785  68.333  1.00  0.00    -0.409 C  
ENDROOT
BRANCH   6   7
HETATM    7  C   UNL     1      -8.338  19.516  68.250  1.00  0.00    -0.375 A  
HETATM    8  C   UNL     1      -8.015  20.314  67.139  1.00  0.00    -0.378 A  
HETATM    9  C   UNL     1      -6.796  20.994  67.059  1.00  0.00    -0.397 A  
HETATM   10  C   UNL     1      -5.874  20.894  68.097  1.00  0.00    -0.384 A  
HETATM   11  C   UNL     1      -6.175  20.122  69.215  1.00  0.00    -0.361 A  
HETATM   12  C   UNL     1      -7.397  19.448  69.291  1.00  0.00    -0.308 A  
ENDBRANCH   6   7
TORSDOF 1
ENDMDL
MODEL       61
REMARK 921   NORMALIZED FREE ENERGY PREDICTED BY IDOCK:   -3.64 KCAL/MOL
REMARK 922        TOTAL FREE ENERGY PREDICTED BY IDOCK:   -3.94 KCAL/MOL
REMARK 923 INTER-LIGAND FREE ENERGY PREDICTED BY IDOCK:   -3.85 KCAL/MOL
REMARK 924 INTRA-LIGAND FREE ENERGY PREDICTED BY IDOCK:   -0.09 KCAL/MOL
REMARK 927      BINDING AFFINITY PREDICTED BY RF-SCORE:    0.00 PKD
ROOT
HETATM    1  N   UNL     1     -11.197   4.786  65.421  1.00  0.00    -0.970 NA 
HETATM    2  C   UNL     1     -10.482   5.076  66.665  1.00  0.00    -0.250 C  
HETATM    3  H1  UNL     1     -11.712   3.910  65.323  1.00  0.00     0.000 HD 
HETATM    4  H2  UNL     1     -10.540   4.864  64.645  1.00  0.00     0.000 HD 
HETATM    5  C   UNL     1      -9.727   6.361  66.809  1.00  0.00    -0.199 C  
HETATM    6  C   UNL     1     -11.003   6.153  67.593  1.00  0.00    -0.400 C  
ENDROOT
BRANCH   6   7
HETATM    7  C   UNL     1     -10.937   5.961  69.090  1.00  0.00    -0.382 A  
HETATM    8  C   UNL     1     -10.007   5.083  69.673  1.00  0.00    -0.311 A  
HETATM    9  C   UNL     1      -9.942   4.903  71.057  1.00  0.00    -0.282 A  
HETATM   10  C   UNL     1     -10.804   5.607  71.892  1.00  0.00    -0.302 A  
HETATM   11  C   UNL     1     -11.726   6.495  71.342  1.00  0.00    -0.378 A  
HETATM   12  C   UNL     1     -11.783   6.673  69.957  1.00  0.00    -0.378 A  
ENDBRANCH   6   7
TORSDOF 1
ENDMDL
MODEL       62
REMARK 921   NORMALIZED FREE ENERGY PREDICTED BY IDOCK:   -3.62 KCAL/MOL
REMARK 922        TOTAL FREE ENERGY PREDICTED BY IDOCK:   -3.92 KCAL/MOL
REMARK 923 INTER-LIGAND FREE ENERGY PREDICTED BY IDOCK:   -3.84 KCAL/MOL
REMARK 924 INTRA-LIGAND FREE ENERGY PREDICTED BY IDOCK:   -0.09 KCAL/MOL
REMARK 927      BINDING AFFINITY PREDICTED BY RF-SCORE:    0.00 PKD
ROOT
HETATM    1  N   UNL     1     -10.428   5.366  70.337  1.00  0.00    -0.280 NA 
HETATM    2  C   UNL     1     -11.399   6.410  70.670  1.00  0.00    -0.357 C  
HETATM    3  H1  UNL     1     -10.062   5.296  69.387  1.00  0.00     0.000 HD 
HETATM    4  H2  UNL     1     -10.823   4.463  70.600  1.00  0.00     0.000 HD 
HETATM    5  C   UNL     1     -11.936   6.513  72.064  1.00  0.00    -0.372 C  
HETATM    6  C   UNL     1     -10.980   7.567  71.552  1.00  0.00    -0.256 C  
ENDROOT
BRANCH   6   7
HETATM    7  C   UNL     1     -11.488   8.961  71.267  1.00  0.00    -0.368 A  
HETATM    8  C   UNL     1     -10.840   9.800  70.344  1.00  0.00    -0.370 A  
HETATM    9  C   UNL     1     -11.308  11.089  70.077  1.00  0.00    -0.358 A  
HETATM   10  C   UNL     1     -12.443  11.566  70.726  1.00  0.00    -0.444 A  
HETATM   11  C   UNL     1     -13.112  10.751  71.635  1.00  0.00    -0.551 A  
HETATM   12  C   UNL     1     -12.642   9.462  71.894  1.00  0.00    -0.481 A  
ENDBRANCH   6   7
TORSDOF 1
ENDMDL
MODEL       63
REMARK 921   NORMALIZED FREE ENERGY PREDICTED BY IDOCK:   -3.62 KCAL/MOL
REMARK 922        TOTAL FREE ENERGY PREDICTED BY IDOCK:   -3.92 KCAL/MOL
REMARK 923 INTER-LIGAND FREE ENERGY PREDICTED BY IDOCK:   -3.83 KCAL/MOL
REMARK 924 INTRA-LIGAND FREE ENERGY PREDICTED BY IDOCK:   -0.09 KCAL/MOL
REMARK 927      BINDING AFFINITY PREDICTED BY RF-SCORE:    0.00 PKD
ROOT
HETATM    1  N   UNL     1     -13.538  13.261  72.270  1.00  0.00    -0.581 NA 
HETATM    2  C   UNL     1     -13.384  14.125  71.100  1.00  0.00    -0.265 C  
HETATM    3  H1  UNL     1     -13.719  12.264  72.146  1.00  0.00     0.000 HD 
HETATM    4  H2  UNL     1     -14.269  13.651  72.866  1.00  0.00     0.000 HD 
HETATM    5  C   UNL     1     -13.118  15.588  71.282  1.00  0.00    -0.581 C  
HETATM    6  C   UNL     1     -12.019  14.688  70.761  1.00  0.00    -0.380 C  
ENDROOT
BRANCH   6   7
HETATM    7  C   UNL     1     -11.582  14.802  69.319  1.00  0.00    -0.331 A  
HETATM    8  C   UNL     1     -11.815  13.762  68.402  1.00  0.00    -0.411 A  
HETATM    9  C   UNL     1     -11.413  13.864  67.067  1.00  0.00    -0.367 A  
HETATM   10  C   UNL     1     -10.774  15.015  66.618  1.00  0.00    -0.312 A  
HETATM   11  C   UNL     1     -10.543  16.066  67.503  1.00  0.00    -0.313 A  
HETATM   12  C   UNL     1     -10.951  15.960  68.835  1.00  0.00    -0.290 A  
ENDBRANCH   6   7
TORSDOF 1
ENDMDL
MODEL       64
REMARK 921   NORMALIZED FREE ENERGY PREDICTED BY IDOCK:   -3.60 KCAL/MOL
REMARK 922        TOTAL FREE ENERGY PREDICTED BY IDOCK:   -3.90 KCAL/MOL
REMARK 923 INTER-LIGAND FREE ENERGY PREDICTED BY IDOCK:   -3.82 KCAL/MOL
REMARK 924 INTRA-LIGAND FREE ENERGY PREDICTED BY IDOCK:   -0.09 KCAL/MOL
REMARK 927      BINDING AFFINITY PREDICTED BY RF-SCORE:    0.00 PKD
ROOT
HETATM    1  N   UNL     1      -9.110  10.977  69.249  1.00  0.00    -0.399 NA 
HETATM    2  C   UNL     1      -9.676  10.996  67.900  1.00  0.00    -0.172 C  
HETATM    3  H1  UNL     1      -8.420  11.678  69.521  1.00  0.00     0.000 HD 
HETATM    4  H2  UNL     1      -8.717  10.052  69.422  1.00  0.00     0.000 HD 
HETATM    5  C   UNL     1     -10.690   9.968  67.502  1.00  0.00    -0.339 C  
HETATM    6  C   UNL     1     -11.121  11.404  67.701  1.00  0.00    -0.325 C  
ENDROOT
BRANCH   6   7
HETATM    7  C   UNL     1     -11.516  12.237  66.505  1.00  0.00    -0.438 A  
HETATM    8  C   UNL     1     -11.157  11.857  65.200  1.00  0.00    -0.360 A  
HETATM    9  C   UNL     1     -11.522  12.625  64.090  1.00  0.00    -0.447 A  
HETATM   10  C   UNL     1     -12.262  13.791  64.263  1.00  0.00    -0.444 A  
HETATM   11  C   UNL     1     -12.642  14.183  65.544  1.00  0.00    -0.501 A  
HETATM   12  C   UNL     1     -12.278  13.408  66.648  1.00  0.00    -0.391 A  
ENDBRANCH   6   7
TORSDOF 1
ENDMDL
MODEL       65
REMARK 921   NORMALIZED FREE ENERGY PREDICTED BY IDOCK:   -3.60 KCAL/MOL
REMARK 922        TOTAL FREE ENERGY PREDICTED BY IDOCK:   -3.90 KCAL/MOL
REMARK 923 INTER-LIGAND FREE ENERGY PREDICTED BY IDOCK:   -3.81 KCAL/MOL
REMARK 924 INTRA-LIGAND FREE ENERGY PREDICTED BY IDOCK:   -0.09 KCAL/MOL
REMARK 927      BINDING AFFINITY PREDICTED BY RF-SCORE:    0.00 PKD
ROOT
HETATM    1  N   UNL     1      -9.686  20.806  66.818  1.00  0.00    -0.641 NA 
HETATM    2  C   UNL     1      -9.466  19.440  67.296  1.00  0.00    -0.318 C  
HETATM    3  H1  UNL     1      -9.477  21.045  65.848  1.00  0.00     0.000 HD 
HETATM    4  H2  UNL     1      -9.176  21.447  67.427  1.00  0.00     0.000 HD 
HETATM    5  C   UNL     1      -9.773  19.090  68.719  1.00  0.00    -0.473 C  
HETATM    6  C   UNL     1     -10.656  18.558  67.612  1.00  0.00    -0.450 C  
ENDROOT
BRANCH   6   7
HETATM    7  C   UNL     1     -10.621  17.087  67.271  1.00  0.00    -0.267 A  
HETATM    8  C   UNL     1     -10.053  16.630  66.069  1.00  0.00    -0.359 A  
HETATM    9  C   UNL     1     -10.018  15.270  65.750  1.00  0.00    -0.391 A  
HETATM   10  C   UNL     1     -10.546  14.334  66.633  1.00  0.00    -0.278 A  
HETATM   11  C   UNL     1     -11.102  14.758  67.838  1.00  0.00    -0.301 A  
HETATM   12  C   UNL     1     -11.130  16.119  68.152  1.00  0.00    -0.332 A  
ENDBRANCH   6   7
TORSDOF 1
ENDMDL
MODEL       66
REMARK 921   NORMALIZED FREE ENERGY PREDICTED BY IDOCK:   -3.60 KCAL/MOL
REMARK 922        TOTAL FREE ENERGY PREDICTED BY IDOCK:   -3.90 KCAL/MOL
REMARK 923 INTER-LIGAND FREE ENERGY PREDICTED BY IDOCK:   -3.81 KCAL/MOL
REMARK 924 INTRA-LIGAND FREE ENERGY PREDICTED BY IDOCK:   -0.09 KCAL/MOL
REMARK 927      BINDING AFFINITY PREDICTED BY RF-SCORE:    0.00 PKD
ROOT
HETATM    1  N   UNL     1      -9.468   7.994  65.537  1.00  0.00    -0.348 NA 
HETATM    2  C   UNL     1      -9.786   9.376  65.899  1.00  0.00    -0.285 C  
HETATM    3  H1  UNL     1     -10.207   7.290  65.522  1.00  0.00     0.000 HD 
HETATM    4  H2  UNL     1      -8.719   7.664  66.145  1.00  0.00     0.000 HD 
HETATM    5  C   UNL     1      -8.702  10.409  65.920  1.00  0.00    -0.170 C  
HETATM    6  C   UNL     1      -9.756  10.454  64.835  1.00  0.00    -0.372 C  
ENDROOT
BRANCH   6   7
HETATM    7  C   UNL     1     -10.789  11.555  64.842  1.00  0.00    -0.345 A  
HETATM    8  C   UNL     1     -11.289  12.079  66.047  1.00  0.00    -0.398 A  
HETATM    9  C   UNL     1     -12.244  13.100  66.057  1.00  0.00    -0.478 A  
HETATM   10  C   UNL     1     -12.716  13.624  64.858  1.00  0.00    -0.320 A  
HETATM   11  C   UNL     1     -12.227  13.133  63.650  1.00  0.00    -0.553 A  
HETATM   12  C   UNL     1     -11.269  12.116  63.646  1.00  0.00    -0.540 A  
ENDBRANCH   6   7
TORSDOF 1
ENDMDL
MODEL       67
REMARK 921   NORMALIZED FREE ENERGY PREDICTED BY IDOCK:   -3.58 KCAL/MOL
REMARK 922        TOTAL FREE ENERGY PREDICTED BY IDOCK:   -3.88 KCAL/MOL
REMARK 923 INTER-LIGAND FREE ENERGY PREDICTED BY IDOCK:   -3.79 KCAL/MOL
REMARK 924 INTRA-LIGAND FREE ENERGY PREDICTED BY IDOCK:   -0.09 KCAL/MOL
REMARK 927      BINDING AFFINITY PREDICTED BY RF-SCORE:    0.00 PKD
ROOT
HETATM    1  N   UNL     1     -10.685  16.620  64.862  1.00  0.00    -0.717 NA 
HETATM    2  C   UNL     1     -10.388  15.783  66.025  1.00  0.00    -0.340 C  
HETATM    3  H1  UNL     1     -11.562  16.494  64.355  1.00  0.00     0.000 HD 
HETATM    4  H2  UNL     1      -9.913  16.539  64.199  1.00  0.00     0.000 HD 
HETATM    5  C   UNL     1      -9.101  15.969  66.769  1.00  0.00    -0.271 C  
HETATM    6  C   UNL     1     -10.403  16.395  67.410  1.00  0.00    -0.295 C  
ENDROOT
BRANCH   6   7
HETATM    7  C   UNL     1     -10.951  15.611  68.579  1.00  0.00    -0.303 A  
HETATM    8  C   UNL     1     -10.919  16.130  69.885  1.00  0.00    -0.362 A  
HETATM    9  C   UNL     1     -11.426  15.408  70.969  1.00  0.00    -0.407 A  
HETATM   10  C   UNL     1     -11.984  14.149  70.768  1.00  0.00    -0.377 A  
HETATM   11  C   UNL     1     -12.041  13.617  69.483  1.00  0.00    -0.368 A  
HETATM   12  C   UNL     1     -11.536  14.346  68.403  1.00  0.00    -0.351 A  
ENDBRANCH   6   7
TORSDOF 1
ENDMDL
MODEL       68
REMARK 921   NORMALIZED FREE ENERGY PREDICTED BY IDOCK:   -3.56 KCAL/MOL
REMARK 922        TOTAL FREE ENERGY PREDICTED BY IDOCK:   -3.86 KCAL/MOL
REMARK 923 INTER-LIGAND FREE ENERGY PREDICTED BY IDOCK:   -3.77 KCAL/MOL
REMARK 924 INTRA-LIGAND FREE ENERGY PREDICTED BY IDOCK:   -0.09 KCAL/MOL
REMARK 927      BINDING AFFINITY PREDICTED BY RF-SCORE:    0.00 PKD
ROOT
HETATM    1  N   UNL     1     -10.000  10.699  62.554  1.00  0.00    -0.750 NA 
HETATM    2  C   UNL     1     -10.519  10.987  63.892  1.00  0.00    -0.354 C  
HETATM    3  H1  UNL     1     -10.389  11.181  61.743  1.00  0.00     0.000 HD 
HETATM    4  H2  UNL     1     -10.062   9.693  62.394  1.00  0.00     0.000 HD 
HETATM    5  C   UNL     1      -9.949  10.280  65.082  1.00  0.00    -0.395 C  
HETATM    6  C   UNL     1      -9.661  11.751  64.878  1.00  0.00    -0.199 C  
ENDROOT
BRANCH   6   7
HETATM    7  C   UNL     1     -10.290  12.770  65.801  1.00  0.00    -0.297 A  
HETATM    8  C   UNL     1      -9.511  13.516  66.702  1.00  0.00    -0.271 A  
HETATM    9  C   UNL     1     -10.089  14.460  67.556  1.00  0.00    -0.232 A  
HETATM   10  C   UNL     1     -11.462  14.682  67.521  1.00  0.00    -0.378 A  
HETATM   11  C   UNL     1     -12.255  13.966  66.628  1.00  0.00    -0.465 A  
HETATM   12  C   UNL     1     -11.670  13.027  65.774  1.00  0.00    -0.427 A  
ENDBRANCH   6   7
TORSDOF 1
ENDMDL
MODEL       69
REMARK 921   NORMALIZED FREE ENERGY PREDICTED BY IDOCK:   -3.56 KCAL/MOL
REMARK 922        TOTAL FREE ENERGY PREDICTED BY IDOCK:   -3.86 KCAL/MOL
REMARK 923 INTER-LIGAND FREE ENERGY PREDICTED BY IDOCK:   -3.77 KCAL/MOL
REMARK 924 INTRA-LIGAND FREE ENERGY PREDICTED BY IDOCK:   -0.09 KCAL/MOL
REMARK 927      BINDING AFFINITY PREDICTED BY RF-SCORE:    0.00 PKD
ROOT
HETATM    1  N   UNL     1     -12.771  10.364  69.630  1.00  0.00    -0.614 NA 
HETATM    2  C   UNL     1     -11.818  11.296  69.027  1.00  0.00    -0.352 C  
HETATM    3  H1  UNL     1     -13.720  10.674  69.846  1.00  0.00     0.000 HD 
HETATM    4  H2  UNL     1     -12.355   9.980  70.479  1.00  0.00     0.000 HD 
HETATM    5  C   UNL     1     -10.427  10.841  68.710  1.00  0.00    -0.221 C  
HETATM    6  C   UNL     1     -11.400  11.110  67.583  1.00  0.00    -0.356 C  
ENDROOT
BRANCH   6   7
HETATM    7  C   UNL     1     -11.196  12.312  66.691  1.00  0.00    -0.367 A  
HETATM    8  C   UNL     1      -9.979  13.016  66.684  1.00  0.00    -0.250 A  
HETATM    9  C   UNL     1      -9.786  14.128  65.859  1.00  0.00    -0.312 A  
HETATM   10  C   UNL     1     -10.807  14.556  65.016  1.00  0.00    -0.425 A  
HETATM   11  C   UNL     1     -12.018  13.867  64.994  1.00  0.00    -0.403 A  
HETATM   12  C   UNL     1     -12.203  12.754  65.818  1.00  0.00    -0.469 A  
ENDBRANCH   6   7
TORSDOF 1
ENDMDL
MODEL       70
REMARK 921   NORMALIZED FREE ENERGY PREDICTED BY IDOCK:   -3.55 KCAL/MOL
REMARK 922        TOTAL FREE ENERGY PREDICTED BY IDOCK:   -3.85 KCAL/MOL
REMARK 923 INTER-LIGAND FREE ENERGY PREDICTED BY IDOCK:   -3.76 KCAL/MOL
REMARK 924 INTRA-LIGAND FREE ENERGY PREDICTED BY IDOCK:   -0.09 KCAL/MOL
REMARK 927      BINDING AFFINITY PREDICTED BY RF-SCORE:    0.00 PKD
ROOT
HETATM    1  N   UNL     1     -13.508   9.775  70.595  1.00  0.00    -0.592 NA 
HETATM    2  C   UNL     1     -13.358   8.749  71.628  1.00  0.00    -0.359 C  
HETATM    3  H1  UNL     1     -13.014  10.664  70.685  1.00  0.00     0.000 HD 
HETATM    4  H2  UNL     1     -14.502   9.968  70.472  1.00  0.00     0.000 HD 
HETATM    5  C   UNL     1     -14.082   7.445  71.495  1.00  0.00    -0.541 C  
HETATM    6  C   UNL     1     -12.580   7.486  71.322  1.00  0.00    -0.345 C  
ENDROOT
BRANCH   6   7
HETATM    7  C   UNL     1     -11.689   6.870  72.375  1.00  0.00    -0.253 A  
HETATM    8  C   UNL     1     -11.661   5.480  72.583  1.00  0.00    -0.293 A  
HETATM    9  C   UNL     1     -10.837   4.906  73.556  1.00  0.00    -0.370 A  
HETATM   10  C   UNL     1     -10.017   5.713  74.338  1.00  0.00    -0.262 A  
HETATM   11  C   UNL     1     -10.015   7.091  74.143  1.00  0.00    -0.305 A  
HETATM   12  C   UNL     1     -10.838   7.659  73.166  1.00  0.00    -0.440 A  
ENDBRANCH   6   7
TORSDOF 1
ENDMDL
MODEL       71
REMARK 921   NORMALIZED FREE ENERGY PREDICTED BY IDOCK:   -3.54 KCAL/MOL
REMARK 922        TOTAL FREE ENERGY PREDICTED BY IDOCK:   -3.84 KCAL/MOL
REMARK 923 INTER-LIGAND FREE ENERGY PREDICTED BY IDOCK:   -3.75 KCAL/MOL
REMARK 924 INTRA-LIGAND FREE ENERGY PREDICTED BY IDOCK:   -0.09 KCAL/MOL
REMARK 927      BINDING AFFINITY PREDICTED BY RF-SCORE:    0.00 PKD
ROOT
HETATM    1  N   UNL     1      -9.015   5.449  70.375  1.00  0.00    -0.131 NA 
HETATM    2  C   UNL     1      -9.973   6.507  70.053  1.00  0.00    -0.169 C  
HETATM    3  H1  UNL     1      -8.209   5.656  70.967  1.00  0.00     0.000 HD 
HETATM    4  H2  UNL     1      -8.679   5.040  69.503  1.00  0.00     0.000 HD 
HETATM    5  C   UNL     1     -11.155   6.204  69.184  1.00  0.00    -0.448 C  
HETATM    6  C   UNL     1     -11.361   6.469  70.659  1.00  0.00    -0.409 C  
ENDROOT
BRANCH   6   7
HETATM    7  C   UNL     1     -12.030   7.749  71.101  1.00  0.00    -0.312 A  
HETATM    8  C   UNL     1     -13.268   7.733  71.767  1.00  0.00    -0.354 A  
HETATM    9  C   UNL     1     -13.890   8.915  72.179  1.00  0.00    -0.531 A  
HETATM   10  C   UNL     1     -13.282  10.142  71.937  1.00  0.00    -0.557 A  
HETATM   11  C   UNL     1     -12.049  10.187  71.292  1.00  0.00    -0.489 A  
HETATM   12  C   UNL     1     -11.430   9.001  70.887  1.00  0.00    -0.347 A  
ENDBRANCH   6   7
TORSDOF 1
ENDMDL
MODEL       72
REMARK 921   NORMALIZED FREE ENERGY PREDICTED BY IDOCK:   -3.53 KCAL/MOL
REMARK 922        TOTAL FREE ENERGY PREDICTED BY IDOCK:   -3.83 KCAL/MOL
REMARK 923 INTER-LIGAND FREE ENERGY PREDICTED BY IDOCK:   -3.74 KCAL/MOL
REMARK 924 INTRA-LIGAND FREE ENERGY PREDICTED BY IDOCK:   -0.09 KCAL/MOL
REMARK 927      BINDING AFFINITY PREDICTED BY RF-SCORE:    0.00 PKD
ROOT
HETATM    1  N   UNL     1     -10.455  20.196  69.841  1.00  0.00    -0.479 NA 
HETATM    2  C   UNL     1     -10.002  19.431  68.679  1.00  0.00    -0.444 C  
HETATM    3  H1  UNL     1      -9.928  20.155  70.714  1.00  0.00     0.000 HD 
HETATM    4  H2  UNL     1     -11.425  19.944  70.036  1.00  0.00     0.000 HD 
HETATM    5  C   UNL     1     -10.775  19.491  67.398  1.00  0.00    -0.589 C  
HETATM    6  C   UNL     1      -9.420  20.158  67.484  1.00  0.00    -0.523 C  
ENDROOT
BRANCH   6   7
HETATM    7  C   UNL     1      -8.249  19.569  66.734  1.00  0.00    -0.318 A  
HETATM    8  C   UNL     1      -7.391  20.378  65.970  1.00  0.00    -0.201 A  
HETATM    9  C   UNL     1      -6.305  19.837  65.275  1.00  0.00    -0.296 A  
HETATM   10  C   UNL     1      -6.050  18.471  65.337  1.00  0.00    -0.301 A  
HETATM   11  C   UNL     1      -6.876  17.648  66.099  1.00  0.00    -0.328 A  
HETATM   12  C   UNL     1      -7.957  18.196  66.794  1.00  0.00    -0.262 A  
ENDBRANCH   6   7
TORSDOF 1
ENDMDL
MODEL       73
REMARK 921   NORMALIZED FREE ENERGY PREDICTED BY IDOCK:   -3.53 KCAL/MOL
REMARK 922        TOTAL FREE ENERGY PREDICTED BY IDOCK:   -3.83 KCAL/MOL
REMARK 923 INTER-LIGAND FREE ENERGY PREDICTED BY IDOCK:   -3.74 KCAL/MOL
REMARK 924 INTRA-LIGAND FREE ENERGY PREDICTED BY IDOCK:   -0.09 KCAL/MOL
REMARK 927      BINDING AFFINITY PREDICTED BY RF-SCORE:    0.00 PKD
ROOT
HETATM    1  N   UNL     1     -12.387  10.740  68.753  1.00  0.00    -0.792 NA 
HETATM    2  C   UNL     1     -11.339  11.201  67.843  1.00  0.00    -0.309 C  
HETATM    3  H1  UNL     1     -13.363  10.971  68.563  1.00  0.00     0.000 HD 
HETATM    4  H2  UNL     1     -12.158  11.056  69.696  1.00  0.00     0.000 HD 
HETATM    5  C   UNL     1      -9.907  10.863  68.121  1.00  0.00    -0.187 C  
HETATM    6  C   UNL     1     -10.619  10.200  66.963  1.00  0.00    -0.290 C  
ENDROOT
BRANCH   6   7
HETATM    7  C   UNL     1     -10.243  10.566  65.547  1.00  0.00    -0.325 A  
HETATM    8  C   UNL     1      -9.297   9.817  64.826  1.00  0.00    -0.327 A  
HETATM    9  C   UNL     1      -8.947  10.153  63.515  1.00  0.00    -0.265 A  
HETATM   10  C   UNL     1      -9.544  11.244  62.893  1.00  0.00    -0.377 A  
HETATM   11  C   UNL     1     -10.495  11.995  63.579  1.00  0.00    -0.505 A  
HETATM   12  C   UNL     1     -10.843  11.652  64.888  1.00  0.00    -0.359 A  
ENDBRANCH   6   7
TORSDOF 1
ENDMDL
MODEL       74
REMARK 921   NORMALIZED FREE ENERGY PREDICTED BY IDOCK:   -3.53 KCAL/MOL
REMARK 922        TOTAL FREE ENERGY PREDICTED BY IDOCK:   -3.83 KCAL/MOL
REMARK 923 INTER-LIGAND FREE ENERGY PREDICTED BY IDOCK:   -3.73 KCAL/MOL
REMARK 924 INTRA-LIGAND FREE ENERGY PREDICTED BY IDOCK:   -0.09 KCAL/MOL
REMARK 927      BINDING AFFINITY PREDICTED BY RF-SCORE:    0.00 PKD
ROOT
HETATM    1  N   UNL     1      -8.008   9.598  70.736  1.00  0.00    -0.342 NA 
HETATM    2  C   UNL     1      -9.404   9.393  70.348  1.00  0.00    -0.268 C  
HETATM    3  H1  UNL     1      -7.764  10.356  71.374  1.00  0.00     0.000 HD 
HETATM    4  H2  UNL     1      -7.448   9.694  69.889  1.00  0.00     0.000 HD 
HETATM    5  C   UNL     1      -9.762   8.280  69.412  1.00  0.00    -0.177 C  
HETATM    6  C   UNL     1     -10.156   8.186  70.870  1.00  0.00    -0.215 C  
ENDROOT
BRANCH   6   7
HETATM    7  C   UNL     1     -11.610   8.309  71.260  1.00  0.00    -0.318 A  
HETATM    8  C   UNL     1     -12.162   9.545  71.638  1.00  0.00    -0.477 A  
HETATM    9  C   UNL     1     -13.507   9.663  71.999  1.00  0.00    -0.514 A  
HETATM   10  C   UNL     1     -14.333   8.543  71.983  1.00  0.00    -0.537 A  
HETATM   11  C   UNL     1     -13.815   7.309  71.600  1.00  0.00    -0.461 A  
HETATM   12  C   UNL     1     -12.470   7.199  71.236  1.00  0.00    -0.425 A  
ENDBRANCH   6   7
TORSDOF 1
ENDMDL
MODEL       75
REMARK 921   NORMALIZED FREE ENERGY PREDICTED BY IDOCK:   -3.51 KCAL/MOL
REMARK 922        TOTAL FREE ENERGY PREDICTED BY IDOCK:   -3.80 KCAL/MOL
REMARK 923 INTER-LIGAND FREE ENERGY PREDICTED BY IDOCK:   -3.72 KCAL/MOL
REMARK 924 INTRA-LIGAND FREE ENERGY PREDICTED BY IDOCK:   -0.09 KCAL/MOL
REMARK 927      BINDING AFFINITY PREDICTED BY RF-SCORE:    0.00 PKD
ROOT
HETATM    1  N   UNL     1     -12.068   7.897  72.772  1.00  0.00    -0.614 NA 
HETATM    2  C   UNL     1     -12.358   8.780  71.641  1.00  0.00    -0.337 C  
HETATM    3  H1  UNL     1     -11.767   6.937  72.603  1.00  0.00     0.000 HD 
HETATM    4  H2  UNL     1     -12.884   7.878  73.385  1.00  0.00     0.000 HD 
HETATM    5  C   UNL     1     -12.800  10.189  71.888  1.00  0.00    -0.526 C  
HETATM    6  C   UNL     1     -11.420   9.926  71.327  1.00  0.00    -0.435 C  
ENDROOT
BRANCH   6   7
HETATM    7  C   UNL     1     -11.117  10.287  69.891  1.00  0.00    -0.362 A  
HETATM    8  C   UNL     1     -10.067   9.669  69.190  1.00  0.00    -0.196 A  
HETATM    9  C   UNL     1      -9.784   9.999  67.862  1.00  0.00    -0.168 A  
HETATM   10  C   UNL     1     -10.553  10.953  67.203  1.00  0.00    -0.302 A  
HETATM   11  C   UNL     1     -11.608  11.571  67.870  1.00  0.00    -0.352 A  
HETATM   12  C   UNL     1     -11.888  11.233  69.196  1.00  0.00    -0.423 A  
ENDBRANCH   6   7
TORSDOF 1
ENDMDL
MODEL       76
REMARK 921   NORMALIZED FREE ENERGY PREDICTED BY IDOCK:   -3.50 KCAL/MOL
REMARK 922        TOTAL FREE ENERGY PREDICTED BY IDOCK:   -3.80 KCAL/MOL
REMARK 923 INTER-LIGAND FREE ENERGY PREDICTED BY IDOCK:   -3.71 KCAL/MOL
REMARK 924 INTRA-LIGAND FREE ENERGY PREDICTED BY IDOCK:   -0.09 KCAL/MOL
REMARK 927      BINDING AFFINITY PREDICTED BY RF-SCORE:    0.00 PKD
ROOT
HETATM    1  N   UNL     1     -10.467  18.217  68.932  1.00  0.00    -0.408 NA 
HETATM    2  C   UNL     1      -9.766  18.663  67.727  1.00  0.00    -0.314 C  
HETATM    3  H1  UNL     1     -10.060  17.486  69.516  1.00  0.00     0.000 HD 
HETATM    4  H2  UNL     1     -11.412  17.933  68.669  1.00  0.00     0.000 HD 
HETATM    5  C   UNL     1     -10.363  19.736  66.870  1.00  0.00    -0.601 C  
HETATM    6  C   UNL     1      -9.133  20.039  67.696  1.00  0.00    -0.441 C  
ENDROOT
BRANCH   6   7
HETATM    7  C   UNL     1      -7.804  20.247  67.009  1.00  0.00    -0.368 A  
HETATM    8  C   UNL     1      -6.807  21.056  67.579  1.00  0.00    -0.409 A  
HETATM    9  C   UNL     1      -5.576  21.251  66.947  1.00  0.00    -0.348 A  
HETATM   10  C   UNL     1      -5.313  20.632  65.729  1.00  0.00    -0.222 A  
HETATM   11  C   UNL     1      -6.279  19.814  65.148  1.00  0.00    -0.295 A  
HETATM   12  C   UNL     1      -7.506  19.620  65.788  1.00  0.00    -0.304 A  
ENDBRANCH   6   7
TORSDOF 1
ENDMDL
MODEL       77
REMARK 921   NORMALIZED FREE ENERGY PREDICTED BY IDOCK:   -3.49 KCAL/MOL
REMARK 922        TOTAL FREE ENERGY PREDICTED BY IDOCK:   -3.79 KCAL/MOL
REMARK 923 INTER-LIGAND FREE ENERGY PREDICTED BY IDOCK:   -3.70 KCAL/MOL
REMARK 924 INTRA-LIGAND FREE ENERGY PREDICTED BY IDOCK:   -0.09 KCAL/MOL
REMARK 927      BINDING AFFINITY PREDICTED BY RF-SCORE:    0.00 PKD
ROOT
HETATM    1  N   UNL     1      -8.955   5.546  71.702  1.00  0.00    -0.136 NA 
HETATM    2  C   UNL     1     -10.253   6.190  71.498  1.00  0.00    -0.203 C  
HETATM    3  H1  UNL     1      -8.173   5.771  71.086  1.00  0.00     0.000 HD 
HETATM    4  H2  UNL     1      -9.092   4.534  71.694  1.00  0.00     0.000 HD 
HETATM    5  C   UNL     1     -11.401   5.859  72.401  1.00  0.00    -0.358 C  
HETATM    6  C   UNL     1     -10.743   7.218  72.497  1.00  0.00    -0.301 C  
ENDROOT
BRANCH   6   7
HETATM    7  C   UNL     1     -11.487   8.443  72.021  1.00  0.00    -0.418 A  
HETATM    8  C   UNL     1     -12.818   8.684  72.406  1.00  0.00    -0.413 A  
HETATM    9  C   UNL     1     -13.510   9.817  71.969  1.00  0.00    -0.498 A  
HETATM   10  C   UNL     1     -12.880  10.740  71.140  1.00  0.00    -0.513 A  
HETATM   11  C   UNL     1     -11.558  10.534  70.755  1.00  0.00    -0.432 A  
HETATM   12  C   UNL     1     -10.871   9.401  71.199  1.00  0.00    -0.427 A  
ENDBRANCH   6   7
TORSDOF 1
ENDMDL
MODEL       78
REMARK 921   NORMALIZED FREE ENERGY PREDICTED BY IDOCK:   -3.49 KCAL/MOL
REMARK 922        TOTAL FREE ENERGY PREDICTED BY IDOCK:   -3.78 KCAL/MOL
REMARK 923 INTER-LIGAND FREE ENERGY PREDICTED BY IDOCK:   -3.70 KCAL/MOL
REMARK 924 INTRA-LIGAND FREE ENERGY PREDICTED BY IDOCK:   -0.09 KCAL/MOL
REMARK 927      BINDING AFFINITY PREDICTED BY RF-SCORE:    0.00 PKD
ROOT
HETATM    1  N   UNL     1      -7.631  14.799  69.804  1.00  0.00    -0.390 NA 
HETATM    2  C   UNL     1      -8.215  15.482  68.649  1.00  0.00    -0.162 C  
HETATM    3  H1  UNL     1      -6.835  15.214  70.290  1.00  0.00     0.000 HD 
HETATM    4  H2  UNL     1      -7.381  13.850  69.526  1.00  0.00     0.000 HD 
HETATM    5  C   UNL     1      -9.383  14.875  67.936  1.00  0.00    -0.191 C  
HETATM    6  C   UNL     1      -9.584  16.119  68.772  1.00  0.00    -0.235 C  
ENDROOT
BRANCH   6   7
HETATM    7  C   UNL     1      -9.871  17.437  68.091  1.00  0.00    -0.301 A  
HETATM    8  C   UNL     1      -9.831  18.649  68.803  1.00  0.00    -0.422 A  
HETATM    9  C   UNL     1     -10.095  19.871  68.176  1.00  0.00    -0.569 A  
HETATM   10  C   UNL     1     -10.399  19.906  66.819  1.00  0.00    -0.599 A  
HETATM   11  C   UNL     1     -10.432  18.721  66.088  1.00  0.00    -0.499 A  
HETATM   12  C   UNL     1     -10.163  17.504  66.719  1.00  0.00    -0.327 A  
ENDBRANCH   6   7
TORSDOF 1
ENDMDL
MODEL       79
REMARK 921   NORMALIZED FREE ENERGY PREDICTED BY IDOCK:   -3.48 KCAL/MOL
REMARK 922        TOTAL FREE ENERGY PREDICTED BY IDOCK:   -3.78 KCAL/MOL
REMARK 923 INTER-LIGAND FREE ENERGY PREDICTED BY IDOCK:   -3.69 KCAL/MOL
REMARK 924 INTRA-LIGAND FREE ENERGY PREDICTED BY IDOCK:   -0.09 KCAL/MOL
REMARK 927      BINDING AFFINITY PREDICTED BY RF-SCORE:    0.00 PKD
ROOT
HETATM    1  N   UNL     1     -10.162  19.492  68.479  1.00  0.00    -0.464 NA 
HETATM    2  C   UNL     1     -10.823  18.666  67.468  1.00  0.00    -0.317 C  
HETATM    3  H1  UNL     1     -10.362  19.342  69.468  1.00  0.00     0.000 HD 
HETATM    4  H2  UNL     1     -10.334  20.473  68.258  1.00  0.00     0.000 HD 
HETATM    5  C   UNL     1     -10.528  18.885  66.016  1.00  0.00    -0.507 C  
HETATM    6  C   UNL     1     -10.020  17.636  66.701  1.00  0.00    -0.328 C  
ENDROOT
BRANCH   6   7
HETATM    7  C   UNL     1     -10.631  16.297  66.361  1.00  0.00    -0.253 A  
HETATM    8  C   UNL     1     -11.298  15.532  67.333  1.00  0.00    -0.203 A  
HETATM    9  C   UNL     1     -11.866  14.293  67.023  1.00  0.00    -0.455 A  
HETATM   10  C   UNL     1     -11.783  13.795  65.726  1.00  0.00    -0.365 A  
HETATM   11  C   UNL     1     -11.139  14.539  64.741  1.00  0.00    -0.400 A  
HETATM   12  C   UNL     1     -10.577  15.778  65.057  1.00  0.00    -0.397 A  
ENDBRANCH   6   7
TORSDOF 1
ENDMDL
MODEL       80
REMARK 921   NORMALIZED FREE ENERGY PREDICTED BY IDOCK:   -3.48 KCAL/MOL
REMARK 922        TOTAL FREE ENERGY PREDICTED BY IDOCK:   -3.77 KCAL/MOL
REMARK 923 INTER-LIGAND FREE ENERGY PREDICTED BY IDOCK:   -3.69 KCAL/MOL
REMARK 924 INTRA-LIGAND FREE ENERGY PREDICTED BY IDOCK:   -0.09 KCAL/MOL
REMARK 927      BINDING AFFINITY PREDICTED BY RF-SCORE:    0.00 PKD
ROOT
HETATM    1  N   UNL     1      -9.995   5.550  68.754  1.00  0.00    -0.159 NA 
HETATM    2  C   UNL     1     -10.954   6.166  69.670  1.00  0.00    -0.389 C  
HETATM    3  H1  UNL     1     -10.040   5.756  67.755  1.00  0.00     0.000 HD 
HETATM    4  H2  UNL     1     -10.035   4.537  68.877  1.00  0.00     0.000 HD 
HETATM    5  C   UNL     1     -10.887   5.864  71.135  1.00  0.00    -0.334 C  
HETATM    6  C   UNL     1     -10.485   7.234  70.637  1.00  0.00    -0.226 C  
ENDROOT
BRANCH   6   7
HETATM    7  C   UNL     1     -11.364   8.425  70.937  1.00  0.00    -0.298 A  
HETATM    8  C   UNL     1     -11.218   9.634  70.235  1.00  0.00    -0.324 A  
HETATM    9  C   UNL     1     -12.031  10.739  70.509  1.00  0.00    -0.456 A  
HETATM   10  C   UNL     1     -13.014  10.653  71.489  1.00  0.00    -0.566 A  
HETATM   11  C   UNL     1     -13.189   9.463  72.190  1.00  0.00    -0.541 A  
HETATM   12  C   UNL     1     -12.376   8.362  71.909  1.00  0.00    -0.395 A  
ENDBRANCH   6   7
TORSDOF 1
ENDMDL
MODEL       81
REMARK 921   NORMALIZED FREE ENERGY PREDICTED BY IDOCK:   -3.47 KCAL/MOL
REMARK 922        TOTAL FREE ENERGY PREDICTED BY IDOCK:   -3.77 KCAL/MOL
REMARK 923 INTER-LIGAND FREE ENERGY PREDICTED BY IDOCK:   -3.68 KCAL/MOL
REMARK 924 INTRA-LIGAND FREE ENERGY PREDICTED BY IDOCK:   -0.09 KCAL/MOL
REMARK 927      BINDING AFFINITY PREDICTED BY RF-SCORE:    0.00 PKD
ROOT
HETATM    1  N   UNL     1      -8.228  21.068  67.007  1.00  0.00    -0.554 NA 
HETATM    2  C   UNL     1      -8.311  19.636  67.294  1.00  0.00    -0.302 C  
HETATM    3  H1  UNL     1      -8.273  21.396  66.041  1.00  0.00     0.000 HD 
HETATM    4  H2  UNL     1      -7.376  21.434  67.434  1.00  0.00     0.000 HD 
HETATM    5  C   UNL     1      -8.245  19.154  68.710  1.00  0.00    -0.382 C  
HETATM    6  C   UNL     1      -9.554  19.077  67.956  1.00  0.00    -0.383 C  
ENDROOT
BRANCH   6   7
HETATM    7  C   UNL     1     -10.096  17.731  67.537  1.00  0.00    -0.340 A  
HETATM    8  C   UNL     1     -10.754  16.892  68.453  1.00  0.00    -0.368 A  
HETATM    9  C   UNL     1     -11.258  15.646  68.069  1.00  0.00    -0.339 A  
HETATM   10  C   UNL     1     -11.120  15.215  66.754  1.00  0.00    -0.307 A  
HETATM   11  C   UNL     1     -10.485  16.032  65.822  1.00  0.00    -0.391 A  
HETATM   12  C   UNL     1      -9.987  17.278  66.212  1.00  0.00    -0.311 A  
ENDBRANCH   6   7
TORSDOF 1
ENDMDL
MODEL       82
REMARK 921   NORMALIZED FREE ENERGY PREDICTED BY IDOCK:   -3.44 KCAL/MOL
REMARK 922        TOTAL FREE ENERGY PREDICTED BY IDOCK:   -3.73 KCAL/MOL
REMARK 923 INTER-LIGAND FREE ENERGY PREDICTED BY IDOCK:   -3.64 KCAL/MOL
REMARK 924 INTRA-LIGAND FREE ENERGY PREDICTED BY IDOCK:   -0.09 KCAL/MOL
REMARK 927      BINDING AFFINITY PREDICTED BY RF-SCORE:    0.00 PKD
ROOT
HETATM    1  N   UNL     1     -10.229  15.118  70.187  1.00  0.00    -0.509 NA 
HETATM    2  C   UNL     1     -10.081  14.809  68.765  1.00  0.00    -0.237 C  
HETATM    3  H1  UNL     1     -11.002  15.706  70.502  1.00  0.00     0.000 HD 
HETATM    4  H2  UNL     1      -9.355  15.524  70.523  1.00  0.00     0.000 HD 
HETATM    5  C   UNL     1      -8.948  13.947  68.302  1.00  0.00    -0.187 C  
HETATM    6  C   UNL     1     -10.360  13.405  68.271  1.00  0.00    -0.251 C  
ENDROOT
BRANCH   6   7
HETATM    7  C   UNL     1     -11.048  13.190  66.943  1.00  0.00    -0.308 A  
HETATM    8  C   UNL     1     -10.633  12.176  66.063  1.00  0.00    -0.292 A  
HETATM    9  C   UNL     1     -11.268  11.973  64.834  1.00  0.00    -0.374 A  
HETATM   10  C   UNL     1     -12.339  12.780  64.462  1.00  0.00    -0.515 A  
HETATM   11  C   UNL     1     -12.778  13.784  65.322  1.00  0.00    -0.481 A  
HETATM   12  C   UNL     1     -12.142  13.978  66.550  1.00  0.00    -0.488 A  
ENDBRANCH   6   7
TORSDOF 1
ENDMDL
MODEL       83
REMARK 921   NORMALIZED FREE ENERGY PREDICTED BY IDOCK:   -3.44 KCAL/MOL
REMARK 922        TOTAL FREE ENERGY PREDICTED BY IDOCK:   -3.73 KCAL/MOL
REMARK 923 INTER-LIGAND FREE ENERGY PREDICTED BY IDOCK:   -3.64 KCAL/MOL
REMARK 924 INTRA-LIGAND FREE ENERGY PREDICTED BY IDOCK:   -0.09 KCAL/MOL
REMARK 927      BINDING AFFINITY PREDICTED BY RF-SCORE:    0.00 PKD
ROOT
HETATM    1  N   UNL     1     -11.270  14.839  64.394  1.00  0.00    -0.640 NA 
HETATM    2  C   UNL     1     -10.428  13.821  65.025  1.00  0.00    -0.402 C  
HETATM    3  H1  UNL     1     -11.634  14.685  63.453  1.00  0.00     0.000 HD 
HETATM    4  H2  UNL     1     -10.768  15.727  64.407  1.00  0.00     0.000 HD 
HETATM    5  C   UNL     1      -9.895  14.046  66.406  1.00  0.00    -0.306 C  
HETATM    6  C   UNL     1     -10.975  13.010  66.182  1.00  0.00    -0.300 C  
ENDROOT
BRANCH   6   7
HETATM    7  C   UNL     1     -10.639  11.543  66.305  1.00  0.00    -0.309 A  
HETATM    8  C   UNL     1     -11.023  10.799  67.434  1.00  0.00    -0.361 A  
HETATM    9  C   UNL     1     -10.716   9.440  67.551  1.00  0.00    -0.290 A  
HETATM   10  C   UNL     1     -10.020   8.794  66.534  1.00  0.00    -0.360 A  
HETATM   11  C   UNL     1      -9.640   9.504  65.398  1.00  0.00    -0.342 A  
HETATM   12  C   UNL     1      -9.954  10.861  65.286  1.00  0.00    -0.330 A  
ENDBRANCH   6   7
TORSDOF 1
ENDMDL
MODEL       84
REMARK 921   NORMALIZED FREE ENERGY PREDICTED BY IDOCK:   -3.44 KCAL/MOL
REMARK 922        TOTAL FREE ENERGY PREDICTED BY IDOCK:   -3.73 KCAL/MOL
REMARK 923 INTER-LIGAND FREE ENERGY PREDICTED BY IDOCK:   -3.64 KCAL/MOL
REMARK 924 INTRA-LIGAND FREE ENERGY PREDICTED BY IDOCK:   -0.09 KCAL/MOL
REMARK 927      BINDING AFFINITY PREDICTED BY RF-SCORE:    0.00 PKD
ROOT
HETATM    1  N   UNL     1     -10.513  20.318  69.735  1.00  0.00    -0.499 NA 
HETATM    2  C   UNL     1     -10.006  19.444  68.676  1.00  0.00    -0.444 C  
HETATM    3  H1  UNL     1     -10.050  20.336  70.644  1.00  0.00     0.000 HD 
HETATM    4  H2  UNL     1     -11.502  20.111  69.879  1.00  0.00     0.000 HD 
HETATM    5  C   UNL     1     -10.685  19.418  67.342  1.00  0.00    -0.594 C  
HETATM    6  C   UNL     1      -9.318  20.051  67.471  1.00  0.00    -0.485 C  
ENDROOT
BRANCH   6   7
HETATM    7  C   UNL     1      -8.117  19.368  66.859  1.00  0.00    -0.298 A  
HETATM    8  C   UNL     1      -7.601  18.178  67.400  1.00  0.00    -0.220 A  
HETATM    9  C   UNL     1      -6.491  17.543  66.836  1.00  0.00    -0.215 A  
HETATM   10  C   UNL     1      -5.877  18.083  65.711  1.00  0.00    -0.238 A  
HETATM   11  C   UNL     1      -6.376  19.254  65.146  1.00  0.00    -0.313 A  
HETATM   12  C   UNL     1      -7.489  19.882  65.713  1.00  0.00    -0.330 A  
ENDBRANCH   6   7
TORSDOF 1
ENDMDL
MODEL       85
REMARK 921   NORMALIZED FREE ENERGY PREDICTED BY IDOCK:   -3.43 KCAL/MOL
REMARK 922        TOTAL FREE ENERGY PREDICTED BY IDOCK:   -3.72 KCAL/MOL
REMARK 923 INTER-LIGAND FREE ENERGY PREDICTED BY IDOCK:   -3.63 KCAL/MOL
REMARK 924 INTRA-LIGAND FREE ENERGY PREDICTED BY IDOCK:   -0.09 KCAL/MOL
REMARK 927      BINDING AFFINITY PREDICTED BY RF-SCORE:    0.00 PKD
ROOT
HETATM    1  N   UNL     1      -7.100  10.760  62.372  1.00  0.00    -0.304 NA 
HETATM    2  C   UNL     1      -8.551  10.792  62.555  1.00  0.00    -0.267 C  
HETATM    3  H1  UNL     1      -6.605  11.605  62.084  1.00  0.00     0.000 HD 
HETATM    4  H2  UNL     1      -6.872  10.012  61.716  1.00  0.00     0.000 HD 
HETATM    5  C   UNL     1      -9.277   9.552  62.977  1.00  0.00    -0.047 C  
HETATM    6  C   UNL     1      -9.132  10.701  63.950  1.00  0.00    -0.244 C  
ENDROOT
BRANCH   6   7
HETATM    7  C   UNL     1     -10.344  11.523  64.323  1.00  0.00    -0.376 A  
HETATM    8  C   UNL     1     -10.710  11.715  65.666  1.00  0.00    -0.330 A  
HETATM    9  C   UNL     1     -11.830  12.476  66.014  1.00  0.00    -0.478 A  
HETATM   10  C   UNL     1     -12.606  13.067  65.022  1.00  0.00    -0.515 A  
HETATM   11  C   UNL     1     -12.258  12.903  63.684  1.00  0.00    -0.581 A  
HETATM   12  C   UNL     1     -11.135  12.145  63.343  1.00  0.00    -0.495 A  
ENDBRANCH   6   7
TORSDOF 1
ENDMDL
MODEL       86
REMARK 921   NORMALIZED FREE ENERGY PREDICTED BY IDOCK:   -3.43 KCAL/MOL
REMARK 922        TOTAL FREE ENERGY PREDICTED BY IDOCK:   -3.72 KCAL/MOL
REMARK 923 INTER-LIGAND FREE ENERGY PREDICTED BY IDOCK:   -3.63 KCAL/MOL
REMARK 924 INTRA-LIGAND FREE ENERGY PREDICTED BY IDOCK:   -0.09 KCAL/MOL
REMARK 927      BINDING AFFINITY PREDICTED BY RF-SCORE:    0.00 PKD
ROOT
HETATM    1  N   UNL     1     -11.342   4.552  65.206  1.00  0.00    -1.078 NA 
HETATM    2  C   UNL     1     -10.618   5.031  66.384  1.00  0.00    -0.261 C  
HETATM    3  H1  UNL     1     -12.167   3.963  65.321  1.00  0.00     0.000 HD 
HETATM    4  H2  UNL     1     -10.682   4.069  64.595  1.00  0.00     0.000 HD 
HETATM    5  C   UNL     1      -9.407   5.895  66.216  1.00  0.00    -0.168 C  
HETATM    6  C   UNL     1     -10.685   6.497  66.758  1.00  0.00    -0.344 C  
ENDROOT
BRANCH   6   7
HETATM    7  C   UNL     1     -10.759   6.907  68.210  1.00  0.00    -0.265 A  
HETATM    8  C   UNL     1     -10.519   8.234  68.606  1.00  0.00    -0.199 A  
HETATM    9  C   UNL     1     -10.588   8.618  69.949  1.00  0.00    -0.227 A  
HETATM   10  C   UNL     1     -10.907   7.679  70.925  1.00  0.00    -0.250 A  
HETATM   11  C   UNL     1     -11.163   6.361  70.558  1.00  0.00    -0.414 A  
HETATM   12  C   UNL     1     -11.096   5.985  69.214  1.00  0.00    -0.424 A  
ENDBRANCH   6   7
TORSDOF 1
ENDMDL
MODEL       87
REMARK 921   NORMALIZED FREE ENERGY PREDICTED BY IDOCK:   -3.43 KCAL/MOL
REMARK 922        TOTAL FREE ENERGY PREDICTED BY IDOCK:   -3.72 KCAL/MOL
REMARK 923 INTER-LIGAND FREE ENERGY PREDICTED BY IDOCK:   -3.63 KCAL/MOL
REMARK 924 INTRA-LIGAND FREE ENERGY PREDICTED BY IDOCK:   -0.09 KCAL/MOL
REMARK 927      BINDING AFFINITY PREDICTED BY RF-SCORE:    0.00 PKD
ROOT
HETATM    1  N   UNL     1      -8.470  19.706  68.549  1.00  0.00    -0.330 NA 
HETATM    2  C   UNL     1      -9.727  18.963  68.645  1.00  0.00    -0.400 C  
HETATM    3  H1  UNL     1      -7.781  19.639  69.299  1.00  0.00     0.000 HD 
HETATM    4  H2  UNL     1      -8.688  20.691  68.396  1.00  0.00     0.000 HD 
HETATM    5  C   UNL     1     -10.738  19.060  67.545  1.00  0.00    -0.532 C  
HETATM    6  C   UNL     1      -9.965  17.774  67.737  1.00  0.00    -0.322 C  
ENDROOT
BRANCH   6   7
HETATM    7  C   UNL     1     -10.674  16.548  68.262  1.00  0.00    -0.345 A  
HETATM    8  C   UNL     1     -10.919  15.437  67.436  1.00  0.00    -0.312 A  
HETATM    9  C   UNL     1     -11.573  14.300  67.918  1.00  0.00    -0.367 A  
HETATM   10  C   UNL     1     -11.992  14.248  69.244  1.00  0.00    -0.375 A  
HETATM   11  C   UNL     1     -11.750  15.329  70.088  1.00  0.00    -0.342 A  
HETATM   12  C   UNL     1     -11.091  16.461  69.600  1.00  0.00    -0.306 A  
ENDBRANCH   6   7
TORSDOF 1
ENDMDL
MODEL       88
REMARK 921   NORMALIZED FREE ENERGY PREDICTED BY IDOCK:   -3.36 KCAL/MOL
REMARK 922        TOTAL FREE ENERGY PREDICTED BY IDOCK:   -3.65 KCAL/MOL
REMARK 923 INTER-LIGAND FREE ENERGY PREDICTED BY IDOCK:   -3.56 KCAL/MOL
REMARK 924 INTRA-LIGAND FREE ENERGY PREDICTED BY IDOCK:   -0.09 KCAL/MOL
REMARK 927      BINDING AFFINITY PREDICTED BY RF-SCORE:    0.00 PKD
ROOT
HETATM    1  N   UNL     1      -8.326   5.891  72.082  1.00  0.00    -0.118 NA 
HETATM    2  C   UNL     1      -9.401   6.756  72.569  1.00  0.00    -0.139 C  
HETATM    3  H1  UNL     1      -8.535   5.147  71.415  1.00  0.00     0.000 HD 
HETATM    4  H2  UNL     1      -7.851   5.481  72.886  1.00  0.00     0.000 HD 
HETATM    5  C   UNL     1      -9.095   7.848  73.547  1.00  0.00    -0.346 C  
HETATM    6  C   UNL     1      -9.459   8.202  72.122  1.00  0.00    -0.291 C  
ENDROOT
BRANCH   6   7
HETATM    7  C   UNL     1     -10.790   8.854  71.831  1.00  0.00    -0.433 A  
HETATM    8  C   UNL     1     -10.898   9.913  70.914  1.00  0.00    -0.357 A  
HETATM    9  C   UNL     1     -12.129  10.518  70.642  1.00  0.00    -0.452 A  
HETATM   10  C   UNL     1     -13.281  10.070  71.279  1.00  0.00    -0.469 A  
HETATM   11  C   UNL     1     -13.204   9.013  72.182  1.00  0.00    -0.504 A  
HETATM   12  C   UNL     1     -11.972   8.410  72.446  1.00  0.00    -0.451 A  
ENDBRANCH   6   7
TORSDOF 1
ENDMDL
MODEL       89
REMARK 921   NORMALIZED FREE ENERGY PREDICTED BY IDOCK:   -3.35 KCAL/MOL
REMARK 922        TOTAL FREE ENERGY PREDICTED BY IDOCK:   -3.63 KCAL/MOL
REMARK 923 INTER-LIGAND FREE ENERGY PREDICTED BY IDOCK:   -3.55 KCAL/MOL
REMARK 924 INTRA-LIGAND FREE ENERGY PREDICTED BY IDOCK:   -0.09 KCAL/MOL
REMARK 927      BINDING AFFINITY PREDICTED BY RF-SCORE:    0.00 PKD
ROOT
HETATM    1  N   UNL     1     -10.918   5.756  66.350  1.00  0.00    -0.740 NA 
HETATM    2  C   UNL     1     -10.906   7.049  67.035  1.00  0.00    -0.343 C  
HETATM    3  H1  UNL     1     -11.716   5.495  65.770  1.00  0.00     0.000 HD 
HETATM    4  H2  UNL     1     -10.768   5.022  67.043  1.00  0.00     0.000 HD 
HETATM    5  C   UNL     1      -9.735   7.432  67.886  1.00  0.00    -0.166 C  
HETATM    6  C   UNL     1      -9.960   8.135  66.566  1.00  0.00    -0.302 C  
ENDROOT
BRANCH   6   7
HETATM    7  C   UNL     1     -10.406   9.578  66.555  1.00  0.00    -0.263 A  
HETATM    8  C   UNL     1     -10.951  10.182  67.701  1.00  0.00    -0.331 A  
HETATM    9  C   UNL     1     -11.365  11.517  67.695  1.00  0.00    -0.358 A  
HETATM   10  C   UNL     1     -11.235  12.281  66.539  1.00  0.00    -0.373 A  
HETATM   11  C   UNL     1     -10.686  11.711  65.393  1.00  0.00    -0.341 A  
HETATM   12  C   UNL     1     -10.271  10.377  65.407  1.00  0.00    -0.329 A  
ENDBRANCH   6   7
TORSDOF 1
ENDMDL
MODEL       90
REMARK 921   NORMALIZED FREE ENERGY PREDICTED BY IDOCK:   -3.34 KCAL/MOL
REMARK 922        TOTAL FREE ENERGY PREDICTED BY IDOCK:   -3.63 KCAL/MOL
REMARK 923 INTER-LIGAND FREE ENERGY PREDICTED BY IDOCK:   -3.54 KCAL/MOL
REMARK 924 INTRA-LIGAND FREE ENERGY PREDICTED BY IDOCK:   -0.09 KCAL/MOL
REMARK 927      BINDING AFFINITY PREDICTED BY RF-SCORE:    0.00 PKD
ROOT
HETATM    1  N   UNL     1      -8.075  18.074  65.676  1.00  0.00    -0.355 NA 
HETATM    2  C   UNL     1      -9.028  17.226  66.394  1.00  0.00    -0.252 C  
HETATM    3  H1  UNL     1      -7.163  17.702  65.411  1.00  0.00     0.000 HD 
HETATM    4  H2  UNL     1      -7.933  18.928  66.215  1.00  0.00     0.000 HD 
HETATM    5  C   UNL     1     -10.367  17.772  66.783  1.00  0.00    -0.343 C  
HETATM    6  C   UNL     1     -10.273  16.734  65.686  1.00  0.00    -0.258 C  
ENDROOT
BRANCH   6   7
HETATM    7  C   UNL     1     -10.785  15.335  65.936  1.00  0.00    -0.340 A  
HETATM    8  C   UNL     1     -10.744  14.353  64.931  1.00  0.00    -0.444 A  
HETATM    9  C   UNL     1     -11.216  13.057  65.159  1.00  0.00    -0.321 A  
HETATM   10  C   UNL     1     -11.734  12.714  66.404  1.00  0.00    -0.466 A  
HETATM   11  C   UNL     1     -11.774  13.663  67.421  1.00  0.00    -0.416 A  
HETATM   12  C   UNL     1     -11.297  14.956  67.188  1.00  0.00    -0.348 A  
ENDBRANCH   6   7
TORSDOF 1
ENDMDL
MODEL       91
REMARK 921   NORMALIZED FREE ENERGY PREDICTED BY IDOCK:   -3.32 KCAL/MOL
REMARK 922        TOTAL FREE ENERGY PREDICTED BY IDOCK:   -3.61 KCAL/MOL
REMARK 923 INTER-LIGAND FREE ENERGY PREDICTED BY IDOCK:   -3.51 KCAL/MOL
REMARK 924 INTRA-LIGAND FREE ENERGY PREDICTED BY IDOCK:   -0.09 KCAL/MOL
REMARK 927      BINDING AFFINITY PREDICTED BY RF-SCORE:    0.00 PKD
ROOT
HETATM    1  N   UNL     1     -11.078   5.646  66.230  1.00  0.00    -0.772 NA 
HETATM    2  C   UNL     1     -10.648   5.800  67.620  1.00  0.00    -0.239 C  
HETATM    3  H1  UNL     1     -12.015   5.299  66.022  1.00  0.00     0.000 HD 
HETATM    4  H2  UNL     1     -10.399   5.058  65.745  1.00  0.00     0.000 HD 
HETATM    5  C   UNL     1      -9.274   6.311  67.925  1.00  0.00    -0.116 C  
HETATM    6  C   UNL     1     -10.475   7.189  68.200  1.00  0.00    -0.244 C  
ENDROOT
BRANCH   6   7
HETATM    7  C   UNL     1     -10.881   7.471  69.627  1.00  0.00    -0.210 A  
HETATM    8  C   UNL     1     -11.616   6.535  70.375  1.00  0.00    -0.470 A  
HETATM    9  C   UNL     1     -11.993   6.792  71.697  1.00  0.00    -0.391 A  
HETATM   10  C   UNL     1     -11.636   7.993  72.301  1.00  0.00    -0.424 A  
HETATM   11  C   UNL     1     -10.897   8.933  71.587  1.00  0.00    -0.420 A  
HETATM   12  C   UNL     1     -10.519   8.667  70.268  1.00  0.00    -0.229 A  
ENDBRANCH   6   7
TORSDOF 1
ENDMDL
MODEL       92
REMARK 921   NORMALIZED FREE ENERGY PREDICTED BY IDOCK:   -3.31 KCAL/MOL
REMARK 922        TOTAL FREE ENERGY PREDICTED BY IDOCK:   -3.60 KCAL/MOL
REMARK 923 INTER-LIGAND FREE ENERGY PREDICTED BY IDOCK:   -3.51 KCAL/MOL
REMARK 924 INTRA-LIGAND FREE ENERGY PREDICTED BY IDOCK:   -0.09 KCAL/MOL
REMARK 927      BINDING AFFINITY PREDICTED BY RF-SCORE:    0.00 PKD
ROOT
HETATM    1  N   UNL     1     -11.197   8.533  69.446  1.00  0.00    -0.431 NA 
HETATM    2  C   UNL     1     -10.684   9.853  69.081  1.00  0.00    -0.224 C  
HETATM    3  H1  UNL     1     -11.550   8.367  70.389  1.00  0.00     0.000 HD 
HETATM    4  H2  UNL     1     -10.478   7.838  69.243  1.00  0.00     0.000 HD 
HETATM    5  C   UNL     1     -10.166  10.096  67.697  1.00  0.00    -0.246 C  
HETATM    6  C   UNL     1     -11.473  10.725  68.126  1.00  0.00    -0.346 C  
ENDROOT
BRANCH   6   7
HETATM    7  C   UNL     1     -11.546  12.218  68.347  1.00  0.00    -0.377 A  
HETATM    8  C   UNL     1     -11.509  13.118  67.267  1.00  0.00    -0.375 A  
HETATM    9  C   UNL     1     -11.578  14.499  67.468  1.00  0.00    -0.403 A  
HETATM   10  C   UNL     1     -11.692  15.011  68.756  1.00  0.00    -0.360 A  
HETATM   11  C   UNL     1     -11.745  14.142  69.842  1.00  0.00    -0.372 A  
HETATM   12  C   UNL     1     -11.680  12.762  69.635  1.00  0.00    -0.372 A  
ENDBRANCH   6   7
TORSDOF 1
ENDMDL
MODEL       93
REMARK 921   NORMALIZED FREE ENERGY PREDICTED BY IDOCK:   -3.30 KCAL/MOL
REMARK 922        TOTAL FREE ENERGY PREDICTED BY IDOCK:   -3.58 KCAL/MOL
REMARK 923 INTER-LIGAND FREE ENERGY PREDICTED BY IDOCK:   -3.50 KCAL/MOL
REMARK 924 INTRA-LIGAND FREE ENERGY PREDICTED BY IDOCK:   -0.09 KCAL/MOL
REMARK 927      BINDING AFFINITY PREDICTED BY RF-SCORE:    0.00 PKD
ROOT
HETATM    1  N   UNL     1     -12.197  12.216  65.224  1.00  0.00    -0.476 NA 
HETATM    2  C   UNL     1     -11.860  12.260  66.648  1.00  0.00    -0.289 C  
HETATM    3  H1  UNL     1     -13.168  12.324  64.928  1.00  0.00     0.000 HD 
HETATM    4  H2  UNL     1     -11.834  11.346  64.833  1.00  0.00     0.000 HD 
HETATM    5  C   UNL     1     -10.436  12.102  67.082  1.00  0.00    -0.241 C  
HETATM    6  C   UNL     1     -11.107  13.452  67.201  1.00  0.00    -0.303 C  
ENDROOT
BRANCH   6   7
HETATM    7  C   UNL     1     -11.450  13.999  68.567  1.00  0.00    -0.336 A  
HETATM    8  C   UNL     1     -11.876  13.152  69.605  1.00  0.00    -0.390 A  
HETATM    9  C   UNL     1     -12.193  13.654  70.871  1.00  0.00    -0.408 A  
HETATM   10  C   UNL     1     -12.083  15.017  71.127  1.00  0.00    -0.375 A  
HETATM   11  C   UNL     1     -11.650  15.876  70.120  1.00  0.00    -0.357 A  
HETATM   12  C   UNL     1     -11.330  15.367  68.859  1.00  0.00    -0.322 A  
ENDBRANCH   6   7
TORSDOF 1
ENDMDL
MODEL       94
REMARK 921   NORMALIZED FREE ENERGY PREDICTED BY IDOCK:   -3.29 KCAL/MOL
REMARK 922        TOTAL FREE ENERGY PREDICTED BY IDOCK:   -3.58 KCAL/MOL
REMARK 923 INTER-LIGAND FREE ENERGY PREDICTED BY IDOCK:   -3.49 KCAL/MOL
REMARK 924 INTRA-LIGAND FREE ENERGY PREDICTED BY IDOCK:   -0.09 KCAL/MOL
REMARK 927      BINDING AFFINITY PREDICTED BY RF-SCORE:    0.00 PKD
ROOT
HETATM    1  N   UNL     1      -7.708  20.974  66.671  1.00  0.00    -0.531 NA 
HETATM    2  C   UNL     1      -8.622  20.191  67.504  1.00  0.00    -0.336 C  
HETATM    3  H1  UNL     1      -6.717  21.022  66.910  1.00  0.00     0.000 HD 
HETATM    4  H2  UNL     1      -8.070  21.926  66.601  1.00  0.00     0.000 HD 
HETATM    5  C   UNL     1     -10.076  20.122  67.154  1.00  0.00    -0.590 C  
HETATM    6  C   UNL     1      -9.204  18.900  66.966  1.00  0.00    -0.325 C  
ENDROOT
BRANCH   6   7
HETATM    7  C   UNL     1      -9.380  17.710  67.878  1.00  0.00    -0.268 A  
HETATM    8  C   UNL     1     -10.655  17.301  68.306  1.00  0.00    -0.383 A  
HETATM    9  C   UNL     1     -10.822  16.199  69.150  1.00  0.00    -0.298 A  
HETATM   10  C   UNL     1      -9.713  15.476  69.579  1.00  0.00    -0.282 A  
HETATM   11  C   UNL     1      -8.439  15.851  69.159  1.00  0.00    -0.254 A  
HETATM   12  C   UNL     1      -8.280  16.951  68.312  1.00  0.00    -0.222 A  
ENDBRANCH   6   7
TORSDOF 1
ENDMDL
MODEL       95
REMARK 921   NORMALIZED FREE ENERGY PREDICTED BY IDOCK:   -3.28 KCAL/MOL
REMARK 922        TOTAL FREE ENERGY PREDICTED BY IDOCK:   -3.56 KCAL/MOL
REMARK 923 INTER-LIGAND FREE ENERGY PREDICTED BY IDOCK:   -3.47 KCAL/MOL
REMARK 924 INTRA-LIGAND FREE ENERGY PREDICTED BY IDOCK:   -0.09 KCAL/MOL
REMARK 927      BINDING AFFINITY PREDICTED BY RF-SCORE:    0.00 PKD
ROOT
HETATM    1  N   UNL     1      -5.522  15.670  67.399  1.00  0.00    -0.335 NA 
HETATM    2  C   UNL     1      -6.646  16.368  68.022  1.00  0.00    -0.135 C  
HETATM    3  H1  UNL     1      -5.689  15.024  66.626  1.00  0.00     0.000 HD 
HETATM    4  H2  UNL     1      -5.003  15.178  68.126  1.00  0.00     0.000 HD 
HETATM    5  C   UNL     1      -6.401  17.316  69.155  1.00  0.00    -0.229 C  
HETATM    6  C   UNL     1      -6.816  17.857  67.805  1.00  0.00    -0.194 C  
ENDROOT
BRANCH   6   7
HETATM    7  C   UNL     1      -8.196  18.446  67.629  1.00  0.00    -0.262 A  
HETATM    8  C   UNL     1      -8.834  19.136  68.675  1.00  0.00    -0.404 A  
HETATM    9  C   UNL     1     -10.110  19.683  68.515  1.00  0.00    -0.557 A  
HETATM   10  C   UNL     1     -10.775  19.556  67.300  1.00  0.00    -0.604 A  
HETATM   11  C   UNL     1     -10.161  18.889  66.243  1.00  0.00    -0.491 A  
HETATM   12  C   UNL     1      -8.883  18.348  66.408  1.00  0.00    -0.262 A  
ENDBRANCH   6   7
TORSDOF 1
ENDMDL
MODEL       96
REMARK 921   NORMALIZED FREE ENERGY PREDICTED BY IDOCK:   -3.26 KCAL/MOL
REMARK 922        TOTAL FREE ENERGY PREDICTED BY IDOCK:   -3.54 KCAL/MOL
REMARK 923 INTER-LIGAND FREE ENERGY PREDICTED BY IDOCK:   -3.45 KCAL/MOL
REMARK 924 INTRA-LIGAND FREE ENERGY PREDICTED BY IDOCK:   -0.09 KCAL/MOL
REMARK 927      BINDING AFFINITY PREDICTED BY RF-SCORE:    0.00 PKD
ROOT
HETATM    1  N   UNL     1     -11.834  11.246  67.835  1.00  0.00    -0.634 NA 
HETATM    2  C   UNL     1     -11.897  12.704  67.944  1.00  0.00    -0.332 C  
HETATM    3  H1  UNL     1     -11.780  10.806  66.916  1.00  0.00     0.000 HD 
HETATM    4  H2  UNL     1     -12.628  10.850  68.338  1.00  0.00     0.000 HD 
HETATM    5  C   UNL     1     -11.975  13.350  69.293  1.00  0.00    -0.367 C  
HETATM    6  C   UNL     1     -10.704  13.467  68.481  1.00  0.00    -0.278 C  
ENDROOT
BRANCH   6   7
HETATM    7  C   UNL     1     -10.322  14.799  67.881  1.00  0.00    -0.240 A  
HETATM    8  C   UNL     1      -9.431  14.882  66.796  1.00  0.00    -0.269 A  
HETATM    9  C   UNL     1      -9.076  16.113  66.237  1.00  0.00    -0.373 A  
HETATM   10  C   UNL     1      -9.611  17.290  66.749  1.00  0.00    -0.279 A  
HETATM   11  C   UNL     1     -10.507  17.236  67.814  1.00  0.00    -0.371 A  
HETATM   12  C   UNL     1     -10.861  16.002  68.366  1.00  0.00    -0.310 A  
ENDBRANCH   6   7
TORSDOF 1
ENDMDL
MODEL       97
REMARK 921   NORMALIZED FREE ENERGY PREDICTED BY IDOCK:   -3.25 KCAL/MOL
REMARK 922        TOTAL FREE ENERGY PREDICTED BY IDOCK:   -3.53 KCAL/MOL
REMARK 923 INTER-LIGAND FREE ENERGY PREDICTED BY IDOCK:   -3.44 KCAL/MOL
REMARK 924 INTRA-LIGAND FREE ENERGY PREDICTED BY IDOCK:   -0.09 KCAL/MOL
REMARK 927      BINDING AFFINITY PREDICTED BY RF-SCORE:    0.00 PKD
ROOT
HETATM    1  N   UNL     1     -10.976  10.894  70.272  1.00  0.00    -0.456 NA 
HETATM    2  C   UNL     1     -11.341   9.937  71.317  1.00  0.00    -0.333 C  
HETATM    3  H1  UNL     1     -10.025  11.260  70.227  1.00  0.00     0.000 HD 
HETATM    4  H2  UNL     1     -11.624  11.681  70.314  1.00  0.00     0.000 HD 
HETATM    5  C   UNL     1     -12.737   9.400  71.383  1.00  0.00    -0.425 C  
HETATM    6  C   UNL     1     -11.608   8.492  70.949  1.00  0.00    -0.295 C  
ENDROOT
BRANCH   6   7
HETATM    7  C   UNL     1     -11.151   7.379  71.863  1.00  0.00    -0.276 A  
HETATM    8  C   UNL     1     -10.729   7.642  73.177  1.00  0.00    -0.445 A  
HETATM    9  C   UNL     1     -10.307   6.615  74.026  1.00  0.00    -0.377 A  
HETATM   10  C   UNL     1     -10.304   5.298  73.578  1.00  0.00    -0.253 A  
HETATM   11  C   UNL     1     -10.730   5.008  72.284  1.00  0.00    -0.246 A  
HETATM   12  C   UNL     1     -11.155   6.039  71.442  1.00  0.00    -0.336 A  
ENDBRANCH   6   7
TORSDOF 1
ENDMDL
MODEL       98
REMARK 921   NORMALIZED FREE ENERGY PREDICTED BY IDOCK:   -3.24 KCAL/MOL
REMARK 922        TOTAL FREE ENERGY PREDICTED BY IDOCK:   -3.53 KCAL/MOL
REMARK 923 INTER-LIGAND FREE ENERGY PREDICTED BY IDOCK:   -3.44 KCAL/MOL
REMARK 924 INTRA-LIGAND FREE ENERGY PREDICTED BY IDOCK:   -0.09 KCAL/MOL
REMARK 927      BINDING AFFINITY PREDICTED BY RF-SCORE:    0.00 PKD
ROOT
HETATM    1  N   UNL     1     -10.645  14.145  64.753  1.00  0.00    -0.464 NA 
HETATM    2  C   UNL     1     -10.410  13.806  66.157  1.00  0.00    -0.301 C  
HETATM    3  H1  UNL     1     -10.419  13.469  64.022  1.00  0.00     0.000 HD 
HETATM    4  H2  UNL     1     -10.162  15.019  64.546  1.00  0.00     0.000 HD 
HETATM    5  C   UNL     1     -10.741  14.798  67.229  1.00  0.00    -0.294 C  
HETATM    6  C   UNL     1     -11.589  13.555  67.074  1.00  0.00    -0.394 C  
ENDROOT
BRANCH   6   7
HETATM    7  C   UNL     1     -11.519  12.467  68.120  1.00  0.00    -0.368 A  
HETATM    8  C   UNL     1     -12.156  12.609  69.364  1.00  0.00    -0.236 A  
HETATM    9  C   UNL     1     -12.094  11.605  70.334  1.00  0.00    -0.462 A  
HETATM   10  C   UNL     1     -11.396  10.429  70.075  1.00  0.00    -0.384 A  
HETATM   11  C   UNL     1     -10.767  10.257  68.845  1.00  0.00    -0.256 A  
HETATM   12  C   UNL     1     -10.836  11.263  67.878  1.00  0.00    -0.278 A  
ENDBRANCH   6   7
TORSDOF 1
ENDMDL
MODEL       99
REMARK 921   NORMALIZED FREE ENERGY PREDICTED BY IDOCK:   -3.23 KCAL/MOL
REMARK 922        TOTAL FREE ENERGY PREDICTED BY IDOCK:   -3.51 KCAL/MOL
REMARK 923 INTER-LIGAND FREE ENERGY PREDICTED BY IDOCK:   -3.43 KCAL/MOL
REMARK 924 INTRA-LIGAND FREE ENERGY PREDICTED BY IDOCK:   -0.09 KCAL/MOL
REMARK 927      BINDING AFFINITY PREDICTED BY RF-SCORE:    0.00 PKD
ROOT
HETATM    1  N   UNL     1     -11.448  15.532  68.089  1.00  0.00    -0.341 NA 
HETATM    2  C   UNL     1     -11.012  14.161  68.360  1.00  0.00    -0.254 C  
HETATM    3  H1  UNL     1     -10.951  16.096  67.400  1.00  0.00     0.000 HD 
HETATM    4  H2  UNL     1     -11.470  16.044  68.972  1.00  0.00     0.000 HD 
HETATM    5  C   UNL     1     -11.741  13.332  69.372  1.00  0.00    -0.383 C  
HETATM    6  C   UNL     1     -11.869  12.999  67.902  1.00  0.00    -0.389 C  
ENDROOT
BRANCH   6   7
HETATM    7  C   UNL     1     -11.222  11.746  67.360  1.00  0.00    -0.357 A  
HETATM    8  C   UNL     1     -11.136  10.577  68.135  1.00  0.00    -0.346 A  
HETATM    9  C   UNL     1     -10.539   9.415  67.637  1.00  0.00    -0.333 A  
HETATM   10  C   UNL     1     -10.021   9.397  66.346  1.00  0.00    -0.346 A  
HETATM   11  C   UNL     1     -10.106  10.538  65.552  1.00  0.00    -0.349 A  
HETATM   12  C   UNL     1     -10.707  11.694  66.054  1.00  0.00    -0.328 A  
ENDBRANCH   6   7
TORSDOF 1
ENDMDL
MODEL      100
REMARK 921   NORMALIZED FREE ENERGY PREDICTED BY IDOCK:   -3.22 KCAL/MOL
REMARK 922        TOTAL FREE ENERGY PREDICTED BY IDOCK:   -3.50 KCAL/MOL
REMARK 923 INTER-LIGAND FREE ENERGY PREDICTED BY IDOCK:   -3.41 KCAL/MOL
REMARK 924 INTRA-LIGAND FREE ENERGY PREDICTED BY IDOCK:   -0.09 KCAL/MOL
REMARK 927      BINDING AFFINITY PREDICTED BY RF-SCORE:    0.00 PKD
ROOT
HETATM    1  N   UNL     1      -7.641  10.439  63.876  1.00  0.00    -0.315 NA 
HETATM    2  C   UNL     1      -9.048  10.752  64.127  1.00  0.00    -0.196 C  
HETATM    3  H1  UNL     1      -7.102  11.009  63.222  1.00  0.00     0.000 HD 
HETATM    4  H2  UNL     1      -7.573   9.463  63.587  1.00  0.00     0.000 HD 
HETATM    5  C   UNL     1      -9.839   9.917  65.086  1.00  0.00    -0.348 C  
HETATM    6  C   UNL     1      -9.459  11.331  65.465  1.00  0.00    -0.255 C  
ENDROOT
BRANCH   6   7
HETATM    7  C   UNL     1     -10.526  12.398  65.534  1.00  0.00    -0.304 A  
HETATM    8  C   UNL     1     -11.296  12.585  66.695  1.00  0.00    -0.389 A  
HETATM    9  C   UNL     1     -12.284  13.572  66.764  1.00  0.00    -0.392 A  
HETATM   10  C   UNL     1     -12.518  14.399  65.670  1.00  0.00    -0.345 A  
HETATM   11  C   UNL     1     -11.761  14.244  64.512  1.00  0.00    -0.431 A  
HETATM   12  C   UNL     1     -10.772  13.259  64.451  1.00  0.00    -0.432 A  
ENDBRANCH   6   7
TORSDOF 1
ENDMDL
MODEL      101
REMARK 921   NORMALIZED FREE ENERGY PREDICTED BY IDOCK:   -3.21 KCAL/MOL
REMARK 922        TOTAL FREE ENERGY PREDICTED BY IDOCK:   -3.49 KCAL/MOL
REMARK 923 INTER-LIGAND FREE ENERGY PREDICTED BY IDOCK:   -3.40 KCAL/MOL
REMARK 924 INTRA-LIGAND FREE ENERGY PREDICTED BY IDOCK:   -0.09 KCAL/MOL
REMARK 927      BINDING AFFINITY PREDICTED BY RF-SCORE:    0.00 PKD
ROOT
HETATM    1  N   UNL     1     -12.077  15.225  68.583  1.00  0.00    -0.585 NA 
HETATM    2  C   UNL     1     -10.778  15.505  67.971  1.00  0.00    -0.283 C  
HETATM    3  H1  UNL     1     -12.335  15.679  69.460  1.00  0.00     0.000 HD 
HETATM    4  H2  UNL     1     -12.166  14.215  68.703  1.00  0.00     0.000 HD 
HETATM    5  C   UNL     1     -10.399  14.839  66.685  1.00  0.00    -0.273 C  
HETATM    6  C   UNL     1     -10.712  16.319  66.695  1.00  0.00    -0.197 C  
ENDROOT
BRANCH   6   7
HETATM    7  C   UNL     1      -9.598  17.319  66.490  1.00  0.00    -0.286 A  
HETATM    8  C   UNL     1      -8.273  16.901  66.275  1.00  0.00    -0.344 A  
HETATM    9  C   UNL     1      -7.240  17.823  66.083  1.00  0.00    -0.346 A  
HETATM   10  C   UNL     1      -7.514  19.188  66.096  1.00  0.00    -0.294 A  
HETATM   11  C   UNL     1      -8.820  19.628  66.293  1.00  0.00    -0.410 A  
HETATM   12  C   UNL     1      -9.848  18.701  66.480  1.00  0.00    -0.388 A  
ENDBRANCH   6   7
TORSDOF 1
ENDMDL
MODEL      102
REMARK 921   NORMALIZED FREE ENERGY PREDICTED BY IDOCK:   -3.19 KCAL/MOL
REMARK 922        TOTAL FREE ENERGY PREDICTED BY IDOCK:   -3.47 KCAL/MOL
REMARK 923 INTER-LIGAND FREE ENERGY PREDICTED BY IDOCK:   -3.38 KCAL/MOL
REMARK 924 INTRA-LIGAND FREE ENERGY PREDICTED BY IDOCK:   -0.09 KCAL/MOL
REMARK 927      BINDING AFFINITY PREDICTED BY RF-SCORE:    0.00 PKD
ROOT
HETATM    1  N   UNL     1     -11.987   9.580  69.974  1.00  0.00    -0.455 NA 
HETATM    2  C   UNL     1     -11.418   8.663  70.962  1.00  0.00    -0.278 C  
HETATM    3  H1  UNL     1     -11.535   9.694  69.066  1.00  0.00     0.000 HD 
HETATM    4  H2  UNL     1     -12.085  10.500  70.405  1.00  0.00     0.000 HD 
HETATM    5  C   UNL     1     -12.082   8.496  72.294  1.00  0.00    -0.455 C  
HETATM    6  C   UNL     1     -12.138   7.370  71.285  1.00  0.00    -0.359 C  
ENDROOT
BRANCH   6   7
HETATM    7  C   UNL     1     -11.351   6.105  71.533  1.00  0.00    -0.340 A  
HETATM    8  C   UNL     1     -10.526   5.552  70.539  1.00  0.00    -0.347 A  
HETATM    9  C   UNL     1      -9.795   4.383  70.765  1.00  0.00    -0.273 A  
HETATM   10  C   UNL     1      -9.869   3.743  71.998  1.00  0.00    -0.243 A  
HETATM   11  C   UNL     1     -10.668   4.277  73.006  1.00  0.00    -0.272 A  
HETATM   12  C   UNL     1     -11.393   5.449  72.775  1.00  0.00    -0.358 A  
ENDBRANCH   6   7
TORSDOF 1
ENDMDL
MODEL      103
REMARK 921   NORMALIZED FREE ENERGY PREDICTED BY IDOCK:   -3.13 KCAL/MOL
REMARK 922        TOTAL FREE ENERGY PREDICTED BY IDOCK:   -3.40 KCAL/MOL
REMARK 923 INTER-LIGAND FREE ENERGY PREDICTED BY IDOCK:   -3.31 KCAL/MOL
REMARK 924 INTRA-LIGAND FREE ENERGY PREDICTED BY IDOCK:   -0.09 KCAL/MOL
REMARK 927      BINDING AFFINITY PREDICTED BY RF-SCORE:    0.00 PKD
ROOT
HETATM    1  N   UNL     1      -9.146  16.759  66.698  1.00  0.00    -0.234 NA 
HETATM    2  C   UNL     1      -9.612  15.377  66.819  1.00  0.00    -0.241 C  
HETATM    3  H1  UNL     1      -8.168  16.948  66.473  1.00  0.00     0.000 HD 
HETATM    4  H2  UNL     1      -9.381  17.256  67.558  1.00  0.00     0.000 HD 
HETATM    5  C   UNL     1     -11.046  15.100  67.150  1.00  0.00    -0.335 C  
HETATM    6  C   UNL     1     -10.529  14.802  65.760  1.00  0.00    -0.348 C  
ENDROOT
BRANCH   6   7
HETATM    7  C   UNL     1     -10.368  13.368  65.314  1.00  0.00    -0.330 A  
HETATM    8  C   UNL     1     -10.632  12.982  63.989  1.00  0.00    -0.371 A  
HETATM    9  C   UNL     1     -10.483  11.655  63.573  1.00  0.00    -0.498 A  
HETATM   10  C   UNL     1     -10.060  10.686  64.476  1.00  0.00    -0.421 A  
HETATM   11  C   UNL     1      -9.779  11.044  65.793  1.00  0.00    -0.268 A  
HETATM   12  C   UNL     1      -9.926  12.372  66.201  1.00  0.00    -0.267 A  
ENDBRANCH   6   7
TORSDOF 1
ENDMDL
MODEL      104
REMARK 921   NORMALIZED FREE ENERGY PREDICTED BY IDOCK:   -3.13 KCAL/MOL
REMARK 922        TOTAL FREE ENERGY PREDICTED BY IDOCK:   -3.40 KCAL/MOL
REMARK 923 INTER-LIGAND FREE ENERGY PREDICTED BY IDOCK:   -3.31 KCAL/MOL
REMARK 924 INTRA-LIGAND FREE ENERGY PREDICTED BY IDOCK:   -0.09 KCAL/MOL
REMARK 927      BINDING AFFINITY PREDICTED BY RF-SCORE:    0.00 PKD
ROOT
HETATM    1  N   UNL     1     -11.156  17.730  64.716  1.00  0.00    -0.599 NA 
HETATM    2  C   UNL     1     -10.639  16.611  65.504  1.00  0.00    -0.258 C  
HETATM    3  H1  UNL     1     -11.963  17.592  64.106  1.00  0.00     0.000 HD 
HETATM    4  H2  UNL     1     -10.392  18.115  64.161  1.00  0.00     0.000 HD 
HETATM    5  C   UNL     1      -9.456  16.813  66.400  1.00  0.00    -0.307 C  
HETATM    6  C   UNL     1     -10.825  16.605  67.007  1.00  0.00    -0.091 C  
ENDROOT
BRANCH   6   7
HETATM    7  C   UNL     1     -11.134  15.314  67.728  1.00  0.00    -0.318 A  
HETATM    8  C   UNL     1     -11.202  14.091  67.038  1.00  0.00    -0.325 A  
HETATM    9  C   UNL     1     -11.486  12.895  67.702  1.00  0.00    -0.383 A  
HETATM   10  C   UNL     1     -11.702  12.895  69.076  1.00  0.00    -0.375 A  
HETATM   11  C   UNL     1     -11.626  14.090  69.787  1.00  0.00    -0.344 A  
HETATM   12  C   UNL     1     -11.338  15.283  69.118  1.00  0.00    -0.307 A  
ENDBRANCH   6   7
TORSDOF 1
ENDMDL
MODEL      105
REMARK 921   NORMALIZED FREE ENERGY PREDICTED BY IDOCK:   -3.12 KCAL/MOL
REMARK 922        TOTAL FREE ENERGY PREDICTED BY IDOCK:   -3.39 KCAL/MOL
REMARK 923 INTER-LIGAND FREE ENERGY PREDICTED BY IDOCK:   -3.30 KCAL/MOL
REMARK 924 INTRA-LIGAND FREE ENERGY PREDICTED BY IDOCK:   -0.09 KCAL/MOL
REMARK 927      BINDING AFFINITY PREDICTED BY RF-SCORE:    0.00 PKD
ROOT
HETATM    1  N   UNL     1     -11.163   9.458  69.104  1.00  0.00    -0.446 NA 
HETATM    2  C   UNL     1     -10.716   9.509  70.496  1.00  0.00    -0.298 C  
HETATM    3  H1  UNL     1     -10.511   9.176  68.370  1.00  0.00     0.000 HD 
HETATM    4  H2  UNL     1     -11.556  10.366  68.856  1.00  0.00     0.000 HD 
HETATM    5  C   UNL     1     -11.672   9.922  71.572  1.00  0.00    -0.414 C  
HETATM    6  C   UNL     1     -11.224   8.480  71.484  1.00  0.00    -0.345 C  
ENDROOT
BRANCH   6   7
HETATM    7  C   UNL     1     -10.300   7.919  72.539  1.00  0.00    -0.349 A  
HETATM    8  C   UNL     1     -10.705   6.869  73.381  1.00  0.00    -0.352 A  
HETATM    9  C   UNL     1      -9.852   6.347  74.357  1.00  0.00    -0.338 A  
HETATM   10  C   UNL     1      -8.569   6.862  74.507  1.00  0.00    -0.204 A  
HETATM   11  C   UNL     1      -8.136   7.893  73.677  1.00  0.00    -0.248 A  
HETATM   12  C   UNL     1      -8.993   8.408  72.700  1.00  0.00    -0.304 A  
ENDBRANCH   6   7
TORSDOF 1
ENDMDL
MODEL      106
REMARK 921   NORMALIZED FREE ENERGY PREDICTED BY IDOCK:   -3.09 KCAL/MOL
REMARK 922        TOTAL FREE ENERGY PREDICTED BY IDOCK:   -3.36 KCAL/MOL
REMARK 923 INTER-LIGAND FREE ENERGY PREDICTED BY IDOCK:   -3.27 KCAL/MOL
REMARK 924 INTRA-LIGAND FREE ENERGY PREDICTED BY IDOCK:   -0.09 KCAL/MOL
REMARK 927      BINDING AFFINITY PREDICTED BY RF-SCORE:    0.00 PKD
ROOT
HETATM    1  N   UNL     1      -7.753  18.637  68.586  1.00  0.00    -0.314 NA 
HETATM    2  C   UNL     1      -8.934  17.981  68.024  1.00  0.00    -0.272 C  
HETATM    3  H1  UNL     1      -7.114  18.111  69.184  1.00  0.00     0.000 HD 
HETATM    4  H2  UNL     1      -8.055  19.471  69.091  1.00  0.00     0.000 HD 
HETATM    5  C   UNL     1      -9.870  18.753  67.147  1.00  0.00    -0.352 C  
HETATM    6  C   UNL     1      -8.990  17.684  66.540  1.00  0.00    -0.283 C  
ENDROOT
BRANCH   6   7
HETATM    7  C   UNL     1      -9.609  16.397  66.047  1.00  0.00    -0.352 A  
HETATM    8  C   UNL     1      -9.126  15.146  66.469  1.00  0.00    -0.328 A  
HETATM    9  C   UNL     1      -9.698  13.954  66.016  1.00  0.00    -0.270 A  
HETATM   10  C   UNL     1     -10.773  13.988  65.133  1.00  0.00    -0.393 A  
HETATM   11  C   UNL     1     -11.280  15.214  64.711  1.00  0.00    -0.396 A  
HETATM   12  C   UNL     1     -10.707  16.403  65.171  1.00  0.00    -0.309 A  
ENDBRANCH   6   7
TORSDOF 1
ENDMDL
MODEL      107
REMARK 921   NORMALIZED FREE ENERGY PREDICTED BY IDOCK:   -3.08 KCAL/MOL
REMARK 922        TOTAL FREE ENERGY PREDICTED BY IDOCK:   -3.35 KCAL/MOL
REMARK 923 INTER-LIGAND FREE ENERGY PREDICTED BY IDOCK:   -3.26 KCAL/MOL
REMARK 924 INTRA-LIGAND FREE ENERGY PREDICTED BY IDOCK:   -0.09 KCAL/MOL
REMARK 927      BINDING AFFINITY PREDICTED BY RF-SCORE:    0.00 PKD
ROOT
HETATM    1  N   UNL     1     -11.241   6.774  67.273  1.00  0.00    -0.701 NA 
HETATM    2  C   UNL     1     -10.718   8.031  67.810  1.00  0.00    -0.104 C  
HETATM    3  H1  UNL     1     -12.069   6.347  67.690  1.00  0.00     0.000 HD 
HETATM    4  H2  UNL     1     -10.488   6.085  67.271  1.00  0.00     0.000 HD 
HETATM    5  C   UNL     1      -9.503   8.656  67.197  1.00  0.00    -0.207 C  
HETATM    6  C   UNL     1     -10.856   9.304  67.002  1.00  0.00    -0.077 C  
ENDROOT
BRANCH   6   7
HETATM    7  C   UNL     1     -11.165  10.611  67.693  1.00  0.00    -0.361 A  
HETATM    8  C   UNL     1     -11.048  11.839  67.018  1.00  0.00    -0.358 A  
HETATM    9  C   UNL     1     -11.333  13.050  67.654  1.00  0.00    -0.342 A  
HETATM   10  C   UNL     1     -11.750  13.059  68.981  1.00  0.00    -0.376 A  
HETATM   11  C   UNL     1     -11.887  11.856  69.669  1.00  0.00    -0.406 A  
HETATM   12  C   UNL     1     -11.604  10.648  69.027  1.00  0.00    -0.332 A  
ENDBRANCH   6   7
TORSDOF 1
ENDMDL
MODEL      108
REMARK 921   NORMALIZED FREE ENERGY PREDICTED BY IDOCK:   -3.07 KCAL/MOL
REMARK 922        TOTAL FREE ENERGY PREDICTED BY IDOCK:   -3.34 KCAL/MOL
REMARK 923 INTER-LIGAND FREE ENERGY PREDICTED BY IDOCK:   -3.25 KCAL/MOL
REMARK 924 INTRA-LIGAND FREE ENERGY PREDICTED BY IDOCK:   -0.09 KCAL/MOL
REMARK 927      BINDING AFFINITY PREDICTED BY RF-SCORE:    0.00 PKD
ROOT
HETATM    1  N   UNL     1     -10.041   8.267  66.629  1.00  0.00    -0.329 NA 
HETATM    2  C   UNL     1     -10.117   8.351  68.088  1.00  0.00    -0.200 C  
HETATM    3  H1  UNL     1     -10.727   7.714  66.115  1.00  0.00     0.000 HD 
HETATM    4  H2  UNL     1      -9.107   7.945  66.372  1.00  0.00     0.000 HD 
HETATM    5  C   UNL     1      -9.110   9.163  68.842  1.00  0.00    -0.139 C  
HETATM    6  C   UNL     1     -10.538   9.651  68.741  1.00  0.00    -0.242 C  
ENDROOT
BRANCH   6   7
HETATM    7  C   UNL     1     -11.421   9.633  69.966  1.00  0.00    -0.191 A  
HETATM    8  C   UNL     1     -12.188  10.754  70.329  1.00  0.00    -0.431 A  
HETATM    9  C   UNL     1     -13.008  10.741  71.462  1.00  0.00    -0.562 A  
HETATM   10  C   UNL     1     -13.083   9.599  72.253  1.00  0.00    -0.468 A  
HETATM   11  C   UNL     1     -12.344   8.470  71.909  1.00  0.00    -0.407 A  
HETATM   12  C   UNL     1     -11.530   8.488  70.773  1.00  0.00    -0.281 A  
ENDBRANCH   6   7
TORSDOF 1
ENDMDL
MODEL      109
REMARK 921   NORMALIZED FREE ENERGY PREDICTED BY IDOCK:   -3.07 KCAL/MOL
REMARK 922        TOTAL FREE ENERGY PREDICTED BY IDOCK:   -3.34 KCAL/MOL
REMARK 923 INTER-LIGAND FREE ENERGY PREDICTED BY IDOCK:   -3.25 KCAL/MOL
REMARK 924 INTRA-LIGAND FREE ENERGY PREDICTED BY IDOCK:   -0.09 KCAL/MOL
REMARK 927      BINDING AFFINITY PREDICTED BY RF-SCORE:    0.00 PKD
ROOT
HETATM    1  N   UNL     1     -10.306  19.780  66.231  1.00  0.00    -0.490 NA 
HETATM    2  C   UNL     1      -8.979  19.254  66.553  1.00  0.00    -0.346 C  
HETATM    3  H1  UNL     1     -11.136  19.354  66.646  1.00  0.00     0.000 HD 
HETATM    4  H2  UNL     1     -10.416  19.782  65.217  1.00  0.00     0.000 HD 
HETATM    5  C   UNL     1      -7.761  19.878  65.944  1.00  0.00    -0.327 C  
HETATM    6  C   UNL     1      -8.041  20.068  67.418  1.00  0.00    -0.358 C  
ENDROOT
BRANCH   6   7
HETATM    7  C   UNL     1      -7.163  19.383  68.439  1.00  0.00    -0.345 A  
HETATM    8  C   UNL     1      -7.061  17.983  68.491  1.00  0.00    -0.257 A  
HETATM    9  C   UNL     1      -6.249  17.345  69.434  1.00  0.00    -0.250 A  
HETATM   10  C   UNL     1      -5.515  18.099  70.344  1.00  0.00    -0.251 A  
HETATM   11  C   UNL     1      -5.587  19.489  70.306  1.00  0.00    -0.269 A  
HETATM   12  C   UNL     1      -6.397  20.120  69.358  1.00  0.00    -0.353 A  
ENDBRANCH   6   7
TORSDOF 1
ENDMDL
MODEL      110
REMARK 921   NORMALIZED FREE ENERGY PREDICTED BY IDOCK:   -3.06 KCAL/MOL
REMARK 922        TOTAL FREE ENERGY PREDICTED BY IDOCK:   -3.33 KCAL/MOL
REMARK 923 INTER-LIGAND FREE ENERGY PREDICTED BY IDOCK:   -3.24 KCAL/MOL
REMARK 924 INTRA-LIGAND FREE ENERGY PREDICTED BY IDOCK:   -0.09 KCAL/MOL
REMARK 927      BINDING AFFINITY PREDICTED BY RF-SCORE:    0.00 PKD
ROOT
HETATM    1  N   UNL     1     -11.946  12.204  68.261  1.00  0.00    -0.422 NA 
HETATM    2  C   UNL     1     -11.592  10.804  68.500  1.00  0.00    -0.255 C  
HETATM    3  H1  UNL     1     -12.903  12.521  68.421  1.00  0.00     0.000 HD 
HETATM    4  H2  UNL     1     -11.681  12.446  67.306  1.00  0.00     0.000 HD 
HETATM    5  C   UNL     1     -10.189  10.339  68.264  1.00  0.00    -0.184 C  
HETATM    6  C   UNL     1     -10.713  10.446  69.679  1.00  0.00    -0.304 C  
ENDROOT
BRANCH   6   7
HETATM    7  C   UNL     1     -10.983   9.189  70.473  1.00  0.00    -0.307 A  
HETATM    8  C   UNL     1     -10.749   7.916  69.925  1.00  0.00    -0.244 A  
HETATM    9  C   UNL     1     -10.996   6.751  70.657  1.00  0.00    -0.313 A  
HETATM   10  C   UNL     1     -11.478   6.836  71.959  1.00  0.00    -0.317 A  
HETATM   11  C   UNL     1     -11.705   8.085  72.531  1.00  0.00    -0.446 A  
HETATM   12  C   UNL     1     -11.452   9.246  71.796  1.00  0.00    -0.448 A  
ENDBRANCH   6   7
TORSDOF 1
ENDMDL
MODEL      111
REMARK 921   NORMALIZED FREE ENERGY PREDICTED BY IDOCK:   -3.05 KCAL/MOL
REMARK 922        TOTAL FREE ENERGY PREDICTED BY IDOCK:   -3.32 KCAL/MOL
REMARK 923 INTER-LIGAND FREE ENERGY PREDICTED BY IDOCK:   -3.24 KCAL/MOL
REMARK 924 INTRA-LIGAND FREE ENERGY PREDICTED BY IDOCK:   -0.09 KCAL/MOL
REMARK 927      BINDING AFFINITY PREDICTED BY RF-SCORE:    0.00 PKD
ROOT
HETATM    1  N   UNL     1     -13.093  12.364  64.345  1.00  0.00    -0.811 NA 
HETATM    2  C   UNL     1     -11.822  12.595  65.032  1.00  0.00    -0.395 C  
HETATM    3  H1  UNL     1     -13.270  11.467  63.891  1.00  0.00     0.000 HD 
HETATM    4  H2  UNL     1     -13.230  13.107  63.659  1.00  0.00     0.000 HD 
HETATM    5  C   UNL     1     -11.563  13.911  65.698  1.00  0.00    -0.338 C  
HETATM    6  C   UNL     1     -11.793  12.678  66.544  1.00  0.00    -0.463 C  
ENDROOT
BRANCH   6   7
HETATM    7  C   UNL     1     -10.642  12.075  67.315  1.00  0.00    -0.252 A  
HETATM    8  C   UNL     1      -9.360  12.651  67.281  1.00  0.00    -0.195 A  
HETATM    9  C   UNL     1      -8.293  12.097  67.994  1.00  0.00    -0.167 A  
HETATM   10  C   UNL     1      -8.488  10.955  68.763  1.00  0.00    -0.150 A  
HETATM   11  C   UNL     1      -9.751  10.371  68.825  1.00  0.00    -0.184 A  
HETATM   12  C   UNL     1     -10.815  10.933  68.114  1.00  0.00    -0.283 A  
ENDBRANCH   6   7
TORSDOF 1
ENDMDL
MODEL      112
REMARK 921   NORMALIZED FREE ENERGY PREDICTED BY IDOCK:   -3.04 KCAL/MOL
REMARK 922        TOTAL FREE ENERGY PREDICTED BY IDOCK:   -3.31 KCAL/MOL
REMARK 923 INTER-LIGAND FREE ENERGY PREDICTED BY IDOCK:   -3.23 KCAL/MOL
REMARK 924 INTRA-LIGAND FREE ENERGY PREDICTED BY IDOCK:   -0.09 KCAL/MOL
REMARK 927      BINDING AFFINITY PREDICTED BY RF-SCORE:    0.00 PKD
ROOT
HETATM    1  N   UNL     1     -12.220  12.971  70.799  1.00  0.00    -0.463 NA 
HETATM    2  C   UNL     1     -12.117  14.196  70.004  1.00  0.00    -0.346 C  
HETATM    3  H1  UNL     1     -11.929  12.079  70.397  1.00  0.00     0.000 HD 
HETATM    4  H2  UNL     1     -13.181  12.880  71.129  1.00  0.00     0.000 HD 
HETATM    5  C   UNL     1     -12.543  15.505  70.593  1.00  0.00    -0.493 C  
HETATM    6  C   UNL     1     -11.073  15.234  70.361  1.00  0.00    -0.324 C  
ENDROOT
BRANCH   6   7
HETATM    7  C   UNL     1     -10.339  15.978  69.270  1.00  0.00    -0.251 A  
HETATM    8  C   UNL     1      -8.940  15.908  69.154  1.00  0.00    -0.256 A  
HETATM    9  C   UNL     1      -8.258  16.594  68.145  1.00  0.00    -0.192 A  
HETATM   10  C   UNL     1      -8.964  17.362  67.224  1.00  0.00    -0.241 A  
HETATM   11  C   UNL     1     -10.352  17.437  67.309  1.00  0.00    -0.336 A  
HETATM   12  C   UNL     1     -11.029  16.745  68.317  1.00  0.00    -0.327 A  
ENDBRANCH   6   7
TORSDOF 1
ENDMDL
MODEL      113
REMARK 921   NORMALIZED FREE ENERGY PREDICTED BY IDOCK:   -3.04 KCAL/MOL
REMARK 922        TOTAL FREE ENERGY PREDICTED BY IDOCK:   -3.31 KCAL/MOL
REMARK 923 INTER-LIGAND FREE ENERGY PREDICTED BY IDOCK:   -3.21 KCAL/MOL
REMARK 924 INTRA-LIGAND FREE ENERGY PREDICTED BY IDOCK:   -0.09 KCAL/MOL
REMARK 927      BINDING AFFINITY PREDICTED BY RF-SCORE:    0.00 PKD
ROOT
HETATM    1  N   UNL     1     -11.066   9.217  67.891  1.00  0.00    -0.493 NA 
HETATM    2  C   UNL     1     -10.397   8.772  69.114  1.00  0.00    -0.217 C  
HETATM    3  H1  UNL     1     -11.326   8.536  67.177  1.00  0.00     0.000 HD 
HETATM    4  H2  UNL     1     -10.494   9.941  67.455  1.00  0.00     0.000 HD 
HETATM    5  C   UNL     1     -10.016   9.771  70.162  1.00  0.00    -0.315 C  
HETATM    6  C   UNL     1     -11.146   8.802  70.430  1.00  0.00    -0.261 C  
ENDROOT
BRANCH   6   7
HETATM    7  C   UNL     1     -10.956   7.692  71.437  1.00  0.00    -0.257 A  
HETATM    8  C   UNL     1     -11.009   6.341  71.052  1.00  0.00    -0.340 A  
HETATM    9  C   UNL     1     -10.833   5.312  71.981  1.00  0.00    -0.230 A  
HETATM   10  C   UNL     1     -10.592   5.614  73.318  1.00  0.00    -0.280 A  
HETATM   11  C   UNL     1     -10.520   6.944  73.723  1.00  0.00    -0.390 A  
HETATM   12  C   UNL     1     -10.693   7.968  72.789  1.00  0.00    -0.431 A  
ENDBRANCH   6   7
TORSDOF 1
ENDMDL
MODEL      114
REMARK 921   NORMALIZED FREE ENERGY PREDICTED BY IDOCK:   -3.03 KCAL/MOL
REMARK 922        TOTAL FREE ENERGY PREDICTED BY IDOCK:   -3.30 KCAL/MOL
REMARK 923 INTER-LIGAND FREE ENERGY PREDICTED BY IDOCK:   -3.22 KCAL/MOL
REMARK 924 INTRA-LIGAND FREE ENERGY PREDICTED BY IDOCK:   -0.09 KCAL/MOL
REMARK 927      BINDING AFFINITY PREDICTED BY RF-SCORE:    0.00 PKD
ROOT
HETATM    1  N   UNL     1     -12.024  11.150  70.511  1.00  0.00    -0.361 NA 
HETATM    2  C   UNL     1     -11.697   9.924  71.240  1.00  0.00    -0.392 C  
HETATM    3  H1  UNL     1     -11.337  11.565  69.879  1.00  0.00     0.000 HD 
HETATM    4  H2  UNL     1     -12.313  11.859  71.185  1.00  0.00     0.000 HD 
HETATM    5  C   UNL     1     -12.704   9.316  72.166  1.00  0.00    -0.465 C  
HETATM    6  C   UNL     1     -12.377   8.625  70.861  1.00  0.00    -0.075 C  
ENDROOT
BRANCH   6   7
HETATM    7  C   UNL     1     -11.600   7.329  70.876  1.00  0.00    -0.331 A  
HETATM    8  C   UNL     1     -11.164   6.726  69.684  1.00  0.00    -0.345 A  
HETATM    9  C   UNL     1     -10.444   5.528  69.694  1.00  0.00    -0.379 A  
HETATM   10  C   UNL     1     -10.138   4.910  70.902  1.00  0.00    -0.292 A  
HETATM   11  C   UNL     1     -10.546   5.493  72.099  1.00  0.00    -0.280 A  
HETATM   12  C   UNL     1     -11.262   6.693  72.082  1.00  0.00    -0.299 A  
ENDBRANCH   6   7
TORSDOF 1
ENDMDL
MODEL      115
REMARK 921   NORMALIZED FREE ENERGY PREDICTED BY IDOCK:   -3.00 KCAL/MOL
REMARK 922        TOTAL FREE ENERGY PREDICTED BY IDOCK:   -3.27 KCAL/MOL
REMARK 923 INTER-LIGAND FREE ENERGY PREDICTED BY IDOCK:   -3.18 KCAL/MOL
REMARK 924 INTRA-LIGAND FREE ENERGY PREDICTED BY IDOCK:   -0.09 KCAL/MOL
REMARK 927      BINDING AFFINITY PREDICTED BY RF-SCORE:    0.00 PKD
ROOT
HETATM    1  N   UNL     1      -9.285  15.250  66.014  1.00  0.00    -0.414 NA 
HETATM    2  C   UNL     1      -9.397  14.545  67.292  1.00  0.00    -0.210 C  
HETATM    3  H1  UNL     1      -9.467  14.753  65.141  1.00  0.00     0.000 HD 
HETATM    4  H2  UNL     1      -8.359  15.673  65.958  1.00  0.00     0.000 HD 
HETATM    5  C   UNL     1      -9.130  15.274  68.572  1.00  0.00    -0.192 C  
HETATM    6  C   UNL     1     -10.545  14.867  68.226  1.00  0.00    -0.240 C  
ENDROOT
BRANCH   6   7
HETATM    7  C   UNL     1     -11.218  13.764  69.009  1.00  0.00    -0.313 A  
HETATM    8  C   UNL     1     -11.069  12.415  68.644  1.00  0.00    -0.297 A  
HETATM    9  C   UNL     1     -11.689  11.391  69.367  1.00  0.00    -0.406 A  
HETATM   10  C   UNL     1     -12.468  11.698  70.478  1.00  0.00    -0.344 A  
HETATM   11  C   UNL     1     -12.620  13.025  70.870  1.00  0.00    -0.364 A  
HETATM   12  C   UNL     1     -11.994  14.043  70.146  1.00  0.00    -0.399 A  
ENDBRANCH   6   7
TORSDOF 1
ENDMDL
MODEL      116
REMARK 921   NORMALIZED FREE ENERGY PREDICTED BY IDOCK:   -2.93 KCAL/MOL
REMARK 922        TOTAL FREE ENERGY PREDICTED BY IDOCK:   -3.20 KCAL/MOL
REMARK 923 INTER-LIGAND FREE ENERGY PREDICTED BY IDOCK:   -3.10 KCAL/MOL
REMARK 924 INTRA-LIGAND FREE ENERGY PREDICTED BY IDOCK:   -0.09 KCAL/MOL
REMARK 927      BINDING AFFINITY PREDICTED BY RF-SCORE:    0.00 PKD
ROOT
HETATM    1  N   UNL     1     -10.944  17.162  68.189  1.00  0.00    -0.314 NA 
HETATM    2  C   UNL     1     -10.373  15.816  68.252  1.00  0.00    -0.239 C  
HETATM    3  H1  UNL     1     -11.415  17.475  67.339  1.00  0.00     0.000 HD 
HETATM    4  H2  UNL     1     -10.213  17.835  68.420  1.00  0.00     0.000 HD 
HETATM    5  C   UNL     1      -9.683  15.356  69.499  1.00  0.00    -0.259 C  
HETATM    6  C   UNL     1     -11.026  14.767  69.129  1.00  0.00    -0.277 C  
ENDROOT
BRANCH   6   7
HETATM    7  C   UNL     1     -11.109  13.333  68.662  1.00  0.00    -0.301 A  
HETATM    8  C   UNL     1     -10.724  12.966  67.361  1.00  0.00    -0.252 A  
HETATM    9  C   UNL     1     -10.799  11.640  66.925  1.00  0.00    -0.322 A  
HETATM   10  C   UNL     1     -11.256  10.649  67.788  1.00  0.00    -0.383 A  
HETATM   11  C   UNL     1     -11.631  10.983  69.087  1.00  0.00    -0.389 A  
HETATM   12  C   UNL     1     -11.549  12.310  69.517  1.00  0.00    -0.366 A  
ENDBRANCH   6   7
TORSDOF 1
ENDMDL
MODEL      117
REMARK 921   NORMALIZED FREE ENERGY PREDICTED BY IDOCK:   -2.91 KCAL/MOL
REMARK 922        TOTAL FREE ENERGY PREDICTED BY IDOCK:   -3.18 KCAL/MOL
REMARK 923 INTER-LIGAND FREE ENERGY PREDICTED BY IDOCK:   -3.09 KCAL/MOL
REMARK 924 INTRA-LIGAND FREE ENERGY PREDICTED BY IDOCK:   -0.09 KCAL/MOL
REMARK 927      BINDING AFFINITY PREDICTED BY RF-SCORE:    0.00 PKD
ROOT
HETATM    1  N   UNL     1     -11.112   8.734  68.776  1.00  0.00    -0.421 NA 
HETATM    2  C   UNL     1     -10.802   8.152  70.082  1.00  0.00    -0.241 C  
HETATM    3  H1  UNL     1     -10.548   8.488  67.962  1.00  0.00     0.000 HD 
HETATM    4  H2  UNL     1     -11.120   9.751  68.869  1.00  0.00     0.000 HD 
HETATM    5  C   UNL     1     -11.630   8.513  71.276  1.00  0.00    -0.332 C  
HETATM    6  C   UNL     1     -11.739   7.126  70.685  1.00  0.00    -0.348 C  
ENDROOT
BRANCH   6   7
HETATM    7  C   UNL     1     -11.182   5.944  71.444  1.00  0.00    -0.285 A  
HETATM    8  C   UNL     1     -11.657   5.612  72.725  1.00  0.00    -0.289 A  
HETATM    9  C   UNL     1     -11.145   4.519  73.430  1.00  0.00    -0.408 A  
HETATM   10  C   UNL     1     -10.149   3.729  72.865  1.00  0.00    -0.222 A  
HETATM   11  C   UNL     1      -9.671   4.028  71.592  1.00  0.00    -0.242 A  
HETATM   12  C   UNL     1     -10.190   5.119  70.890  1.00  0.00    -0.299 A  
ENDBRANCH   6   7
TORSDOF 1
ENDMDL
MODEL      118
REMARK 921   NORMALIZED FREE ENERGY PREDICTED BY IDOCK:   -2.86 KCAL/MOL
REMARK 922        TOTAL FREE ENERGY PREDICTED BY IDOCK:   -3.12 KCAL/MOL
REMARK 923 INTER-LIGAND FREE ENERGY PREDICTED BY IDOCK:   -3.03 KCAL/MOL
REMARK 924 INTRA-LIGAND FREE ENERGY PREDICTED BY IDOCK:   -0.09 KCAL/MOL
REMARK 927      BINDING AFFINITY PREDICTED BY RF-SCORE:    0.00 PKD
ROOT
HETATM    1  N   UNL     1      -7.052  14.980  68.487  1.00  0.00    -0.106 NA 
HETATM    2  C   UNL     1      -7.801  14.344  67.403  1.00  0.00    -0.190 C  
HETATM    3  H1  UNL     1      -6.863  15.983  68.454  1.00  0.00     0.000 HD 
HETATM    4  H2  UNL     1      -6.166  14.487  68.600  1.00  0.00     0.000 HD 
HETATM    5  C   UNL     1      -8.079  12.873  67.451  1.00  0.00    -0.181 C  
HETATM    6  C   UNL     1      -9.212  13.854  67.656  1.00  0.00    -0.199 C  
ENDROOT
BRANCH   6   7
HETATM    7  C   UNL     1     -10.270  14.006  66.589  1.00  0.00    -0.275 A  
HETATM    8  C   UNL     1     -11.275  13.038  66.415  1.00  0.00    -0.332 A  
HETATM    9  C   UNL     1     -12.257  13.176  65.430  1.00  0.00    -0.510 A  
HETATM   10  C   UNL     1     -12.258  14.292  64.599  1.00  0.00    -0.470 A  
HETATM   11  C   UNL     1     -11.282  15.272  64.758  1.00  0.00    -0.405 A  
HETATM   12  C   UNL     1     -10.306  15.131  65.748  1.00  0.00    -0.359 A  
ENDBRANCH   6   7
TORSDOF 1
ENDMDL
MODEL      119
REMARK 921   NORMALIZED FREE ENERGY PREDICTED BY IDOCK:   -2.86 KCAL/MOL
REMARK 922        TOTAL FREE ENERGY PREDICTED BY IDOCK:   -3.11 KCAL/MOL
REMARK 923 INTER-LIGAND FREE ENERGY PREDICTED BY IDOCK:   -3.03 KCAL/MOL
REMARK 924 INTRA-LIGAND FREE ENERGY PREDICTED BY IDOCK:   -0.09 KCAL/MOL
REMARK 927      BINDING AFFINITY PREDICTED BY RF-SCORE:    0.00 PKD
ROOT
HETATM    1  N   UNL     1      -9.824   6.938  70.837  1.00  0.00    -0.185 NA 
HETATM    2  C   UNL     1     -10.718   8.061  70.551  1.00  0.00    -0.229 C  
HETATM    3  H1  UNL     1      -9.579   6.281  70.094  1.00  0.00     0.000 HD 
HETATM    4  H2  UNL     1     -10.208   6.411  71.622  1.00  0.00     0.000 HD 
HETATM    5  C   UNL     1     -11.078   9.024  71.640  1.00  0.00    -0.433 C  
HETATM    6  C   UNL     1     -10.163   9.470  70.520  1.00  0.00    -0.349 C  
ENDROOT
BRANCH   6   7
HETATM    7  C   UNL     1     -10.665  10.460  69.496  1.00  0.00    -0.284 A  
HETATM    8  C   UNL     1     -11.198  11.702  69.883  1.00  0.00    -0.140 A  
HETATM    9  C   UNL     1     -11.662  12.622  68.938  1.00  0.00    -0.370 A  
HETATM   10  C   UNL     1     -11.596  12.320  67.581  1.00  0.00    -0.421 A  
HETATM   11  C   UNL     1     -11.060  11.102  67.171  1.00  0.00    -0.352 A  
HETATM   12  C   UNL     1     -10.594  10.189  68.120  1.00  0.00    -0.262 A  
ENDBRANCH   6   7
TORSDOF 1
ENDMDL
MODEL      120
REMARK 921   NORMALIZED FREE ENERGY PREDICTED BY IDOCK:   -2.81 KCAL/MOL
REMARK 922        TOTAL FREE ENERGY PREDICTED BY IDOCK:   -3.07 KCAL/MOL
REMARK 923 INTER-LIGAND FREE ENERGY PREDICTED BY IDOCK:   -2.98 KCAL/MOL
REMARK 924 INTRA-LIGAND FREE ENERGY PREDICTED BY IDOCK:   -0.09 KCAL/MOL
REMARK 927      BINDING AFFINITY PREDICTED BY RF-SCORE:    0.00 PKD
ROOT
HETATM    1  N   UNL     1      -6.276  20.365  64.406  1.00  0.00    -0.285 NA 
HETATM    2  C   UNL     1      -6.550  19.300  65.372  1.00  0.00    -0.271 C  
HETATM    3  H1  UNL     1      -6.401  20.190  63.408  1.00  0.00     0.000 HD 
HETATM    4  H2  UNL     1      -5.326  20.704  64.560  1.00  0.00     0.000 HD 
HETATM    5  C   UNL     1      -6.368  19.555  66.836  1.00  0.00    -0.190 C  
HETATM    6  C   UNL     1      -7.763  19.401  66.273  1.00  0.00    -0.308 C  
ENDROOT
BRANCH   6   7
HETATM    7  C   UNL     1      -8.569  18.166  66.602  1.00  0.00    -0.284 A  
HETATM    8  C   UNL     1      -8.117  16.884  66.247  1.00  0.00    -0.351 A  
HETATM    9  C   UNL     1      -8.859  15.739  66.551  1.00  0.00    -0.345 A  
HETATM   10  C   UNL     1     -10.070  15.853  67.225  1.00  0.00    -0.260 A  
HETATM   11  C   UNL     1     -10.535  17.111  67.601  1.00  0.00    -0.355 A  
HETATM   12  C   UNL     1      -9.786  18.251  67.298  1.00  0.00    -0.327 A  
ENDBRANCH   6   7
TORSDOF 1
ENDMDL
MODEL      121
REMARK 921   NORMALIZED FREE ENERGY PREDICTED BY IDOCK:   -2.76 KCAL/MOL
REMARK 922        TOTAL FREE ENERGY PREDICTED BY IDOCK:   -3.01 KCAL/MOL
REMARK 923 INTER-LIGAND FREE ENERGY PREDICTED BY IDOCK:   -2.92 KCAL/MOL
REMARK 924 INTRA-LIGAND FREE ENERGY PREDICTED BY IDOCK:   -0.09 KCAL/MOL
REMARK 927      BINDING AFFINITY PREDICTED BY RF-SCORE:    0.00 PKD
ROOT
HETATM    1  N   UNL     1      -7.192  16.068  68.632  1.00  0.00    -0.138 NA 
HETATM    2  C   UNL     1      -8.420  15.272  68.595  1.00  0.00    -0.168 C  
HETATM    3  H1  UNL     1      -6.333  15.695  68.227  1.00  0.00     0.000 HD 
HETATM    4  H2  UNL     1      -7.007  16.331  69.600  1.00  0.00     0.000 HD 
HETATM    5  C   UNL     1      -9.681  15.819  69.188  1.00  0.00    -0.250 C  
HETATM    6  C   UNL     1      -9.557  15.692  67.686  1.00  0.00    -0.220 C  
ENDROOT
BRANCH   6   7
HETATM    7  C   UNL     1     -10.368  14.648  66.955  1.00  0.00    -0.263 A  
HETATM    8  C   UNL     1     -11.750  14.809  66.752  1.00  0.00    -0.309 A  
HETATM    9  C   UNL     1     -12.504  13.846  66.075  1.00  0.00    -0.501 A  
HETATM   10  C   UNL     1     -11.888  12.701  65.580  1.00  0.00    -0.479 A  
HETATM   11  C   UNL     1     -10.518  12.523  65.755  1.00  0.00    -0.296 A  
HETATM   12  C   UNL     1      -9.769  13.492  66.429  1.00  0.00    -0.296 A  
ENDBRANCH   6   7
TORSDOF 1
ENDMDL
MODEL      122
REMARK 921   NORMALIZED FREE ENERGY PREDICTED BY IDOCK:   -2.70 KCAL/MOL
REMARK 922        TOTAL FREE ENERGY PREDICTED BY IDOCK:   -2.95 KCAL/MOL
REMARK 923 INTER-LIGAND FREE ENERGY PREDICTED BY IDOCK:   -2.86 KCAL/MOL
REMARK 924 INTRA-LIGAND FREE ENERGY PREDICTED BY IDOCK:   -0.09 KCAL/MOL
REMARK 927      BINDING AFFINITY PREDICTED BY RF-SCORE:    0.00 PKD
ROOT
HETATM    1  N   UNL     1     -10.558   6.803  66.670  1.00  0.00    -0.505 NA 
HETATM    2  C   UNL     1     -10.557   5.913  67.832  1.00  0.00    -0.251 C  
HETATM    3  H1  UNL     1     -11.425   7.257  66.378  1.00  0.00     0.000 HD 
HETATM    4  H2  UNL     1     -10.174   6.295  65.873  1.00  0.00     0.000 HD 
HETATM    5  C   UNL     1      -9.286   5.248  68.261  1.00  0.00    -0.132 C  
HETATM    6  C   UNL     1      -9.874   6.353  69.110  1.00  0.00    -0.158 C  
ENDROOT
BRANCH   6   7
HETATM    7  C   UNL     1     -10.485   6.019  70.451  1.00  0.00    -0.307 A  
HETATM    8  C   UNL     1     -11.640   6.677  70.910  1.00  0.00    -0.416 A  
HETATM    9  C   UNL     1     -12.209   6.370  72.149  1.00  0.00    -0.278 A  
HETATM   10  C   UNL     1     -11.637   5.391  72.955  1.00  0.00    -0.296 A  
HETATM   11  C   UNL     1     -10.500   4.715  72.518  1.00  0.00    -0.257 A  
HETATM   12  C   UNL     1      -9.939   5.023  71.277  1.00  0.00    -0.264 A  
ENDBRANCH   6   7
TORSDOF 1
ENDMDL
MODEL      123
REMARK 921   NORMALIZED FREE ENERGY PREDICTED BY IDOCK:   -2.70 KCAL/MOL
REMARK 922        TOTAL FREE ENERGY PREDICTED BY IDOCK:   -2.95 KCAL/MOL
REMARK 923 INTER-LIGAND FREE ENERGY PREDICTED BY IDOCK:   -2.86 KCAL/MOL
REMARK 924 INTRA-LIGAND FREE ENERGY PREDICTED BY IDOCK:   -0.09 KCAL/MOL
REMARK 927      BINDING AFFINITY PREDICTED BY RF-SCORE:    0.00 PKD
ROOT
HETATM    1  N   UNL     1      -6.696  12.892  66.979  1.00  0.00    -0.449 NA 
HETATM    2  C   UNL     1      -7.535  13.624  67.928  1.00  0.00    -0.158 C  
HETATM    3  H1  UNL     1      -6.591  11.880  67.067  1.00  0.00     0.000 HD 
HETATM    4  H2  UNL     1      -5.767  13.314  66.975  1.00  0.00     0.000 HD 
HETATM    5  C   UNL     1      -7.688  15.108  67.798  1.00  0.00    -0.164 C  
HETATM    6  C   UNL     1      -8.855  14.204  67.467  1.00  0.00    -0.202 C  
ENDROOT
BRANCH   6   7
HETATM    7  C   UNL     1     -10.058  14.173  68.380  1.00  0.00    -0.238 A  
HETATM    8  C   UNL     1     -10.497  15.329  69.049  1.00  0.00    -0.248 A  
HETATM    9  C   UNL     1     -11.610  15.304  69.894  1.00  0.00    -0.335 A  
HETATM   10  C   UNL     1     -12.314  14.119  70.083  1.00  0.00    -0.413 A  
HETATM   11  C   UNL     1     -11.909  12.962  69.421  1.00  0.00    -0.371 A  
HETATM   12  C   UNL     1     -10.798  12.995  68.575  1.00  0.00    -0.282 A  
ENDBRANCH   6   7
TORSDOF 1
ENDMDL
MODEL      124
REMARK 921   NORMALIZED FREE ENERGY PREDICTED BY IDOCK:   -2.69 KCAL/MOL
REMARK 922        TOTAL FREE ENERGY PREDICTED BY IDOCK:   -2.94 KCAL/MOL
REMARK 923 INTER-LIGAND FREE ENERGY PREDICTED BY IDOCK:   -2.85 KCAL/MOL
REMARK 924 INTRA-LIGAND FREE ENERGY PREDICTED BY IDOCK:   -0.09 KCAL/MOL
REMARK 927      BINDING AFFINITY PREDICTED BY RF-SCORE:    0.00 PKD
ROOT
HETATM    1  N   UNL     1     -11.224   6.399  67.443  1.00  0.00    -0.675 NA 
HETATM    2  C   UNL     1     -10.909   7.803  67.177  1.00  0.00    -0.156 C  
HETATM    3  H1  UNL     1     -11.983   5.944  66.934  1.00  0.00     0.000 HD 
HETATM    4  H2  UNL     1     -11.393   6.289  68.443  1.00  0.00     0.000 HD 
HETATM    5  C   UNL     1      -9.796   8.472  67.923  1.00  0.00    -0.208 C  
HETATM    6  C   UNL     1      -9.627   8.158  66.453  1.00  0.00    -0.286 C  
ENDROOT
BRANCH   6   7
HETATM    7  C   UNL     1      -9.611   9.284  65.446  1.00  0.00    -0.237 A  
HETATM    8  C   UNL     1      -8.820   9.214  64.286  1.00  0.00    -0.139 A  
HETATM    9  C   UNL     1      -8.804  10.253  63.351  1.00  0.00    -0.227 A  
HETATM   10  C   UNL     1      -9.586  11.385  63.555  1.00  0.00    -0.315 A  
HETATM   11  C   UNL     1     -10.389  11.474  64.689  1.00  0.00    -0.349 A  
HETATM   12  C   UNL     1     -10.404  10.430  65.617  1.00  0.00    -0.260 A  
ENDBRANCH   6   7
TORSDOF 1
ENDMDL
MODEL      125
REMARK 921   NORMALIZED FREE ENERGY PREDICTED BY IDOCK:   -2.68 KCAL/MOL
REMARK 922        TOTAL FREE ENERGY PREDICTED BY IDOCK:   -2.93 KCAL/MOL
REMARK 923 INTER-LIGAND FREE ENERGY PREDICTED BY IDOCK:   -2.84 KCAL/MOL
REMARK 924 INTRA-LIGAND FREE ENERGY PREDICTED BY IDOCK:   -0.09 KCAL/MOL
REMARK 927      BINDING AFFINITY PREDICTED BY RF-SCORE:    0.00 PKD
ROOT
HETATM    1  N   UNL     1     -11.801   7.697  72.963  1.00  0.00    -0.598 NA 
HETATM    2  C   UNL     1     -11.706   8.223  71.601  1.00  0.00    -0.292 C  
HETATM    3  H1  UNL     1     -11.853   6.689  73.117  1.00  0.00     0.000 HD 
HETATM    4  H2  UNL     1     -12.598   8.137  73.425  1.00  0.00     0.000 HD 
HETATM    5  C   UNL     1     -11.629   9.701  71.375  1.00  0.00    -0.472 C  
HETATM    6  C   UNL     1     -10.408   8.843  71.127  1.00  0.00    -0.338 C  
ENDROOT
BRANCH   6   7
HETATM    7  C   UNL     1      -9.930   8.615  69.712  1.00  0.00    -0.190 A  
HETATM    8  C   UNL     1     -10.661   9.093  68.610  1.00  0.00    -0.207 A  
HETATM    9  C   UNL     1     -10.221   8.885  67.300  1.00  0.00    -0.326 A  
HETATM   10  C   UNL     1      -9.034   8.198  67.064  1.00  0.00    -0.160 A  
HETATM   11  C   UNL     1      -8.284   7.727  68.138  1.00  0.00    -0.124 A  
HETATM   12  C   UNL     1      -8.727   7.941  69.446  1.00  0.00    -0.138 A  
ENDBRANCH   6   7
TORSDOF 1
ENDMDL
MODEL      126
REMARK 921   NORMALIZED FREE ENERGY PREDICTED BY IDOCK:   -2.67 KCAL/MOL
REMARK 922        TOTAL FREE ENERGY PREDICTED BY IDOCK:   -2.92 KCAL/MOL
REMARK 923 INTER-LIGAND FREE ENERGY PREDICTED BY IDOCK:   -2.83 KCAL/MOL
REMARK 924 INTRA-LIGAND FREE ENERGY PREDICTED BY IDOCK:   -0.09 KCAL/MOL
REMARK 927      BINDING AFFINITY PREDICTED BY RF-SCORE:    0.00 PKD
ROOT
HETATM    1  N   UNL     1      -9.811  11.041  67.354  1.00  0.00    -0.172 NA 
HETATM    2  C   UNL     1      -9.830   9.880  68.246  1.00  0.00    -0.147 C  
HETATM    3  H1  UNL     1     -10.672  11.559  67.177  1.00  0.00     0.000 HD 
HETATM    4  H2  UNL     1      -9.415  10.754  66.459  1.00  0.00     0.000 HD 
HETATM    5  C   UNL     1      -8.567   9.119  68.507  1.00  0.00    -0.129 C  
HETATM    6  C   UNL     1      -9.167   9.970  69.605  1.00  0.00    -0.236 C  
ENDROOT
BRANCH   6   7
HETATM    7  C   UNL     1      -9.800   9.304  70.803  1.00  0.00    -0.350 A  
HETATM    8  C   UNL     1     -11.192   9.327  71.000  1.00  0.00    -0.392 A  
HETATM    9  C   UNL     1     -11.782   8.711  72.108  1.00  0.00    -0.442 A  
HETATM   10  C   UNL     1     -10.990   8.051  73.041  1.00  0.00    -0.310 A  
HETATM   11  C   UNL     1      -9.609   8.002  72.864  1.00  0.00    -0.348 A  
HETATM   12  C   UNL     1      -9.026   8.615  71.752  1.00  0.00    -0.307 A  
ENDBRANCH   6   7
TORSDOF 1
ENDMDL
MODEL      127
REMARK 921   NORMALIZED FREE ENERGY PREDICTED BY IDOCK:   -2.64 KCAL/MOL
REMARK 922        TOTAL FREE ENERGY PREDICTED BY IDOCK:   -2.89 KCAL/MOL
REMARK 923 INTER-LIGAND FREE ENERGY PREDICTED BY IDOCK:   -2.80 KCAL/MOL
REMARK 924 INTRA-LIGAND FREE ENERGY PREDICTED BY IDOCK:   -0.09 KCAL/MOL
REMARK 927      BINDING AFFINITY PREDICTED BY RF-SCORE:    0.00 PKD
ROOT
HETATM    1  N   UNL     1      -6.805   6.064  73.108  1.00  0.00    -0.078 NA 
HETATM    2  C   UNL     1      -8.180   6.478  73.393  1.00  0.00    -0.115 C  
HETATM    3  H1  UNL     1      -6.632   5.227  72.549  1.00  0.00     0.000 HD 
HETATM    4  H2  UNL     1      -6.305   5.971  73.993  1.00  0.00     0.000 HD 
HETATM    5  C   UNL     1      -8.434   7.704  74.214  1.00  0.00    -0.282 C  
HETATM    6  C   UNL     1      -8.739   7.720  72.732  1.00  0.00    -0.208 C  
ENDROOT
BRANCH   6   7
HETATM    7  C   UNL     1     -10.175   7.750  72.266  1.00  0.00    -0.285 A  
HETATM    8  C   UNL     1     -10.782   8.948  71.849  1.00  0.00    -0.426 A  
HETATM    9  C   UNL     1     -12.111   8.979  71.416  1.00  0.00    -0.392 A  
HETATM   10  C   UNL     1     -12.861   7.808  71.384  1.00  0.00    -0.328 A  
HETATM   11  C   UNL     1     -12.280   6.605  71.778  1.00  0.00    -0.400 A  
HETATM   12  C   UNL     1     -10.950   6.580  72.206  1.00  0.00    -0.281 A  
ENDBRANCH   6   7
TORSDOF 1
ENDMDL
MODEL      128
REMARK 921   NORMALIZED FREE ENERGY PREDICTED BY IDOCK:   -2.64 KCAL/MOL
REMARK 922        TOTAL FREE ENERGY PREDICTED BY IDOCK:   -2.88 KCAL/MOL
REMARK 923 INTER-LIGAND FREE ENERGY PREDICTED BY IDOCK:   -2.80 KCAL/MOL
REMARK 924 INTRA-LIGAND FREE ENERGY PREDICTED BY IDOCK:   -0.09 KCAL/MOL
REMARK 927      BINDING AFFINITY PREDICTED BY RF-SCORE:    0.00 PKD
ROOT
HETATM    1  N   UNL     1      -9.924   4.655  69.604  1.00  0.00    -0.224 NA 
HETATM    2  C   UNL     1     -10.723   5.881  69.582  1.00  0.00    -0.345 C  
HETATM    3  H1  UNL     1      -9.723   4.163  68.732  1.00  0.00     0.000 HD 
HETATM    4  H2  UNL     1     -10.357   3.999  70.254  1.00  0.00     0.000 HD 
HETATM    5  C   UNL     1     -11.017   6.603  70.860  1.00  0.00    -0.315 C  
HETATM    6  C   UNL     1     -10.057   7.213  69.862  1.00  0.00    -0.197 C  
ENDROOT
BRANCH   6   7
HETATM    7  C   UNL     1     -10.467   8.443  69.088  1.00  0.00    -0.218 A  
HETATM    8  C   UNL     1     -11.002   9.569  69.738  1.00  0.00    -0.245 A  
HETATM    9  C   UNL     1     -11.381  10.710  69.025  1.00  0.00    -0.340 A  
HETATM   10  C   UNL     1     -11.227  10.751  67.643  1.00  0.00    -0.370 A  
HETATM   11  C   UNL     1     -10.686   9.655  66.976  1.00  0.00    -0.225 A  
HETATM   12  C   UNL     1     -10.305   8.519  67.695  1.00  0.00    -0.317 A  
ENDBRANCH   6   7
TORSDOF 1
ENDMDL
MODEL      129
REMARK 921   NORMALIZED FREE ENERGY PREDICTED BY IDOCK:   -2.62 KCAL/MOL
REMARK 922        TOTAL FREE ENERGY PREDICTED BY IDOCK:   -2.87 KCAL/MOL
REMARK 923 INTER-LIGAND FREE ENERGY PREDICTED BY IDOCK:   -2.78 KCAL/MOL
REMARK 924 INTRA-LIGAND FREE ENERGY PREDICTED BY IDOCK:   -0.09 KCAL/MOL
REMARK 927      BINDING AFFINITY PREDICTED BY RF-SCORE:    0.00 PKD
ROOT
HETATM    1  N   UNL     1      -9.078   4.527  67.882  1.00  0.00    -0.117 NA 
HETATM    2  C   UNL     1      -9.833   4.851  69.094  1.00  0.00    -0.193 C  
HETATM    3  H1  UNL     1      -9.456   4.773  66.967  1.00  0.00     0.000 HD 
HETATM    4  H2  UNL     1      -8.869   3.529  67.889  1.00  0.00     0.000 HD 
HETATM    5  C   UNL     1      -9.278   4.491  70.437  1.00  0.00    -0.194 C  
HETATM    6  C   UNL     1      -9.333   5.943  70.017  1.00  0.00    -0.171 C  
ENDROOT
BRANCH   6   7
HETATM    7  C   UNL     1     -10.312   6.877  70.687  1.00  0.00    -0.220 A  
HETATM    8  C   UNL     1      -9.883   8.068  71.297  1.00  0.00    -0.200 A  
HETATM    9  C   UNL     1     -10.786   8.937  71.917  1.00  0.00    -0.433 A  
HETATM   10  C   UNL     1     -12.144   8.633  71.933  1.00  0.00    -0.422 A  
HETATM   11  C   UNL     1     -12.598   7.466  71.323  1.00  0.00    -0.376 A  
HETATM   12  C   UNL     1     -11.690   6.605  70.702  1.00  0.00    -0.452 A  
ENDBRANCH   6   7
TORSDOF 1
ENDMDL
MODEL      130
REMARK 921   NORMALIZED FREE ENERGY PREDICTED BY IDOCK:   -2.59 KCAL/MOL
REMARK 922        TOTAL FREE ENERGY PREDICTED BY IDOCK:   -2.83 KCAL/MOL
REMARK 923 INTER-LIGAND FREE ENERGY PREDICTED BY IDOCK:   -2.74 KCAL/MOL
REMARK 924 INTRA-LIGAND FREE ENERGY PREDICTED BY IDOCK:   -0.09 KCAL/MOL
REMARK 927      BINDING AFFINITY PREDICTED BY RF-SCORE:    0.00 PKD
ROOT
HETATM    1  N   UNL     1      -6.495   9.332  71.987  1.00  0.00    -0.293 NA 
HETATM    2  C   UNL     1      -7.453   8.228  71.937  1.00  0.00    -0.098 C  
HETATM    3  H1  UNL     1      -6.322   9.894  71.152  1.00  0.00     0.000 HD 
HETATM    4  H2  UNL     1      -5.602   8.970  72.324  1.00  0.00     0.000 HD 
HETATM    5  C   UNL     1      -7.707   7.404  73.161  1.00  0.00    -0.110 C  
HETATM    6  C   UNL     1      -8.776   8.352  72.665  1.00  0.00    -0.267 C  
ENDROOT
BRANCH   6   7
HETATM    7  C   UNL     1     -10.037   7.797  72.047  1.00  0.00    -0.244 A  
HETATM    8  C   UNL     1     -11.305   8.274  72.422  1.00  0.00    -0.457 A  
HETATM    9  C   UNL     1     -12.474   7.764  71.851  1.00  0.00    -0.343 A  
HETATM   10  C   UNL     1     -12.399   6.766  70.884  1.00  0.00    -0.336 A  
HETATM   11  C   UNL     1     -11.155   6.285  70.484  1.00  0.00    -0.399 A  
HETATM   12  C   UNL     1      -9.990   6.802  71.056  1.00  0.00    -0.196 A  
ENDBRANCH   6   7
TORSDOF 1
ENDMDL
MODEL      131
REMARK 921   NORMALIZED FREE ENERGY PREDICTED BY IDOCK:   -2.57 KCAL/MOL
REMARK 922        TOTAL FREE ENERGY PREDICTED BY IDOCK:   -2.81 KCAL/MOL
REMARK 923 INTER-LIGAND FREE ENERGY PREDICTED BY IDOCK:   -2.72 KCAL/MOL
REMARK 924 INTRA-LIGAND FREE ENERGY PREDICTED BY IDOCK:   -0.09 KCAL/MOL
REMARK 927      BINDING AFFINITY PREDICTED BY RF-SCORE:    0.00 PKD
ROOT
HETATM    1  N   UNL     1      -9.916  10.087  64.682  1.00  0.00    -0.391 NA 
HETATM    2  C   UNL     1     -10.531  10.376  65.977  1.00  0.00    -0.140 C  
HETATM    3  H1  UNL     1     -10.229  10.585  63.847  1.00  0.00     0.000 HD 
HETATM    4  H2  UNL     1      -9.986   9.085  64.506  1.00  0.00     0.000 HD 
HETATM    5  C   UNL     1     -10.071   9.646  67.201  1.00  0.00    -0.276 C  
HETATM    6  C   UNL     1      -9.737  11.112  67.036  1.00  0.00    -0.210 C  
ENDROOT
BRANCH   6   7
HETATM    7  C   UNL     1     -10.412  12.136  67.917  1.00  0.00    -0.224 A  
HETATM    8  C   UNL     1      -9.982  13.474  67.942  1.00  0.00    -0.245 A  
HETATM    9  C   UNL     1     -10.606  14.425  68.755  1.00  0.00    -0.256 A  
HETATM   10  C   UNL     1     -11.681  14.058  69.557  1.00  0.00    -0.367 A  
HETATM   11  C   UNL     1     -12.136  12.742  69.541  1.00  0.00    -0.265 A  
HETATM   12  C   UNL     1     -11.511  11.797  68.723  1.00  0.00    -0.350 A  
ENDBRANCH   6   7
TORSDOF 1
ENDMDL
MODEL      132
REMARK 921   NORMALIZED FREE ENERGY PREDICTED BY IDOCK:   -2.56 KCAL/MOL
REMARK 922        TOTAL FREE ENERGY PREDICTED BY IDOCK:   -2.81 KCAL/MOL
REMARK 923 INTER-LIGAND FREE ENERGY PREDICTED BY IDOCK:   -2.72 KCAL/MOL
REMARK 924 INTRA-LIGAND FREE ENERGY PREDICTED BY IDOCK:   -0.09 KCAL/MOL
REMARK 927      BINDING AFFINITY PREDICTED BY RF-SCORE:    0.00 PKD
ROOT
HETATM    1  N   UNL     1     -10.499  20.089  69.196  1.00  0.00    -0.527 NA 
HETATM    2  C   UNL     1      -9.843  18.805  68.944  1.00  0.00    -0.365 C  
HETATM    3  H1  UNL     1     -10.284  20.612  70.045  1.00  0.00     0.000 HD 
HETATM    4  H2  UNL     1     -11.509  19.950  69.148  1.00  0.00     0.000 HD 
HETATM    5  C   UNL     1     -10.158  18.037  67.699  1.00  0.00    -0.352 C  
HETATM    6  C   UNL     1      -8.806  18.698  67.846  1.00  0.00    -0.308 C  
ENDROOT
BRANCH   6   7
HETATM    7  C   UNL     1      -7.575  17.844  68.045  1.00  0.00    -0.238 A  
HETATM    8  C   UNL     1      -6.713  18.051  69.136  1.00  0.00    -0.249 A  
HETATM    9  C   UNL     1      -5.574  17.262  69.324  1.00  0.00    -0.180 A  
HETATM   10  C   UNL     1      -5.277  16.243  68.424  1.00  0.00    -0.105 A  
HETATM   11  C   UNL     1      -6.121  16.009  67.342  1.00  0.00    -0.173 A  
HETATM   12  C   UNL     1      -7.261  16.797  67.163  1.00  0.00    -0.220 A  
ENDBRANCH   6   7
TORSDOF 1
ENDMDL
MODEL      133
REMARK 921   NORMALIZED FREE ENERGY PREDICTED BY IDOCK:   -2.54 KCAL/MOL
REMARK 922        TOTAL FREE ENERGY PREDICTED BY IDOCK:   -2.78 KCAL/MOL
REMARK 923 INTER-LIGAND FREE ENERGY PREDICTED BY IDOCK:   -2.69 KCAL/MOL
REMARK 924 INTRA-LIGAND FREE ENERGY PREDICTED BY IDOCK:   -0.09 KCAL/MOL
REMARK 927      BINDING AFFINITY PREDICTED BY RF-SCORE:    0.00 PKD
ROOT
HETATM    1  N   UNL     1      -6.999  14.424  70.114  1.00  0.00    -0.398 NA 
HETATM    2  C   UNL     1      -7.192  15.359  69.004  1.00  0.00    -0.153 C  
HETATM    3  H1  UNL     1      -6.130  14.443  70.649  1.00  0.00     0.000 HD 
HETATM    4  H2  UNL     1      -7.144  13.476  69.766  1.00  0.00     0.000 HD 
HETATM    5  C   UNL     1      -8.467  15.331  68.219  1.00  0.00    -0.154 C  
HETATM    6  C   UNL     1      -8.186  16.493  69.147  1.00  0.00    -0.159 C  
ENDROOT
BRANCH   6   7
HETATM    7  C   UNL     1      -7.874  17.852  68.567  1.00  0.00    -0.301 A  
HETATM    8  C   UNL     1      -8.533  18.325  67.420  1.00  0.00    -0.249 A  
HETATM    9  C   UNL     1      -8.248  19.583  66.881  1.00  0.00    -0.310 A  
HETATM   10  C   UNL     1      -7.298  20.400  67.486  1.00  0.00    -0.356 A  
HETATM   11  C   UNL     1      -6.640  19.962  68.633  1.00  0.00    -0.334 A  
HETATM   12  C   UNL     1      -6.933  18.705  69.168  1.00  0.00    -0.275 A  
ENDBRANCH   6   7
TORSDOF 1
ENDMDL
MODEL      134
REMARK 921   NORMALIZED FREE ENERGY PREDICTED BY IDOCK:   -2.53 KCAL/MOL
REMARK 922        TOTAL FREE ENERGY PREDICTED BY IDOCK:   -2.77 KCAL/MOL
REMARK 923 INTER-LIGAND FREE ENERGY PREDICTED BY IDOCK:   -2.69 KCAL/MOL
REMARK 924 INTRA-LIGAND FREE ENERGY PREDICTED BY IDOCK:   -0.09 KCAL/MOL
REMARK 927      BINDING AFFINITY PREDICTED BY RF-SCORE:    0.00 PKD
ROOT
HETATM    1  N   UNL     1      -6.284  11.301  67.582  1.00  0.00    -0.052 NA 
HETATM    2  C   UNL     1      -7.146  11.407  66.404  1.00  0.00     0.000 C  
HETATM    3  H1  UNL     1      -6.190  12.095  68.217  1.00  0.00     0.000 HD 
HETATM    4  H2  UNL     1      -5.352  11.019  67.277  1.00  0.00     0.000 HD 
HETATM    5  C   UNL     1      -7.284  10.243  65.473  1.00  0.00    -0.149 C  
HETATM    6  C   UNL     1      -8.447  10.634  66.358  1.00  0.00    -0.152 C  
ENDROOT
BRANCH   6   7
HETATM    7  C   UNL     1      -9.678  11.256  65.741  1.00  0.00    -0.263 A  
HETATM    8  C   UNL     1      -9.948  11.131  64.367  1.00  0.00    -0.354 A  
HETATM    9  C   UNL     1     -11.086  11.704  63.793  1.00  0.00    -0.499 A  
HETATM   10  C   UNL     1     -11.984  12.412  64.585  1.00  0.00    -0.462 A  
HETATM   11  C   UNL     1     -11.748  12.540  65.952  1.00  0.00    -0.480 A  
HETATM   12  C   UNL     1     -10.610  11.960  66.520  1.00  0.00    -0.278 A  
ENDBRANCH   6   7
TORSDOF 1
ENDMDL
MODEL      135
REMARK 921   NORMALIZED FREE ENERGY PREDICTED BY IDOCK:   -2.46 KCAL/MOL
REMARK 922        TOTAL FREE ENERGY PREDICTED BY IDOCK:   -2.70 KCAL/MOL
REMARK 923 INTER-LIGAND FREE ENERGY PREDICTED BY IDOCK:   -2.61 KCAL/MOL
REMARK 924 INTRA-LIGAND FREE ENERGY PREDICTED BY IDOCK:   -0.09 KCAL/MOL
REMARK 927      BINDING AFFINITY PREDICTED BY RF-SCORE:    0.00 PKD
ROOT
HETATM    1  N   UNL     1     -10.504  13.041  69.323  1.00  0.00    -0.420 NA 
HETATM    2  C   UNL     1     -10.701  12.316  68.067  1.00  0.00    -0.218 C  
HETATM    3  H1  UNL     1      -9.822  12.703  70.004  1.00  0.00     0.000 HD 
HETATM    4  H2  UNL     1     -11.407  13.133  69.788  1.00  0.00     0.000 HD 
HETATM    5  C   UNL     1     -11.700  12.812  67.068  1.00  0.00    -0.440 C  
HETATM    6  C   UNL     1     -10.223  12.929  66.767  1.00  0.00    -0.243 C  
ENDROOT
BRANCH   6   7
HETATM    7  C   UNL     1      -9.607  12.056  65.698  1.00  0.00    -0.205 A  
HETATM    8  C   UNL     1      -8.524  11.208  65.984  1.00  0.00    -0.138 A  
HETATM    9  C   UNL     1      -7.952  10.398  64.998  1.00  0.00    -0.126 A  
HETATM   10  C   UNL     1      -8.459  10.416  63.703  1.00  0.00    -0.168 A  
HETATM   11  C   UNL     1      -9.541  11.237  63.396  1.00  0.00    -0.351 A  
HETATM   12  C   UNL     1     -10.111  12.041  64.387  1.00  0.00    -0.298 A  
ENDBRANCH   6   7
TORSDOF 1
ENDMDL
MODEL      136
REMARK 921   NORMALIZED FREE ENERGY PREDICTED BY IDOCK:   -2.43 KCAL/MOL
REMARK 922        TOTAL FREE ENERGY PREDICTED BY IDOCK:   -2.66 KCAL/MOL
REMARK 923 INTER-LIGAND FREE ENERGY PREDICTED BY IDOCK:   -2.58 KCAL/MOL
REMARK 924 INTRA-LIGAND FREE ENERGY PREDICTED BY IDOCK:   -0.09 KCAL/MOL
REMARK 927      BINDING AFFINITY PREDICTED BY RF-SCORE:    0.00 PKD
ROOT
HETATM    1  N   UNL     1     -11.526  10.287  67.860  1.00  0.00    -0.652 NA 
HETATM    2  C   UNL     1     -10.768  10.119  69.100  1.00  0.00    -0.226 C  
HETATM    3  H1  UNL     1     -11.070  10.133  66.960  1.00  0.00     0.000 HD 
HETATM    4  H2  UNL     1     -11.941  11.219  67.857  1.00  0.00     0.000 HD 
HETATM    5  C   UNL     1     -11.439  10.344  70.420  1.00  0.00    -0.420 C  
HETATM    6  C   UNL     1     -11.063   8.940  70.003  1.00  0.00    -0.180 C  
ENDROOT
BRANCH   6   7
HETATM    7  C   UNL     1      -9.935   8.227  70.712  1.00  0.00    -0.217 A  
HETATM    8  C   UNL     1      -9.208   8.853  71.740  1.00  0.00    -0.279 A  
HETATM    9  C   UNL     1      -8.164   8.196  72.398  1.00  0.00    -0.206 A  
HETATM   10  C   UNL     1      -7.830   6.893  72.046  1.00  0.00    -0.095 A  
HETATM   11  C   UNL     1      -8.543   6.244  71.041  1.00  0.00    -0.132 A  
HETATM   12  C   UNL     1      -9.588   6.905  70.390  1.00  0.00    -0.171 A  
ENDBRANCH   6   7
TORSDOF 1
ENDMDL
MODEL      137
REMARK 921   NORMALIZED FREE ENERGY PREDICTED BY IDOCK:   -2.40 KCAL/MOL
REMARK 922        TOTAL FREE ENERGY PREDICTED BY IDOCK:   -2.63 KCAL/MOL
REMARK 923 INTER-LIGAND FREE ENERGY PREDICTED BY IDOCK:   -2.54 KCAL/MOL
REMARK 924 INTRA-LIGAND FREE ENERGY PREDICTED BY IDOCK:   -0.09 KCAL/MOL
REMARK 927      BINDING AFFINITY PREDICTED BY RF-SCORE:    0.00 PKD
ROOT
HETATM    1  N   UNL     1      -9.112  10.523  65.821  1.00  0.00    -0.171 NA 
HETATM    2  C   UNL     1     -10.034   9.738  66.643  1.00  0.00    -0.229 C  
HETATM    3  H1  UNL     1      -9.175  11.542  65.819  1.00  0.00     0.000 HD 
HETATM    4  H2  UNL     1      -9.177  10.193  64.858  1.00  0.00     0.000 HD 
HETATM    5  C   UNL     1      -9.943   8.244  66.646  1.00  0.00    -0.348 C  
HETATM    6  C   UNL     1      -9.515   9.021  67.871  1.00  0.00    -0.159 C  
ENDROOT
BRANCH   6   7
HETATM    7  C   UNL     1     -10.354   8.959  69.126  1.00  0.00    -0.230 A  
HETATM    8  C   UNL     1     -10.980   7.766  69.527  1.00  0.00    -0.092 A  
HETATM    9  C   UNL     1     -11.757   7.705  70.687  1.00  0.00    -0.214 A  
HETATM   10  C   UNL     1     -11.918   8.839  71.478  1.00  0.00    -0.386 A  
HETATM   11  C   UNL     1     -11.297  10.030  71.111  1.00  0.00    -0.397 A  
HETATM   12  C   UNL     1     -10.519  10.083  69.952  1.00  0.00    -0.317 A  
ENDBRANCH   6   7
TORSDOF 1
ENDMDL
MODEL      138
REMARK 921   NORMALIZED FREE ENERGY PREDICTED BY IDOCK:   -2.40 KCAL/MOL
REMARK 922        TOTAL FREE ENERGY PREDICTED BY IDOCK:   -2.63 KCAL/MOL
REMARK 923 INTER-LIGAND FREE ENERGY PREDICTED BY IDOCK:   -2.54 KCAL/MOL
REMARK 924 INTRA-LIGAND FREE ENERGY PREDICTED BY IDOCK:   -0.09 KCAL/MOL
REMARK 927      BINDING AFFINITY PREDICTED BY RF-SCORE:    0.00 PKD
ROOT
HETATM    1  N   UNL     1      -9.294  11.747  64.304  1.00  0.00    -0.436 NA 
HETATM    2  C   UNL     1      -9.525  10.302  64.299  1.00  0.00    -0.307 C  
HETATM    3  H1  UNL     1      -9.937  12.363  64.803  1.00  0.00     0.000 HD 
HETATM    4  H2  UNL     1      -9.224  12.067  63.338  1.00  0.00     0.000 HD 
HETATM    5  C   UNL     1      -8.582   9.398  63.568  1.00  0.00    -0.215 C  
HETATM    6  C   UNL     1      -8.599   9.394  65.080  1.00  0.00    -0.188 C  
ENDROOT
BRANCH   6   7
HETATM    7  C   UNL     1      -9.153   8.197  65.817  1.00  0.00    -0.139 A  
HETATM    8  C   UNL     1     -10.230   8.326  66.711  1.00  0.00    -0.375 A  
HETATM    9  C   UNL     1     -10.746   7.221  67.394  1.00  0.00    -0.358 A  
HETATM   10  C   UNL     1     -10.199   5.959  67.190  1.00  0.00    -0.247 A  
HETATM   11  C   UNL     1      -9.140   5.801  66.299  1.00  0.00    -0.154 A  
HETATM   12  C   UNL     1      -8.632   6.909  65.617  1.00  0.00    -0.119 A  
ENDBRANCH   6   7
TORSDOF 1
ENDMDL
MODEL      139
REMARK 921   NORMALIZED FREE ENERGY PREDICTED BY IDOCK:   -2.37 KCAL/MOL
REMARK 922        TOTAL FREE ENERGY PREDICTED BY IDOCK:   -2.60 KCAL/MOL
REMARK 923 INTER-LIGAND FREE ENERGY PREDICTED BY IDOCK:   -2.51 KCAL/MOL
REMARK 924 INTRA-LIGAND FREE ENERGY PREDICTED BY IDOCK:   -0.09 KCAL/MOL
REMARK 927      BINDING AFFINITY PREDICTED BY RF-SCORE:    0.00 PKD
ROOT
HETATM    1  N   UNL     1     -13.177   9.690  70.930  1.00  0.00    -0.583 NA 
HETATM    2  C   UNL     1     -12.287   8.765  71.632  1.00  0.00    -0.337 C  
HETATM    3  H1  UNL     1     -13.109  10.693  71.105  1.00  0.00     0.000 HD 
HETATM    4  H2  UNL     1     -14.141   9.398  71.094  1.00  0.00     0.000 HD 
HETATM    5  C   UNL     1     -12.387   7.293  71.376  1.00  0.00    -0.403 C  
HETATM    6  C   UNL     1     -11.186   8.060  70.867  1.00  0.00    -0.282 C  
ENDROOT
BRANCH   6   7
HETATM    7  C   UNL     1      -9.836   7.843  71.508  1.00  0.00    -0.206 A  
HETATM    8  C   UNL     1      -8.688   8.499  71.030  1.00  0.00    -0.209 A  
HETATM    9  C   UNL     1      -7.437   8.302  71.621  1.00  0.00    -0.105 A  
HETATM   10  C   UNL     1      -7.308   7.446  72.710  1.00  0.00    -0.084 A  
HETATM   11  C   UNL     1      -8.432   6.794  73.212  1.00  0.00    -0.131 A  
HETATM   12  C   UNL     1      -9.680   6.999  72.620  1.00  0.00    -0.173 A  
ENDBRANCH   6   7
TORSDOF 1
ENDMDL
MODEL      140
REMARK 921   NORMALIZED FREE ENERGY PREDICTED BY IDOCK:   -2.35 KCAL/MOL
REMARK 922        TOTAL FREE ENERGY PREDICTED BY IDOCK:   -2.58 KCAL/MOL
REMARK 923 INTER-LIGAND FREE ENERGY PREDICTED BY IDOCK:   -2.49 KCAL/MOL
REMARK 924 INTRA-LIGAND FREE ENERGY PREDICTED BY IDOCK:   -0.09 KCAL/MOL
REMARK 927      BINDING AFFINITY PREDICTED BY RF-SCORE:    0.00 PKD
ROOT
HETATM    1  N   UNL     1      -9.783   1.985  72.423  1.00  0.00    -0.100 NA 
HETATM    2  C   UNL     1     -10.532   3.194  72.766  1.00  0.00    -0.128 C  
HETATM    3  H1  UNL     1      -9.710   1.692  71.448  1.00  0.00     0.000 HD 
HETATM    4  H2  UNL     1     -10.156   1.208  72.969  1.00  0.00     0.000 HD 
HETATM    5  C   UNL     1     -10.638   3.626  74.196  1.00  0.00    -0.271 C  
HETATM    6  C   UNL     1      -9.788   4.428  73.236  1.00  0.00    -0.167 C  
ENDROOT
BRANCH   6   7
HETATM    7  C   UNL     1     -10.245   5.800  72.801  1.00  0.00    -0.211 A  
HETATM    8  C   UNL     1     -11.480   5.988  72.157  1.00  0.00    -0.356 A  
HETATM    9  C   UNL     1     -11.907   7.257  71.755  1.00  0.00    -0.330 A  
HETATM   10  C   UNL     1     -11.107   8.369  71.996  1.00  0.00    -0.397 A  
HETATM   11  C   UNL     1      -9.884   8.213  72.644  1.00  0.00    -0.364 A  
HETATM   12  C   UNL     1      -9.466   6.943  73.048  1.00  0.00    -0.168 A  
ENDBRANCH   6   7
TORSDOF 1
ENDMDL
MODEL      141
REMARK 921   NORMALIZED FREE ENERGY PREDICTED BY IDOCK:   -2.35 KCAL/MOL
REMARK 922        TOTAL FREE ENERGY PREDICTED BY IDOCK:   -2.58 KCAL/MOL
REMARK 923 INTER-LIGAND FREE ENERGY PREDICTED BY IDOCK:   -2.49 KCAL/MOL
REMARK 924 INTRA-LIGAND FREE ENERGY PREDICTED BY IDOCK:   -0.09 KCAL/MOL
REMARK 927      BINDING AFFINITY PREDICTED BY RF-SCORE:    0.00 PKD
ROOT
HETATM    1  N   UNL     1      -9.538   8.159  73.147  1.00  0.00    -0.264 NA 
HETATM    2  C   UNL     1     -10.007   8.302  71.769  1.00  0.00    -0.217 C  
HETATM    3  H1  UNL     1      -9.965   7.465  73.761  1.00  0.00     0.000 HD 
HETATM    4  H2  UNL     1      -9.591   9.071  73.603  1.00  0.00     0.000 HD 
HETATM    5  C   UNL     1      -9.380   9.320  70.868  1.00  0.00    -0.313 C  
HETATM    6  C   UNL     1      -9.122   7.850  70.626  1.00  0.00    -0.153 C  
ENDROOT
BRANCH   6   7
HETATM    7  C   UNL     1      -9.728   7.174  69.419  1.00  0.00    -0.160 A  
HETATM    8  C   UNL     1     -10.186   7.920  68.319  1.00  0.00    -0.240 A  
HETATM    9  C   UNL     1     -10.746   7.299  67.199  1.00  0.00    -0.413 A  
HETATM   10  C   UNL     1     -10.855   5.913  67.153  1.00  0.00    -0.373 A  
HETATM   11  C   UNL     1     -10.396   5.149  68.224  1.00  0.00    -0.140 A  
HETATM   12  C   UNL     1      -9.833   5.776  69.338  1.00  0.00    -0.219 A  
ENDBRANCH   6   7
TORSDOF 1
ENDMDL
MODEL      142
REMARK 921   NORMALIZED FREE ENERGY PREDICTED BY IDOCK:   -2.35 KCAL/MOL
REMARK 922        TOTAL FREE ENERGY PREDICTED BY IDOCK:   -2.58 KCAL/MOL
REMARK 923 INTER-LIGAND FREE ENERGY PREDICTED BY IDOCK:   -2.49 KCAL/MOL
REMARK 924 INTRA-LIGAND FREE ENERGY PREDICTED BY IDOCK:   -0.09 KCAL/MOL
REMARK 927      BINDING AFFINITY PREDICTED BY RF-SCORE:    0.00 PKD
ROOT
HETATM    1  N   UNL     1      -8.002   4.119  63.586  1.00  0.00    -0.086 NA 
HETATM    2  C   UNL     1      -9.084   4.610  64.440  1.00  0.00    -0.122 C  
HETATM    3  H1  UNL     1      -7.101   4.598  63.581  1.00  0.00     0.000 HD 
HETATM    4  H2  UNL     1      -8.346   4.066  62.627  1.00  0.00     0.000 HD 
HETATM    5  C   UNL     1     -10.406   3.907  64.448  1.00  0.00    -0.242 C  
HETATM    6  C   UNL     1      -9.500   3.807  65.655  1.00  0.00    -0.170 C  
ENDROOT
BRANCH   6   7
HETATM    7  C   UNL     1      -9.883   4.512  66.936  1.00  0.00    -0.238 A  
HETATM    8  C   UNL     1     -10.637   5.698  66.918  1.00  0.00    -0.367 A  
HETATM    9  C   UNL     1     -10.993   6.353  68.101  1.00  0.00    -0.393 A  
HETATM   10  C   UNL     1     -10.607   5.829  69.330  1.00  0.00    -0.383 A  
HETATM   11  C   UNL     1      -9.871   4.647  69.377  1.00  0.00    -0.272 A  
HETATM   12  C   UNL     1      -9.522   3.996  68.191  1.00  0.00    -0.215 A  
ENDBRANCH   6   7
TORSDOF 1
ENDMDL
MODEL      143
REMARK 921   NORMALIZED FREE ENERGY PREDICTED BY IDOCK:   -2.26 KCAL/MOL
REMARK 922        TOTAL FREE ENERGY PREDICTED BY IDOCK:   -2.48 KCAL/MOL
REMARK 923 INTER-LIGAND FREE ENERGY PREDICTED BY IDOCK:   -2.39 KCAL/MOL
REMARK 924 INTRA-LIGAND FREE ENERGY PREDICTED BY IDOCK:   -0.09 KCAL/MOL
REMARK 927      BINDING AFFINITY PREDICTED BY RF-SCORE:    0.00 PKD
ROOT
HETATM    1  N   UNL     1      -6.595  10.952  69.196  1.00  0.00    -0.061 NA 
HETATM    2  C   UNL     1      -7.332  11.177  67.952  1.00  0.00    -0.092 C  
HETATM    3  H1  UNL     1      -6.535  11.695  69.893  1.00  0.00     0.000 HD 
HETATM    4  H2  UNL     1      -5.649  10.650  68.962  1.00  0.00     0.000 HD 
HETATM    5  C   UNL     1      -7.421  10.087  66.930  1.00  0.00    -0.095 C  
HETATM    6  C   UNL     1      -8.651  10.468  67.725  1.00  0.00    -0.118 C  
ENDROOT
BRANCH   6   7
HETATM    7  C   UNL     1      -9.790  11.185  67.040  1.00  0.00    -0.212 A  
HETATM    8  C   UNL     1     -10.718  11.947  67.771  1.00  0.00    -0.243 A  
HETATM    9  C   UNL     1     -11.772  12.613  67.141  1.00  0.00    -0.438 A  
HETATM   10  C   UNL     1     -11.918  12.536  65.759  1.00  0.00    -0.482 A  
HETATM   11  C   UNL     1     -11.005  11.800  65.009  1.00  0.00    -0.357 A  
HETATM   12  C   UNL     1      -9.950  11.140  65.645  1.00  0.00    -0.297 A  
ENDBRANCH   6   7
TORSDOF 1
ENDMDL
MODEL      144
REMARK 921   NORMALIZED FREE ENERGY PREDICTED BY IDOCK:   -2.23 KCAL/MOL
REMARK 922        TOTAL FREE ENERGY PREDICTED BY IDOCK:   -2.45 KCAL/MOL
REMARK 923 INTER-LIGAND FREE ENERGY PREDICTED BY IDOCK:   -2.36 KCAL/MOL
REMARK 924 INTRA-LIGAND FREE ENERGY PREDICTED BY IDOCK:   -0.09 KCAL/MOL
REMARK 927      BINDING AFFINITY PREDICTED BY RF-SCORE:    0.00 PKD
ROOT
HETATM    1  N   UNL     1     -10.063  10.197  64.665  1.00  0.00    -0.350 NA 
HETATM    2  C   UNL     1      -9.996   9.351  65.856  1.00  0.00    -0.256 C  
HETATM    3  H1  UNL     1     -10.838  10.851  64.548  1.00  0.00     0.000 HD 
HETATM    4  H2  UNL     1     -10.017   9.599  63.840  1.00  0.00     0.000 HD 
HETATM    5  C   UNL     1      -8.858   8.392  66.028  1.00  0.00    -0.202 C  
HETATM    6  C   UNL     1      -8.939   9.621  66.907  1.00  0.00    -0.151 C  
ENDROOT
BRANCH   6   7
HETATM    7  C   UNL     1      -9.270   9.469  68.373  1.00  0.00    -0.130 A  
HETATM    8  C   UNL     1     -10.602   9.395  68.816  1.00  0.00    -0.234 A  
HETATM    9  C   UNL     1     -10.912   9.254  70.172  1.00  0.00    -0.278 A  
HETATM   10  C   UNL     1      -9.892   9.177  71.115  1.00  0.00    -0.371 A  
HETATM   11  C   UNL     1      -8.564   9.234  70.702  1.00  0.00    -0.270 A  
HETATM   12  C   UNL     1      -8.260   9.371  69.345  1.00  0.00    -0.119 A  
ENDBRANCH   6   7
TORSDOF 1
ENDMDL
MODEL      145
REMARK 921   NORMALIZED FREE ENERGY PREDICTED BY IDOCK:   -2.20 KCAL/MOL
REMARK 922        TOTAL FREE ENERGY PREDICTED BY IDOCK:   -2.42 KCAL/MOL
REMARK 923 INTER-LIGAND FREE ENERGY PREDICTED BY IDOCK:   -2.33 KCAL/MOL
REMARK 924 INTRA-LIGAND FREE ENERGY PREDICTED BY IDOCK:   -0.09 KCAL/MOL
REMARK 927      BINDING AFFINITY PREDICTED BY RF-SCORE:    0.00 PKD
ROOT
HETATM    1  N   UNL     1      -7.479   5.858  67.276  1.00  0.00    -0.080 NA 
HETATM    2  C   UNL     1      -8.617   5.357  68.048  1.00  0.00    -0.100 C  
HETATM    3  H1  UNL     1      -7.561   6.736  66.762  1.00  0.00     0.000 HD 
HETATM    4  H2  UNL     1      -7.182   5.129  66.628  1.00  0.00     0.000 HD 
HETATM    5  C   UNL     1      -8.497   4.070  68.804  1.00  0.00    -0.100 C  
HETATM    6  C   UNL     1      -8.562   5.377  69.561  1.00  0.00    -0.103 C  
ENDROOT
BRANCH   6   7
HETATM    7  C   UNL     1      -9.799   5.716  70.361  1.00  0.00    -0.253 A  
HETATM    8  C   UNL     1      -9.925   5.331  71.707  1.00  0.00    -0.245 A  
HETATM    9  C   UNL     1     -11.067   5.644  72.450  1.00  0.00    -0.324 A  
HETATM   10  C   UNL     1     -12.107   6.358  71.862  1.00  0.00    -0.362 A  
HETATM   11  C   UNL     1     -12.001   6.763  70.534  1.00  0.00    -0.385 A  
HETATM   12  C   UNL     1     -10.855   6.451  69.798  1.00  0.00    -0.373 A  
ENDBRANCH   6   7
TORSDOF 1
ENDMDL
MODEL      146
REMARK 921   NORMALIZED FREE ENERGY PREDICTED BY IDOCK:   -2.18 KCAL/MOL
REMARK 922        TOTAL FREE ENERGY PREDICTED BY IDOCK:   -2.40 KCAL/MOL
REMARK 923 INTER-LIGAND FREE ENERGY PREDICTED BY IDOCK:   -2.31 KCAL/MOL
REMARK 924 INTRA-LIGAND FREE ENERGY PREDICTED BY IDOCK:   -0.09 KCAL/MOL
REMARK 927      BINDING AFFINITY PREDICTED BY RF-SCORE:    0.00 PKD
ROOT
HETATM    1  N   UNL     1      -5.944  11.355  67.625  1.00  0.00    -0.050 NA 
HETATM    2  C   UNL     1      -7.192  11.714  66.950  1.00  0.00    -0.125 C  
HETATM    3  H1  UNL     1      -5.411  12.070  68.120  1.00  0.00     0.000 HD 
HETATM    4  H2  UNL     1      -5.329  10.903  66.948  1.00  0.00     0.000 HD 
HETATM    5  C   UNL     1      -7.976  10.665  66.223  1.00  0.00    -0.149 C  
HETATM    6  C   UNL     1      -8.513  11.236  67.516  1.00  0.00    -0.131 C  
ENDROOT
BRANCH   6   7
HETATM    7  C   UNL     1      -9.723  12.141  67.488  1.00  0.00    -0.185 A  
HETATM    8  C   UNL     1     -10.776  11.921  66.583  1.00  0.00    -0.291 A  
HETATM    9  C   UNL     1     -11.897  12.755  66.554  1.00  0.00    -0.471 A  
HETATM   10  C   UNL     1     -11.991  13.826  67.437  1.00  0.00    -0.423 A  
HETATM   11  C   UNL     1     -10.968  14.058  68.353  1.00  0.00    -0.269 A  
HETATM   12  C   UNL     1      -9.852  13.218  68.380  1.00  0.00    -0.218 A  
ENDBRANCH   6   7
TORSDOF 1
ENDMDL
MODEL      147
REMARK 921   NORMALIZED FREE ENERGY PREDICTED BY IDOCK:   -2.16 KCAL/MOL
REMARK 922        TOTAL FREE ENERGY PREDICTED BY IDOCK:   -2.38 KCAL/MOL
REMARK 923 INTER-LIGAND FREE ENERGY PREDICTED BY IDOCK:   -2.29 KCAL/MOL
REMARK 924 INTRA-LIGAND FREE ENERGY PREDICTED BY IDOCK:   -0.09 KCAL/MOL
REMARK 927      BINDING AFFINITY PREDICTED BY RF-SCORE:    0.00 PKD
ROOT
HETATM    1  N   UNL     1      -9.100   2.876  72.525  1.00  0.00    -0.086 NA 
HETATM    2  C   UNL     1     -10.035   3.600  71.664  1.00  0.00    -0.126 C  
HETATM    3  H1  UNL     1      -8.662   2.017  72.191  1.00  0.00     0.000 HD 
HETATM    4  H2  UNL     1      -9.564   2.679  73.413  1.00  0.00     0.000 HD 
HETATM    5  C   UNL     1     -10.678   4.861  72.154  1.00  0.00    -0.193 C  
HETATM    6  C   UNL     1      -9.627   4.931  71.068  1.00  0.00    -0.238 C  
ENDROOT
BRANCH   6   7
HETATM    7  C   UNL     1     -10.033   5.288  69.658  1.00  0.00    -0.302 A  
HETATM    8  C   UNL     1      -9.717   4.451  68.574  1.00  0.00    -0.181 A  
HETATM    9  C   UNL     1     -10.092   4.777  67.267  1.00  0.00    -0.192 A  
HETATM   10  C   UNL     1     -10.800   5.948  67.018  1.00  0.00    -0.379 A  
HETATM   11  C   UNL     1     -11.138   6.789  68.075  1.00  0.00    -0.246 A  
HETATM   12  C   UNL     1     -10.764   6.455  69.379  1.00  0.00    -0.347 A  
ENDBRANCH   6   7
TORSDOF 1
ENDMDL
MODEL      148
REMARK 921   NORMALIZED FREE ENERGY PREDICTED BY IDOCK:   -2.14 KCAL/MOL
REMARK 922        TOTAL FREE ENERGY PREDICTED BY IDOCK:   -2.35 KCAL/MOL
REMARK 923 INTER-LIGAND FREE ENERGY PREDICTED BY IDOCK:   -2.27 KCAL/MOL
REMARK 924 INTRA-LIGAND FREE ENERGY PREDICTED BY IDOCK:   -0.09 KCAL/MOL
REMARK 927      BINDING AFFINITY PREDICTED BY RF-SCORE:    0.00 PKD
ROOT
HETATM    1  N   UNL     1     -11.696  11.543  67.531  1.00  0.00    -0.604 NA 
HETATM    2  C   UNL     1     -10.878  10.331  67.584  1.00  0.00    -0.307 C  
HETATM    3  H1  UNL     1     -12.693  11.493  67.744  1.00  0.00     0.000 HD 
HETATM    4  H2  UNL     1     -11.583  11.970  66.612  1.00  0.00     0.000 HD 
HETATM    5  C   UNL     1      -9.415  10.405  67.272  1.00  0.00    -0.176 C  
HETATM    6  C   UNL     1      -9.864  10.161  68.696  1.00  0.00    -0.170 C  
ENDROOT
BRANCH   6   7
HETATM    7  C   UNL     1      -9.648   8.805  69.325  1.00  0.00    -0.162 A  
HETATM    8  C   UNL     1     -10.397   8.390  70.439  1.00  0.00    -0.219 A  
HETATM    9  C   UNL     1     -10.202   7.136  71.024  1.00  0.00    -0.205 A  
HETATM   10  C   UNL     1      -9.253   6.264  70.499  1.00  0.00    -0.164 A  
HETATM   11  C   UNL     1      -8.506   6.644  69.387  1.00  0.00    -0.131 A  
HETATM   12  C   UNL     1      -8.710   7.898  68.805  1.00  0.00    -0.128 A  
ENDBRANCH   6   7
TORSDOF 1
ENDMDL
MODEL      149
REMARK 921   NORMALIZED FREE ENERGY PREDICTED BY IDOCK:   -2.09 KCAL/MOL
REMARK 922        TOTAL FREE ENERGY PREDICTED BY IDOCK:   -2.31 KCAL/MOL
REMARK 923 INTER-LIGAND FREE ENERGY PREDICTED BY IDOCK:   -2.22 KCAL/MOL
REMARK 924 INTRA-LIGAND FREE ENERGY PREDICTED BY IDOCK:   -0.09 KCAL/MOL
REMARK 927      BINDING AFFINITY PREDICTED BY RF-SCORE:    0.00 PKD
ROOT
HETATM    1  N   UNL     1      -8.124  15.549  66.939  1.00  0.00    -0.243 NA 
HETATM    2  C   UNL     1      -8.086  14.125  67.272  1.00  0.00    -0.168 C  
HETATM    3  H1  UNL     1      -8.332  15.843  65.984  1.00  0.00     0.000 HD 
HETATM    4  H2  UNL     1      -7.239  15.971  67.221  1.00  0.00     0.000 HD 
HETATM    5  C   UNL     1      -7.781  13.694  68.673  1.00  0.00    -0.107 C  
HETATM    6  C   UNL     1      -9.182  13.527  68.129  1.00  0.00    -0.208 C  
ENDROOT
BRANCH   6   7
HETATM    7  C   UNL     1      -9.708  12.143  67.832  1.00  0.00    -0.200 A  
HETATM    8  C   UNL     1     -10.428  11.414  68.794  1.00  0.00    -0.228 A  
HETATM    9  C   UNL     1     -10.917  10.133  68.523  1.00  0.00    -0.278 A  
HETATM   10  C   UNL     1     -10.701   9.555  67.275  1.00  0.00    -0.269 A  
HETATM   11  C   UNL     1     -10.003  10.261  66.299  1.00  0.00    -0.295 A  
HETATM   12  C   UNL     1      -9.521  11.543  66.576  1.00  0.00    -0.220 A  
ENDBRANCH   6   7
TORSDOF 1
ENDMDL
MODEL      150
REMARK 921   NORMALIZED FREE ENERGY PREDICTED BY IDOCK:   -2.06 KCAL/MOL
REMARK 922        TOTAL FREE ENERGY PREDICTED BY IDOCK:   -2.27 KCAL/MOL
REMARK 923 INTER-LIGAND FREE ENERGY PREDICTED BY IDOCK:   -2.18 KCAL/MOL
REMARK 924 INTRA-LIGAND FREE ENERGY PREDICTED BY IDOCK:   -0.09 KCAL/MOL
REMARK 927      BINDING AFFINITY PREDICTED BY RF-SCORE:    0.00 PKD
ROOT
HETATM    1  N   UNL     1     -11.329   6.369  67.088  1.00  0.00    -0.738 NA 
HETATM    2  C   UNL     1     -10.652   7.653  66.902  1.00  0.00    -0.289 C  
HETATM    3  H1  UNL     1     -11.644   5.838  66.276  1.00  0.00     0.000 HD 
HETATM    4  H2  UNL     1     -12.126   6.512  67.710  1.00  0.00     0.000 HD 
HETATM    5  C   UNL     1     -10.190   8.433  68.093  1.00  0.00    -0.253 C  
HETATM    6  C   UNL     1      -9.170   7.767  67.196  1.00  0.00    -0.174 C  
ENDROOT
BRANCH   6   7
HETATM    7  C   UNL     1      -8.284   8.614  66.314  1.00  0.00    -0.116 A  
HETATM    8  C   UNL     1      -7.104   9.195  66.809  1.00  0.00    -0.082 A  
HETATM    9  C   UNL     1      -6.281   9.979  65.996  1.00  0.00    -0.079 A  
HETATM   10  C   UNL     1      -6.619  10.193  64.663  1.00  0.00    -0.125 A  
HETATM   11  C   UNL     1      -7.776   9.618  64.144  1.00  0.00    -0.129 A  
HETATM   12  C   UNL     1      -8.592   8.832  64.961  1.00  0.00    -0.196 A  
ENDBRANCH   6   7
TORSDOF 1
ENDMDL
MODEL      151
REMARK 921   NORMALIZED FREE ENERGY PREDICTED BY IDOCK:   -2.00 KCAL/MOL
REMARK 922        TOTAL FREE ENERGY PREDICTED BY IDOCK:   -2.20 KCAL/MOL
REMARK 923 INTER-LIGAND FREE ENERGY PREDICTED BY IDOCK:   -2.12 KCAL/MOL
REMARK 924 INTRA-LIGAND FREE ENERGY PREDICTED BY IDOCK:   -0.09 KCAL/MOL
REMARK 927      BINDING AFFINITY PREDICTED BY RF-SCORE:    0.00 PKD
ROOT
HETATM    1  N   UNL     1     -11.475   4.544  64.839  1.00  0.00    -1.070 NA 
HETATM    2  C   UNL     1     -10.284   4.035  65.520  1.00  0.00    -0.088 C  
HETATM    3  H1  UNL     1     -12.401   4.218  65.121  1.00  0.00     0.000 HD 
HETATM    4  H2  UNL     1     -11.367   4.386  63.837  1.00  0.00     0.000 HD 
HETATM    5  C   UNL     1      -8.927   4.514  65.107  1.00  0.00    -0.147 C  
HETATM    6  C   UNL     1      -9.500   4.949  66.438  1.00  0.00    -0.156 C  
ENDROOT
BRANCH   6   7
HETATM    7  C   UNL     1      -8.906   4.411  67.718  1.00  0.00    -0.122 A  
HETATM    8  C   UNL     1      -9.722   4.024  68.795  1.00  0.00    -0.143 A  
HETATM    9  C   UNL     1      -9.176   3.524  69.981  1.00  0.00    -0.226 A  
HETATM   10  C   UNL     1      -7.798   3.394  70.112  1.00  0.00    -0.049 A  
HETATM   11  C   UNL     1      -6.966   3.756  69.055  1.00  0.00    -0.046 A  
HETATM   12  C   UNL     1      -7.518   4.251  67.871  1.00  0.00    -0.068 A  
ENDBRANCH   6   7
TORSDOF 1
ENDMDL
MODEL      152
REMARK 921   NORMALIZED FREE ENERGY PREDICTED BY IDOCK:   -1.98 KCAL/MOL
REMARK 922        TOTAL FREE ENERGY PREDICTED BY IDOCK:   -2.19 KCAL/MOL
REMARK 923 INTER-LIGAND FREE ENERGY PREDICTED BY IDOCK:   -2.10 KCAL/MOL
REMARK 924 INTRA-LIGAND FREE ENERGY PREDICTED BY IDOCK:   -0.09 KCAL/MOL
REMARK 927      BINDING AFFINITY PREDICTED BY RF-SCORE:    0.00 PKD
ROOT
HETATM    1  N   UNL     1     -11.305   7.691  73.179  1.00  0.00    -0.596 NA 
HETATM    2  C   UNL     1     -11.097   7.067  71.872  1.00  0.00    -0.242 C  
HETATM    3  H1  UNL     1     -11.225   7.131  74.028  1.00  0.00     0.000 HD 
HETATM    4  H2  UNL     1     -12.216   8.150  73.177  1.00  0.00     0.000 HD 
HETATM    5  C   UNL     1     -11.214   7.889  70.625  1.00  0.00    -0.269 C  
HETATM    6  C   UNL     1      -9.854   7.399  71.073  1.00  0.00    -0.179 C  
ENDROOT
BRANCH   6   7
HETATM    7  C   UNL     1      -9.151   6.322  70.281  1.00  0.00    -0.156 A  
HETATM    8  C   UNL     1      -9.456   4.963  70.468  1.00  0.00    -0.232 A  
HETATM    9  C   UNL     1      -8.808   3.963  69.736  1.00  0.00    -0.143 A  
HETATM   10  C   UNL     1      -7.842   4.304  68.795  1.00  0.00    -0.073 A  
HETATM   11  C   UNL     1      -7.530   5.644  68.581  1.00  0.00    -0.084 A  
HETATM   12  C   UNL     1      -8.185   6.639  69.312  1.00  0.00    -0.124 A  
ENDBRANCH   6   7
TORSDOF 1
ENDMDL
MODEL      153
REMARK 921   NORMALIZED FREE ENERGY PREDICTED BY IDOCK:   -1.97 KCAL/MOL
REMARK 922        TOTAL FREE ENERGY PREDICTED BY IDOCK:   -2.18 KCAL/MOL
REMARK 923 INTER-LIGAND FREE ENERGY PREDICTED BY IDOCK:   -2.09 KCAL/MOL
REMARK 924 INTRA-LIGAND FREE ENERGY PREDICTED BY IDOCK:   -0.09 KCAL/MOL
REMARK 927      BINDING AFFINITY PREDICTED BY RF-SCORE:    0.00 PKD
ROOT
HETATM    1  N   UNL     1      -7.738   3.240  63.410  1.00  0.00    -0.067 NA 
HETATM    2  C   UNL     1      -8.798   4.152  63.839  1.00  0.00    -0.127 C  
HETATM    3  H1  UNL     1      -6.807   3.604  63.200  1.00  0.00     0.000 HD 
HETATM    4  H2  UNL     1      -8.070   2.716  62.600  1.00  0.00     0.000 HD 
HETATM    5  C   UNL     1     -10.163   3.617  64.147  1.00  0.00    -0.232 C  
HETATM    6  C   UNL     1      -9.283   4.112  65.274  1.00  0.00    -0.152 C  
ENDROOT
BRANCH   6   7
HETATM    7  C   UNL     1      -9.638   5.394  65.990  1.00  0.00    -0.149 A  
HETATM    8  C   UNL     1     -10.696   5.444  66.914  1.00  0.00    -0.264 A  
HETATM    9  C   UNL     1     -11.027   6.628  67.580  1.00  0.00    -0.416 A  
HETATM   10  C   UNL     1     -10.299   7.789  67.339  1.00  0.00    -0.354 A  
HETATM   11  C   UNL     1      -9.237   7.763  66.438  1.00  0.00    -0.229 A  
HETATM   12  C   UNL     1      -8.909   6.576  65.780  1.00  0.00    -0.097 A  
ENDBRANCH   6   7
TORSDOF 1
ENDMDL
MODEL      154
REMARK 921   NORMALIZED FREE ENERGY PREDICTED BY IDOCK:   -1.96 KCAL/MOL
REMARK 922        TOTAL FREE ENERGY PREDICTED BY IDOCK:   -2.17 KCAL/MOL
REMARK 923 INTER-LIGAND FREE ENERGY PREDICTED BY IDOCK:   -2.08 KCAL/MOL
REMARK 924 INTRA-LIGAND FREE ENERGY PREDICTED BY IDOCK:   -0.09 KCAL/MOL
REMARK 927      BINDING AFFINITY PREDICTED BY RF-SCORE:    0.00 PKD
ROOT
HETATM    1  N   UNL     1      -9.479   9.525  63.317  1.00  0.00    -0.479 NA 
HETATM    2  C   UNL     1      -9.780  10.544  64.323  1.00  0.00    -0.330 C  
HETATM    3  H1  UNL     1      -8.907   9.764  62.506  1.00  0.00     0.000 HD 
HETATM    4  H2  UNL     1     -10.358   9.126  62.987  1.00  0.00     0.000 HD 
HETATM    5  C   UNL     1     -10.618  10.192  65.513  1.00  0.00     0.057 C  
HETATM    6  C   UNL     1      -9.140  10.455  65.693  1.00  0.00    -0.206 C  
ENDROOT
BRANCH   6   7
HETATM    7  C   UNL     1      -8.685  11.710  66.400  1.00  0.00    -0.170 A  
HETATM    8  C   UNL     1      -7.409  11.798  66.982  1.00  0.00    -0.133 A  
HETATM    9  C   UNL     1      -6.984  12.958  67.636  1.00  0.00    -0.152 A  
HETATM   10  C   UNL     1      -7.829  14.061  67.716  1.00  0.00    -0.176 A  
HETATM   11  C   UNL     1      -9.093  14.006  67.136  1.00  0.00    -0.239 A  
HETATM   12  C   UNL     1      -9.510  12.845  66.480  1.00  0.00    -0.251 A  
ENDBRANCH   6   7
TORSDOF 1
ENDMDL
MODEL      155
REMARK 921   NORMALIZED FREE ENERGY PREDICTED BY IDOCK:   -1.95 KCAL/MOL
REMARK 922        TOTAL FREE ENERGY PREDICTED BY IDOCK:   -2.16 KCAL/MOL
REMARK 923 INTER-LIGAND FREE ENERGY PREDICTED BY IDOCK:   -2.06 KCAL/MOL
REMARK 924 INTRA-LIGAND FREE ENERGY PREDICTED BY IDOCK:   -0.09 KCAL/MOL
REMARK 927      BINDING AFFINITY PREDICTED BY RF-SCORE:    0.00 PKD
ROOT
HETATM    1  N   UNL     1      -9.112   3.348  67.936  1.00  0.00    -0.146 NA 
HETATM    2  C   UNL     1      -9.245   4.499  67.041  1.00  0.00    -0.134 C  
HETATM    3  H1  UNL     1      -8.234   3.188  68.431  1.00  0.00     0.000 HD 
HETATM    4  H2  UNL     1      -9.348   2.504  67.414  1.00  0.00     0.000 HD 
HETATM    5  C   UNL     1     -10.534   4.734  66.316  1.00  0.00    -0.311 C  
HETATM    6  C   UNL     1     -10.132   5.659  67.443  1.00  0.00    -0.206 C  
ENDROOT
BRANCH   6   7
HETATM    7  C   UNL     1      -9.712   7.077  67.132  1.00  0.00    -0.206 A  
HETATM    8  C   UNL     1      -8.418   7.370  66.668  1.00  0.00    -0.124 A  
HETATM    9  C   UNL     1      -8.027   8.680  66.378  1.00  0.00    -0.099 A  
HETATM   10  C   UNL     1      -8.928   9.728  66.540  1.00  0.00    -0.172 A  
HETATM   11  C   UNL     1     -10.221   9.464  66.984  1.00  0.00    -0.322 A  
HETATM   12  C   UNL     1     -10.607   8.151  67.268  1.00  0.00    -0.344 A  
ENDBRANCH   6   7
TORSDOF 1
ENDMDL
MODEL      156
REMARK 921   NORMALIZED FREE ENERGY PREDICTED BY IDOCK:   -1.94 KCAL/MOL
REMARK 922        TOTAL FREE ENERGY PREDICTED BY IDOCK:   -2.15 KCAL/MOL
REMARK 923 INTER-LIGAND FREE ENERGY PREDICTED BY IDOCK:   -2.06 KCAL/MOL
REMARK 924 INTRA-LIGAND FREE ENERGY PREDICTED BY IDOCK:   -0.09 KCAL/MOL
REMARK 927      BINDING AFFINITY PREDICTED BY RF-SCORE:    0.00 PKD
ROOT
HETATM    1  N   UNL     1      -6.140  15.273  68.489  1.00  0.00    -0.090 NA 
HETATM    2  C   UNL     1      -7.076  14.452  67.719  1.00  0.00    -0.176 C  
HETATM    3  H1  UNL     1      -6.397  16.224  68.754  1.00  0.00     0.000 HD 
HETATM    4  H2  UNL     1      -5.251  15.305  67.988  1.00  0.00     0.000 HD 
HETATM    5  C   UNL     1      -6.699  13.056  67.330  1.00  0.00    -0.123 C  
HETATM    6  C   UNL     1      -7.761  13.276  68.384  1.00  0.00    -0.138 C  
ENDROOT
BRANCH   6   7
HETATM    7  C   UNL     1      -9.204  12.961  68.067  1.00  0.00    -0.212 A  
HETATM    8  C   UNL     1      -9.884  11.919  68.721  1.00  0.00    -0.078 A  
HETATM    9  C   UNL     1     -11.219  11.625  68.431  1.00  0.00    -0.307 A  
HETATM   10  C   UNL     1     -11.907  12.374  67.482  1.00  0.00    -0.354 A  
HETATM   11  C   UNL     1     -11.262  13.421  66.829  1.00  0.00    -0.332 A  
HETATM   12  C   UNL     1      -9.928  13.713  67.127  1.00  0.00    -0.247 A  
ENDBRANCH   6   7
TORSDOF 1
ENDMDL
MODEL      157
REMARK 921   NORMALIZED FREE ENERGY PREDICTED BY IDOCK:   -1.93 KCAL/MOL
REMARK 922        TOTAL FREE ENERGY PREDICTED BY IDOCK:   -2.13 KCAL/MOL
REMARK 923 INTER-LIGAND FREE ENERGY PREDICTED BY IDOCK:   -2.04 KCAL/MOL
REMARK 924 INTRA-LIGAND FREE ENERGY PREDICTED BY IDOCK:   -0.09 KCAL/MOL
REMARK 927      BINDING AFFINITY PREDICTED BY RF-SCORE:    0.00 PKD
ROOT
HETATM    1  N   UNL     1      -7.424   2.355  69.528  1.00  0.00    -0.043 NA 
HETATM    2  C   UNL     1      -8.139   3.479  68.923  1.00  0.00    -0.061 C  
HETATM    3  H1  UNL     1      -6.563   2.521  70.050  1.00  0.00     0.000 HD 
HETATM    4  H2  UNL     1      -7.234   1.664  68.801  1.00  0.00     0.000 HD 
HETATM    5  C   UNL     1      -9.403   3.235  68.157  1.00  0.00    -0.244 C  
HETATM    6  C   UNL     1      -9.466   3.921  69.504  1.00  0.00    -0.259 C  
ENDROOT
BRANCH   6   7
HETATM    7  C   UNL     1      -9.811   5.390  69.578  1.00  0.00    -0.264 A  
HETATM    8  C   UNL     1     -11.026   5.827  70.134  1.00  0.00    -0.368 A  
HETATM    9  C   UNL     1     -11.347   7.186  70.205  1.00  0.00    -0.305 A  
HETATM   10  C   UNL     1     -10.453   8.139  69.727  1.00  0.00    -0.227 A  
HETATM   11  C   UNL     1      -9.237   7.734  69.185  1.00  0.00    -0.144 A  
HETATM   12  C   UNL     1      -8.919   6.374  69.120  1.00  0.00    -0.129 A  
ENDBRANCH   6   7
TORSDOF 1
ENDMDL
MODEL      158
REMARK 921   NORMALIZED FREE ENERGY PREDICTED BY IDOCK:   -1.93 KCAL/MOL
REMARK 922        TOTAL FREE ENERGY PREDICTED BY IDOCK:   -2.13 KCAL/MOL
REMARK 923 INTER-LIGAND FREE ENERGY PREDICTED BY IDOCK:   -2.04 KCAL/MOL
REMARK 924 INTRA-LIGAND FREE ENERGY PREDICTED BY IDOCK:   -0.09 KCAL/MOL
REMARK 927      BINDING AFFINITY PREDICTED BY RF-SCORE:    0.00 PKD
ROOT
HETATM    1  N   UNL     1     -11.100   7.202  67.237  1.00  0.00    -0.596 NA 
HETATM    2  C   UNL     1     -10.007   6.369  67.742  1.00  0.00    -0.128 C  
HETATM    3  H1  UNL     1     -11.863   6.776  66.711  1.00  0.00     0.000 HD 
HETATM    4  H2  UNL     1     -10.700   7.954  66.676  1.00  0.00     0.000 HD 
HETATM    5  C   UNL     1      -8.887   6.995  68.514  1.00  0.00    -0.124 C  
HETATM    6  C   UNL     1      -9.887   6.114  69.230  1.00  0.00    -0.182 C  
ENDROOT
BRANCH   6   7
HETATM    7  C   UNL     1      -9.459   4.756  69.735  1.00  0.00    -0.233 A  
HETATM    8  C   UNL     1      -9.850   4.293  71.003  1.00  0.00    -0.251 A  
HETATM    9  C   UNL     1      -9.457   3.036  71.473  1.00  0.00    -0.216 A  
HETATM   10  C   UNL     1      -8.668   2.211  70.678  1.00  0.00    -0.111 A  
HETATM   11  C   UNL     1      -8.278   2.640  69.412  1.00  0.00    -0.068 A  
HETATM   12  C   UNL     1      -8.678   3.895  68.946  1.00  0.00    -0.132 A  
ENDBRANCH   6   7
TORSDOF 1
ENDMDL
MODEL      159
REMARK 921   NORMALIZED FREE ENERGY PREDICTED BY IDOCK:   -1.89 KCAL/MOL
REMARK 922        TOTAL FREE ENERGY PREDICTED BY IDOCK:   -2.09 KCAL/MOL
REMARK 923 INTER-LIGAND FREE ENERGY PREDICTED BY IDOCK:   -2.01 KCAL/MOL
REMARK 924 INTRA-LIGAND FREE ENERGY PREDICTED BY IDOCK:   -0.09 KCAL/MOL
REMARK 927      BINDING AFFINITY PREDICTED BY RF-SCORE:    0.00 PKD
ROOT
HETATM    1  N   UNL     1      -7.500   7.964  63.545  1.00  0.00    -0.111 NA 
HETATM    2  C   UNL     1      -8.041   9.106  64.284  1.00  0.00    -0.148 C  
HETATM    3  H1  UNL     1      -6.911   7.282  64.024  1.00  0.00     0.000 HD 
HETATM    4  H2  UNL     1      -6.992   8.316  62.733  1.00  0.00     0.000 HD 
HETATM    5  C   UNL     1      -8.905  10.107  63.581  1.00  0.00    -0.240 C  
HETATM    6  C   UNL     1      -9.523   9.164  64.589  1.00  0.00     0.242 C  
ENDROOT
BRANCH   6   7
HETATM    7  C   UNL     1     -10.003   9.701  65.917  1.00  0.00    -0.351 A  
HETATM    8  C   UNL     1      -9.867   8.952  67.099  1.00  0.00    -0.267 A  
HETATM    9  C   UNL     1     -10.309   9.446  68.330  1.00  0.00    -0.251 A  
HETATM   10  C   UNL     1     -10.892  10.706  68.405  1.00  0.00    -0.282 A  
HETATM   11  C   UNL     1     -11.027  11.475  67.252  1.00  0.00    -0.323 A  
HETATM   12  C   UNL     1     -10.579  10.977  66.026  1.00  0.00    -0.275 A  
ENDBRANCH   6   7
TORSDOF 1
ENDMDL
MODEL      160
REMARK 921   NORMALIZED FREE ENERGY PREDICTED BY IDOCK:   -1.87 KCAL/MOL
REMARK 922        TOTAL FREE ENERGY PREDICTED BY IDOCK:   -2.07 KCAL/MOL
REMARK 923 INTER-LIGAND FREE ENERGY PREDICTED BY IDOCK:   -1.98 KCAL/MOL
REMARK 924 INTRA-LIGAND FREE ENERGY PREDICTED BY IDOCK:   -0.09 KCAL/MOL
REMARK 927      BINDING AFFINITY PREDICTED BY RF-SCORE:    0.00 PKD
ROOT
HETATM    1  N   UNL     1     -11.696  10.669  68.054  1.00  0.00    -0.747 NA 
HETATM    2  C   UNL     1     -10.270  10.564  67.742  1.00  0.00    -0.190 C  
HETATM    3  H1  UNL     1     -12.342  11.043  67.359  1.00  0.00     0.000 HD 
HETATM    4  H2  UNL     1     -11.800  11.206  68.916  1.00  0.00     0.000 HD 
HETATM    5  C   UNL     1      -9.321  10.015  68.762  1.00  0.00    -0.162 C  
HETATM    6  C   UNL     1      -9.648   9.200  67.531  1.00  0.00    -0.186 C  
ENDROOT
BRANCH   6   7
HETATM    7  C   UNL     1      -8.596   9.002  66.465  1.00  0.00    -0.129 A  
HETATM    8  C   UNL     1      -7.322   8.499  66.781  1.00  0.00    -0.082 A  
HETATM    9  C   UNL     1      -6.347   8.314  65.797  1.00  0.00    -0.052 A  
HETATM   10  C   UNL     1      -6.629   8.622  64.470  1.00  0.00    -0.066 A  
HETATM   11  C   UNL     1      -7.888   9.109  64.127  1.00  0.00    -0.128 A  
HETATM   12  C   UNL     1      -8.860   9.288  65.115  1.00  0.00    -0.238 A  
ENDBRANCH   6   7
TORSDOF 1
ENDMDL
MODEL      161
REMARK 921   NORMALIZED FREE ENERGY PREDICTED BY IDOCK:   -1.85 KCAL/MOL
REMARK 922        TOTAL FREE ENERGY PREDICTED BY IDOCK:   -2.05 KCAL/MOL
REMARK 923 INTER-LIGAND FREE ENERGY PREDICTED BY IDOCK:   -1.96 KCAL/MOL
REMARK 924 INTRA-LIGAND FREE ENERGY PREDICTED BY IDOCK:   -0.09 KCAL/MOL
REMARK 927      BINDING AFFINITY PREDICTED BY RF-SCORE:    0.00 PKD
ROOT
HETATM    1  N   UNL     1      -7.570   2.194  69.386  1.00  0.00    -0.043 NA 
HETATM    2  C   UNL     1      -8.100   3.011  68.294  1.00  0.00    -0.065 C  
HETATM    3  H1  UNL     1      -6.683   2.445  69.825  1.00  0.00     0.000 HD 
HETATM    4  H2  UNL     1      -7.511   1.227  69.066  1.00  0.00     0.000 HD 
HETATM    5  C   UNL     1      -9.401   2.644  67.650  1.00  0.00    -0.209 C  
HETATM    6  C   UNL     1      -9.324   3.872  68.529  1.00  0.00    -0.224 C  
ENDROOT
BRANCH   6   7
HETATM    7  C   UNL     1      -9.419   5.244  67.905  1.00  0.00    -0.146 A  
HETATM    8  C   UNL     1      -8.266   5.962  67.545  1.00  0.00    -0.105 A  
HETATM    9  C   UNL     1      -8.349   7.232  66.966  1.00  0.00    -0.118 A  
HETATM   10  C   UNL     1      -9.593   7.809  66.729  1.00  0.00    -0.274 A  
HETATM   11  C   UNL     1     -10.752   7.113  67.065  1.00  0.00    -0.420 A  
HETATM   12  C   UNL     1     -10.661   5.843  67.639  1.00  0.00    -0.352 A  
ENDBRANCH   6   7
TORSDOF 1
ENDMDL
MODEL      162
REMARK 921   NORMALIZED FREE ENERGY PREDICTED BY IDOCK:   -1.84 KCAL/MOL
REMARK 922        TOTAL FREE ENERGY PREDICTED BY IDOCK:   -2.04 KCAL/MOL
REMARK 923 INTER-LIGAND FREE ENERGY PREDICTED BY IDOCK:   -1.95 KCAL/MOL
REMARK 924 INTRA-LIGAND FREE ENERGY PREDICTED BY IDOCK:   -0.09 KCAL/MOL
REMARK 927      BINDING AFFINITY PREDICTED BY RF-SCORE:    0.00 PKD
ROOT
HETATM    1  N   UNL     1      -7.885   4.693  71.589  1.00  0.00    -0.094 NA 
HETATM    2  C   UNL     1      -8.946   5.515  71.007  1.00  0.00    -0.140 C  
HETATM    3  H1  UNL     1      -7.559   3.860  71.097  1.00  0.00     0.000 HD 
HETATM    4  H2  UNL     1      -8.166   4.422  72.532  1.00  0.00     0.000 HD 
HETATM    5  C   UNL     1      -9.424   6.737  71.728  1.00  0.00    -0.150 C  
HETATM    6  C   UNL     1      -8.614   6.888  70.460  1.00  0.00    -0.142 C  
ENDROOT
BRANCH   6   7
HETATM    7  C   UNL     1      -9.283   7.386  69.201  1.00  0.00    -0.147 A  
HETATM    8  C   UNL     1      -9.182   8.731  68.804  1.00  0.00    -0.141 A  
HETATM    9  C   UNL     1      -9.799   9.195  67.638  1.00  0.00    -0.217 A  
HETATM   10  C   UNL     1     -10.528   8.319  66.840  1.00  0.00    -0.365 A  
HETATM   11  C   UNL     1     -10.633   6.978  67.203  1.00  0.00    -0.412 A  
HETATM   12  C   UNL     1     -10.010   6.520  68.367  1.00  0.00    -0.145 A  
ENDBRANCH   6   7
TORSDOF 1
ENDMDL
MODEL      163
REMARK 921   NORMALIZED FREE ENERGY PREDICTED BY IDOCK:   -1.67 KCAL/MOL
REMARK 922        TOTAL FREE ENERGY PREDICTED BY IDOCK:   -1.86 KCAL/MOL
REMARK 923 INTER-LIGAND FREE ENERGY PREDICTED BY IDOCK:   -1.77 KCAL/MOL
REMARK 924 INTRA-LIGAND FREE ENERGY PREDICTED BY IDOCK:   -0.09 KCAL/MOL
REMARK 927      BINDING AFFINITY PREDICTED BY RF-SCORE:    0.00 PKD
ROOT
HETATM    1  N   UNL     1      -6.105   6.767  63.932  1.00  0.00    -0.035 NA 
HETATM    2  C   UNL     1      -6.708   7.863  64.691  1.00  0.00    -0.059 C  
HETATM    3  H1  UNL     1      -5.744   5.948  64.422  1.00  0.00     0.000 HD 
HETATM    4  H2  UNL     1      -5.360   7.149  63.349  1.00  0.00     0.000 HD 
HETATM    5  C   UNL     1      -7.237   9.066  63.972  1.00  0.00    -0.095 C  
HETATM    6  C   UNL     1      -8.203   8.093  64.612  1.00  0.00    -0.128 C  
ENDROOT
BRANCH   6   7
HETATM    7  C   UNL     1      -8.973   8.508  65.844  1.00  0.00    -0.235 A  
HETATM    8  C   UNL     1      -9.816   9.632  65.833  1.00  0.00    -0.358 A  
HETATM    9  C   UNL     1     -10.531  10.018  66.971  1.00  0.00    -0.302 A  
HETATM   10  C   UNL     1     -10.421   9.280  68.146  1.00  0.00    -0.263 A  
HETATM   11  C   UNL     1      -9.603   8.154  68.180  1.00  0.00    -0.162 A  
HETATM   12  C   UNL     1      -8.895   7.771  67.038  1.00  0.00    -0.136 A  
ENDBRANCH   6   7
TORSDOF 1
ENDMDL
MODEL      164
REMARK 921   NORMALIZED FREE ENERGY PREDICTED BY IDOCK:   -1.67 KCAL/MOL
REMARK 922        TOTAL FREE ENERGY PREDICTED BY IDOCK:   -1.86 KCAL/MOL
REMARK 923 INTER-LIGAND FREE ENERGY PREDICTED BY IDOCK:   -1.77 KCAL/MOL
REMARK 924 INTRA-LIGAND FREE ENERGY PREDICTED BY IDOCK:   -0.09 KCAL/MOL
REMARK 927      BINDING AFFINITY PREDICTED BY RF-SCORE:    0.00 PKD
ROOT
HETATM    1  N   UNL     1      -9.057  11.494  63.793  1.00  0.00    -0.443 NA 
HETATM    2  C   UNL     1      -8.998  10.344  64.697  1.00  0.00    -0.209 C  
HETATM    3  H1  UNL     1      -9.848  12.138  63.840  1.00  0.00     0.000 HD 
HETATM    4  H2  UNL     1      -8.971  11.156  62.834  1.00  0.00     0.000 HD 
HETATM    5  C   UNL     1      -7.838   9.400  64.628  1.00  0.00    -0.120 C  
HETATM    6  C   UNL     1      -7.979  10.325  65.817  1.00  0.00    -0.144 C  
ENDROOT
BRANCH   6   7
HETATM    7  C   UNL     1      -8.346   9.755  67.167  1.00  0.00    -0.121 A  
HETATM    8  C   UNL     1      -8.441  10.577  68.304  1.00  0.00    -0.123 A  
HETATM    9  C   UNL     1      -8.781  10.053  69.554  1.00  0.00    -0.205 A  
HETATM   10  C   UNL     1      -9.041   8.693  69.693  1.00  0.00    -0.149 A  
HETATM   11  C   UNL     1      -8.967   7.860  68.580  1.00  0.00    -0.133 A  
HETATM   12  C   UNL     1      -8.631   8.390  67.332  1.00  0.00    -0.124 A  
ENDBRANCH   6   7
TORSDOF 1
ENDMDL
MODEL      165
REMARK 921   NORMALIZED FREE ENERGY PREDICTED BY IDOCK:   -1.60 KCAL/MOL
REMARK 922        TOTAL FREE ENERGY PREDICTED BY IDOCK:   -1.79 KCAL/MOL
REMARK 923 INTER-LIGAND FREE ENERGY PREDICTED BY IDOCK:   -1.70 KCAL/MOL
REMARK 924 INTRA-LIGAND FREE ENERGY PREDICTED BY IDOCK:   -0.09 KCAL/MOL
REMARK 927      BINDING AFFINITY PREDICTED BY RF-SCORE:    0.00 PKD
ROOT
HETATM    1  N   UNL     1     -11.326  10.259  67.481  1.00  0.00    -0.510 NA 
HETATM    2  C   UNL     1     -10.320  10.513  68.513  1.00  0.00    -0.179 C  
HETATM    3  H1  UNL     1     -11.044  10.188  66.503  1.00  0.00     0.000 HD 
HETATM    4  H2  UNL     1     -12.053  10.971  67.557  1.00  0.00     0.000 HD 
HETATM    5  C   UNL     1     -10.734  10.619  69.949  1.00  0.00    -0.260 C  
HETATM    6  C   UNL     1      -9.950   9.411  69.484  1.00  0.00    -0.200 C  
ENDROOT
BRANCH   6   7
HETATM    7  C   UNL     1      -8.515   9.238  69.924  1.00  0.00    -0.170 A  
HETATM    8  C   UNL     1      -7.459   9.267  68.996  1.00  0.00    -0.073 A  
HETATM    9  C   UNL     1      -6.130   9.108  69.400  1.00  0.00    -0.037 A  
HETATM   10  C   UNL     1      -5.828   8.924  70.745  1.00  0.00    -0.036 A  
HETATM   11  C   UNL     1      -6.854   8.905  71.687  1.00  0.00    -0.065 A  
HETATM   12  C   UNL     1      -8.180   9.069  71.278  1.00  0.00    -0.165 A  
ENDBRANCH   6   7
TORSDOF 1
ENDMDL
MODEL      166
REMARK 921   NORMALIZED FREE ENERGY PREDICTED BY IDOCK:   -1.59 KCAL/MOL
REMARK 922        TOTAL FREE ENERGY PREDICTED BY IDOCK:   -1.77 KCAL/MOL
REMARK 923 INTER-LIGAND FREE ENERGY PREDICTED BY IDOCK:   -1.68 KCAL/MOL
REMARK 924 INTRA-LIGAND FREE ENERGY PREDICTED BY IDOCK:   -0.09 KCAL/MOL
REMARK 927      BINDING AFFINITY PREDICTED BY RF-SCORE:    0.00 PKD
ROOT
HETATM    1  N   UNL     1      -7.149  10.047  70.255  1.00  0.00    -0.150 NA 
HETATM    2  C   UNL     1      -7.313  10.700  68.956  1.00  0.00    -0.108 C  
HETATM    3  H1  UNL     1      -7.967   9.859  70.837  1.00  0.00     0.000 HD 
HETATM    4  H2  UNL     1      -6.478  10.585  70.805  1.00  0.00     0.000 HD 
HETATM    5  C   UNL     1      -6.114  10.976  68.103  1.00  0.00    -0.049 C  
HETATM    6  C   UNL     1      -7.096   9.903  67.686  1.00  0.00    -0.087 C  
ENDROOT
BRANCH   6   7
HETATM    7  C   UNL     1      -7.986  10.130  66.487  1.00  0.00    -0.118 A  
HETATM    8  C   UNL     1      -7.600   9.708  65.202  1.00  0.00    -0.114 A  
HETATM    9  C   UNL     1      -8.421   9.915  64.090  1.00  0.00    -0.179 A  
HETATM   10  C   UNL     1      -9.652  10.545  64.241  1.00  0.00    -0.364 A  
HETATM   11  C   UNL     1     -10.065  10.961  65.505  1.00  0.00    -0.325 A  
HETATM   12  C   UNL     1      -9.241  10.747  66.613  1.00  0.00    -0.184 A  
ENDBRANCH   6   7
TORSDOF 1
ENDMDL
MODEL      167
REMARK 921   NORMALIZED FREE ENERGY PREDICTED BY IDOCK:   -1.58 KCAL/MOL
REMARK 922        TOTAL FREE ENERGY PREDICTED BY IDOCK:   -1.76 KCAL/MOL
REMARK 923 INTER-LIGAND FREE ENERGY PREDICTED BY IDOCK:   -1.67 KCAL/MOL
REMARK 924 INTRA-LIGAND FREE ENERGY PREDICTED BY IDOCK:   -0.09 KCAL/MOL
REMARK 927      BINDING AFFINITY PREDICTED BY RF-SCORE:    0.00 PKD
ROOT
HETATM    1  N   UNL     1     -11.642  15.200  66.779  1.00  0.00    -0.210 NA 
HETATM    2  C   UNL     1     -10.655  16.239  66.481  1.00  0.00    -0.256 C  
HETATM    3  H1  UNL     1     -11.368  14.217  66.756  1.00  0.00     0.000 HD 
HETATM    4  H2  UNL     1     -12.442  15.328  66.160  1.00  0.00     0.000 HD 
HETATM    5  C   UNL     1     -11.057  17.681  66.514  1.00  0.00     0.474 C  
HETATM    6  C   UNL     1     -10.150  17.133  67.594  1.00  0.00    -0.305 C  
ENDROOT
BRANCH   6   7
HETATM    7  C   UNL     1      -8.699  17.550  67.634  1.00  0.00    -0.223 A  
HETATM    8  C   UNL     1      -8.089  18.172  66.531  1.00  0.00    -0.295 A  
HETATM    9  C   UNL     1      -6.746  18.560  66.564  1.00  0.00    -0.225 A  
HETATM   10  C   UNL     1      -5.985  18.339  67.708  1.00  0.00    -0.162 A  
HETATM   11  C   UNL     1      -6.569  17.737  68.819  1.00  0.00    -0.227 A  
HETATM   12  C   UNL     1      -7.913  17.355  68.781  1.00  0.00    -0.244 A  
ENDBRANCH   6   7
TORSDOF 1
ENDMDL
MODEL      168
REMARK 921   NORMALIZED FREE ENERGY PREDICTED BY IDOCK:   -1.53 KCAL/MOL
REMARK 922        TOTAL FREE ENERGY PREDICTED BY IDOCK:   -1.71 KCAL/MOL
REMARK 923 INTER-LIGAND FREE ENERGY PREDICTED BY IDOCK:   -1.62 KCAL/MOL
REMARK 924 INTRA-LIGAND FREE ENERGY PREDICTED BY IDOCK:   -0.09 KCAL/MOL
REMARK 927      BINDING AFFINITY PREDICTED BY RF-SCORE:    0.00 PKD
ROOT
HETATM    1  N   UNL     1      -9.326   4.630  65.447  1.00  0.00    -0.154 NA 
HETATM    2  C   UNL     1      -9.650   5.747  66.335  1.00  0.00    -0.153 C  
HETATM    3  H1  UNL     1      -8.390   4.554  65.048  1.00  0.00     0.000 HD 
HETATM    4  H2  UNL     1     -10.005   4.614  64.687  1.00  0.00     0.000 HD 
HETATM    5  C   UNL     1     -11.023   5.860  66.922  1.00  0.00    -0.304 C  
HETATM    6  C   UNL     1      -9.858   5.492  67.814  1.00  0.00    -0.164 C  
ENDROOT
BRANCH   6   7
HETATM    7  C   UNL     1      -9.355   6.487  68.833  1.00  0.00    -0.131 A  
HETATM    8  C   UNL     1     -10.008   7.714  69.039  1.00  0.00    -0.181 A  
HETATM    9  C   UNL     1      -9.546   8.636  69.983  1.00  0.00    -0.175 A  
HETATM   10  C   UNL     1      -8.421   8.346  70.747  1.00  0.00    -0.151 A  
HETATM   11  C   UNL     1      -7.762   7.131  70.573  1.00  0.00    -0.094 A  
HETATM   12  C   UNL     1      -8.232   6.212  69.632  1.00  0.00    -0.116 A  
ENDBRANCH   6   7
TORSDOF 1
ENDMDL
MODEL      169
REMARK 921   NORMALIZED FREE ENERGY PREDICTED BY IDOCK:   -1.46 KCAL/MOL
REMARK 922        TOTAL FREE ENERGY PREDICTED BY IDOCK:   -1.64 KCAL/MOL
REMARK 923 INTER-LIGAND FREE ENERGY PREDICTED BY IDOCK:   -1.55 KCAL/MOL
REMARK 924 INTRA-LIGAND FREE ENERGY PREDICTED BY IDOCK:   -0.09 KCAL/MOL
REMARK 927      BINDING AFFINITY PREDICTED BY RF-SCORE:    0.00 PKD
ROOT
HETATM    1  N   UNL     1     -10.124   4.473  65.016  1.00  0.00    -0.378 NA 
HETATM    2  C   UNL     1     -10.102   5.313  66.214  1.00  0.00    -0.207 C  
HETATM    3  H1  UNL     1     -10.242   4.901  64.096  1.00  0.00     0.000 HD 
HETATM    4  H2  UNL     1     -10.844   3.760  65.135  1.00  0.00     0.000 HD 
HETATM    5  C   UNL     1      -9.929   4.686  67.562  1.00  0.00    -0.174 C  
HETATM    6  C   UNL     1      -8.803   5.503  66.970  1.00  0.00    -0.110 C  
ENDROOT
BRANCH   6   7
HETATM    7  C   UNL     1      -8.463   6.849  67.567  1.00  0.00    -0.122 A  
HETATM    8  C   UNL     1      -8.093   6.975  68.917  1.00  0.00    -0.121 A  
HETATM    9  C   UNL     1      -7.776   8.218  69.473  1.00  0.00    -0.101 A  
HETATM   10  C   UNL     1      -7.817   9.363  68.685  1.00  0.00    -0.088 A  
HETATM   11  C   UNL     1      -8.167   9.265  67.341  1.00  0.00    -0.117 A  
HETATM   12  C   UNL     1      -8.478   8.019  66.790  1.00  0.00    -0.128 A  
ENDBRANCH   6   7
TORSDOF 1
ENDMDL
MODEL      170
REMARK 921   NORMALIZED FREE ENERGY PREDICTED BY IDOCK:   -1.46 KCAL/MOL
REMARK 922        TOTAL FREE ENERGY PREDICTED BY IDOCK:   -1.63 KCAL/MOL
REMARK 923 INTER-LIGAND FREE ENERGY PREDICTED BY IDOCK:   -1.55 KCAL/MOL
REMARK 924 INTRA-LIGAND FREE ENERGY PREDICTED BY IDOCK:   -0.09 KCAL/MOL
REMARK 927      BINDING AFFINITY PREDICTED BY RF-SCORE:    0.00 PKD
ROOT
HETATM    1  N   UNL     1      -7.183   6.554  62.773  1.00  0.00    -0.049 NA 
HETATM    2  C   UNL     1      -6.978   7.801  63.510  1.00  0.00    -0.072 C  
HETATM    3  H1  UNL     1      -7.288   5.675  63.280  1.00  0.00     0.000 HD 
HETATM    4  H2  UNL     1      -6.425   6.450  62.098  1.00  0.00     0.000 HD 
HETATM    5  C   UNL     1      -6.824   9.091  62.766  1.00  0.00    -0.093 C  
HETATM    6  C   UNL     1      -8.086   8.832  63.558  1.00  0.00    -0.170 C  
ENDROOT
BRANCH   6   7
HETATM    7  C   UNL     1      -8.344   9.610  64.827  1.00  0.00    -0.156 A  
HETATM    8  C   UNL     1      -9.599   9.579  65.460  1.00  0.00    -0.349 A  
HETATM    9  C   UNL     1      -9.841  10.296  66.635  1.00  0.00    -0.256 A  
HETATM   10  C   UNL     1      -8.827  11.058  67.207  1.00  0.00    -0.135 A  
HETATM   11  C   UNL     1      -7.571  11.096  66.608  1.00  0.00    -0.147 A  
HETATM   12  C   UNL     1      -7.334  10.373  65.436  1.00  0.00    -0.124 A  
ENDBRANCH   6   7
TORSDOF 1
ENDMDL
MODEL      171
REMARK 921   NORMALIZED FREE ENERGY PREDICTED BY IDOCK:   -1.39 KCAL/MOL
REMARK 922        TOTAL FREE ENERGY PREDICTED BY IDOCK:   -1.57 KCAL/MOL
REMARK 923 INTER-LIGAND FREE ENERGY PREDICTED BY IDOCK:   -1.48 KCAL/MOL
REMARK 924 INTRA-LIGAND FREE ENERGY PREDICTED BY IDOCK:   -0.09 KCAL/MOL
REMARK 927      BINDING AFFINITY PREDICTED BY RF-SCORE:    0.00 PKD
ROOT
HETATM    1  N   UNL     1      -8.831   5.212  67.660  1.00  0.00    -0.106 NA 
HETATM    2  C   UNL     1      -8.998   5.296  69.112  1.00  0.00    -0.103 C  
HETATM    3  H1  UNL     1      -9.469   5.718  67.045  1.00  0.00     0.000 HD 
HETATM    4  H2  UNL     1      -8.835   4.228  67.391  1.00  0.00     0.000 HD 
HETATM    5  C   UNL     1      -8.062   4.553  70.014  1.00  0.00    -0.067 C  
HETATM    6  C   UNL     1      -7.986   6.062  69.938  1.00  0.00    -0.113 C  
ENDROOT
BRANCH   6   7
HETATM    7  C   UNL     1      -8.440   6.893  71.114  1.00  0.00    -0.123 A  
HETATM    8  C   UNL     1      -9.494   7.815  70.993  1.00  0.00    -0.165 A  
HETATM    9  C   UNL     1      -9.918   8.585  72.080  1.00  0.00    -0.383 A  
HETATM   10  C   UNL     1      -9.299   8.443  73.317  1.00  0.00    -0.145 A  
HETATM   11  C   UNL     1      -8.261   7.527  73.469  1.00  0.00    -0.179 A  
HETATM   12  C   UNL     1      -7.845   6.757  72.380  1.00  0.00    -0.094 A  
ENDBRANCH   6   7
TORSDOF 1
ENDMDL
MODEL      172
REMARK 921   NORMALIZED FREE ENERGY PREDICTED BY IDOCK:   -1.36 KCAL/MOL
REMARK 922        TOTAL FREE ENERGY PREDICTED BY IDOCK:   -1.53 KCAL/MOL
REMARK 923 INTER-LIGAND FREE ENERGY PREDICTED BY IDOCK:   -1.44 KCAL/MOL
REMARK 924 INTRA-LIGAND FREE ENERGY PREDICTED BY IDOCK:   -0.09 KCAL/MOL
REMARK 927      BINDING AFFINITY PREDICTED BY RF-SCORE:    0.00 PKD
ROOT
HETATM    1  N   UNL     1      -9.958   4.656  68.236  1.00  0.00    -0.105 NA 
HETATM    2  C   UNL     1     -10.094   6.069  68.590  1.00  0.00    -0.168 C  
HETATM    3  H1  UNL     1     -10.160   4.349  67.284  1.00  0.00     0.000 HD 
HETATM    4  H2  UNL     1     -10.525   4.105  68.881  1.00  0.00     0.000 HD 
HETATM    5  C   UNL     1      -9.797   6.521  69.987  1.00  0.00    -0.183 C  
HETATM    6  C   UNL     1      -8.853   6.894  68.865  1.00  0.00    -0.129 C  
ENDROOT
BRANCH   6   7
HETATM    7  C   UNL     1      -8.778   8.329  68.399  1.00  0.00    -0.133 A  
HETATM    8  C   UNL     1      -7.550   9.010  68.331  1.00  0.00    -0.090 A  
HETATM    9  C   UNL     1      -7.476  10.338  67.900  1.00  0.00    -0.088 A  
HETATM   10  C   UNL     1      -8.632  11.012  67.520  1.00  0.00    -0.128 A  
HETATM   11  C   UNL     1      -9.860  10.356  67.565  1.00  0.00    -0.202 A  
HETATM   12  C   UNL     1      -9.927   9.028  67.993  1.00  0.00    -0.213 A  
ENDBRANCH   6   7
TORSDOF 1
ENDMDL
MODEL      173
REMARK 921   NORMALIZED FREE ENERGY PREDICTED BY IDOCK:   -1.31 KCAL/MOL
REMARK 922        TOTAL FREE ENERGY PREDICTED BY IDOCK:   -1.47 KCAL/MOL
REMARK 923 INTER-LIGAND FREE ENERGY PREDICTED BY IDOCK:   -1.39 KCAL/MOL
REMARK 924 INTRA-LIGAND FREE ENERGY PREDICTED BY IDOCK:   -0.09 KCAL/MOL
REMARK 927      BINDING AFFINITY PREDICTED BY RF-SCORE:    0.00 PKD
ROOT
HETATM    1  N   UNL     1     -10.178   5.375  69.140  1.00  0.00    -0.223 NA 
HETATM    2  C   UNL     1     -10.332   5.274  67.688  1.00  0.00    -0.146 C  
HETATM    3  H1  UNL     1     -10.559   4.645  69.744  1.00  0.00     0.000 HD 
HETATM    4  H2  UNL     1     -10.552   6.274  69.443  1.00  0.00     0.000 HD 
HETATM    5  C   UNL     1      -9.773   6.344  66.802  1.00  0.00    -0.199 C  
HETATM    6  C   UNL     1      -9.122   4.979  66.826  1.00  0.00    -0.118 C  
ENDROOT
BRANCH   6   7
HETATM    7  C   UNL     1      -9.249   4.070  65.626  1.00  0.00    -0.150 A  
HETATM    8  C   UNL     1      -9.115   2.677  65.749  1.00  0.00    -0.115 A  
HETATM    9  C   UNL     1      -9.233   1.833  64.641  1.00  0.00    -0.129 A  
HETATM   10  C   UNL     1      -9.495   2.367  63.384  1.00  0.00    -0.096 A  
HETATM   11  C   UNL     1      -9.647   3.743  63.236  1.00  0.00    -0.137 A  
HETATM   12  C   UNL     1      -9.532   4.581  64.348  1.00  0.00    -0.075 A  
ENDBRANCH   6   7
TORSDOF 1
ENDMDL
MODEL      174
REMARK 921   NORMALIZED FREE ENERGY PREDICTED BY IDOCK:   -1.24 KCAL/MOL
REMARK 922        TOTAL FREE ENERGY PREDICTED BY IDOCK:   -1.41 KCAL/MOL
REMARK 923 INTER-LIGAND FREE ENERGY PREDICTED BY IDOCK:   -1.32 KCAL/MOL
REMARK 924 INTRA-LIGAND FREE ENERGY PREDICTED BY IDOCK:   -0.09 KCAL/MOL
REMARK 927      BINDING AFFINITY PREDICTED BY RF-SCORE:    0.00 PKD
ROOT
HETATM    1  N   UNL     1      -8.920  10.273  64.246  1.00  0.00    -0.213 NA 
HETATM    2  C   UNL     1      -8.819  11.364  65.215  1.00  0.00     0.064 C  
HETATM    3  H1  UNL     1      -8.107  10.015  63.684  1.00  0.00     0.000 HD 
HETATM    4  H2  UNL     1      -9.698  10.470  63.616  1.00  0.00     0.000 HD 
HETATM    5  C   UNL     1     -10.011  11.743  66.038  1.00  0.00    -0.258 C  
HETATM    6  C   UNL     1      -8.837  11.053  66.697  1.00  0.00    -0.168 C  
ENDROOT
BRANCH   6   7
HETATM    7  C   UNL     1      -7.952  11.827  67.646  1.00  0.00    -0.143 A  
HETATM    8  C   UNL     1      -7.930  13.232  67.640  1.00  0.00    -0.176 A  
HETATM    9  C   UNL     1      -7.113  13.951  68.517  1.00  0.00    -0.104 A  
HETATM   10  C   UNL     1      -6.304  13.277  69.426  1.00  0.00    -0.111 A  
HETATM   11  C   UNL     1      -6.317  11.885  69.463  1.00  0.00    -0.122 A  
HETATM   12  C   UNL     1      -7.139  11.172  68.586  1.00  0.00    -0.090 A  
ENDBRANCH   6   7
TORSDOF 1
ENDMDL
MODEL      175
REMARK 921   NORMALIZED FREE ENERGY PREDICTED BY IDOCK:   -1.20 KCAL/MOL
REMARK 922        TOTAL FREE ENERGY PREDICTED BY IDOCK:   -1.36 KCAL/MOL
REMARK 923 INTER-LIGAND FREE ENERGY PREDICTED BY IDOCK:   -1.26 KCAL/MOL
REMARK 924 INTRA-LIGAND FREE ENERGY PREDICTED BY IDOCK:   -0.09 KCAL/MOL
REMARK 927      BINDING AFFINITY PREDICTED BY RF-SCORE:    0.00 PKD
ROOT
HETATM    1  N   UNL     1     -10.063   3.851  65.610  1.00  0.00    -0.411 NA 
HETATM    2  C   UNL     1      -9.585   5.101  66.203  1.00  0.00    -0.164 C  
HETATM    3  H1  UNL     1     -10.759   3.876  64.864  1.00  0.00     0.000 HD 
HETATM    4  H2  UNL     1     -10.411   3.251  66.358  1.00  0.00     0.000 HD 
HETATM    5  C   UNL     1      -8.564   5.065  67.297  1.00  0.00    -0.104 C  
HETATM    6  C   UNL     1      -8.172   5.568  65.925  1.00  0.00    -0.121 C  
ENDROOT
BRANCH   6   7
HETATM    7  C   UNL     1      -7.884   7.037  65.723  1.00  0.00    -0.109 A  
HETATM    8  C   UNL     1      -8.916   7.951  65.451  1.00  0.00     0.056 A  
HETATM    9  C   UNL     1      -8.653   9.312  65.264  1.00  0.00    -0.188 A  
HETATM   10  C   UNL     1      -7.349   9.788  65.352  1.00  0.00    -0.118 A  
HETATM   11  C   UNL     1      -6.310   8.905  65.634  1.00  0.00    -0.060 A  
HETATM   12  C   UNL     1      -6.579   7.547  65.824  1.00  0.00    -0.045 A  
ENDBRANCH   6   7
TORSDOF 1
ENDMDL
MODEL      176
REMARK 921   NORMALIZED FREE ENERGY PREDICTED BY IDOCK:   13.08 KCAL/MOL
REMARK 922        TOTAL FREE ENERGY PREDICTED BY IDOCK:   13.75 KCAL/MOL
REMARK 923 INTER-LIGAND FREE ENERGY PREDICTED BY IDOCK:   13.84 KCAL/MOL
REMARK 924 INTRA-LIGAND FREE ENERGY PREDICTED BY IDOCK:   -0.09 KCAL/MOL
REMARK 927      BINDING AFFINITY PREDICTED BY RF-SCORE:    0.00 PKD
ROOT
HETATM    1  N   UNL     1      -5.637  12.836  67.348  1.00  0.00    -0.292 NA 
HETATM    2  C   UNL     1      -6.075  13.953  68.187  1.00  0.00    -0.128 C  
HETATM    3  H1  UNL     1      -5.464  11.922  67.769  1.00  0.00     0.000 HD 
HETATM    4  H2  UNL     1      -4.801  13.122  66.839  1.00  0.00     0.000 HD 
HETATM    5  C   UNL     1      -6.330  15.293  67.570  1.00  0.00    -0.129 C  
HETATM    6  C   UNL     1      -7.495  14.466  68.067  1.00  0.00    -0.144 C  
ENDROOT
BRANCH   6   7
HETATM    7  C   UNL     1      -8.249  14.904  69.300  1.00  0.00    -0.124 A  
HETATM    8  C   UNL     1      -8.908  13.973  70.122  1.00  0.00     2.203 A  
HETATM    9  C   UNL     1      -9.606  14.374  71.264  1.00  0.00     4.131 A  
HETATM   10  C   UNL     1      -9.655  15.720  71.613  1.00  0.00     3.901 A  
HETATM   11  C   UNL     1      -9.000  16.662  70.825  1.00  0.00     4.100 A  
HETATM   12  C   UNL     1      -8.300  16.254  69.686  1.00  0.00     0.322 A  
ENDBRANCH   6   7
TORSDOF 1
ENDMDL
