MODEL        1
REMARK 921   NORMALIZED FREE ENERGY PREDICTED BY IDOCK:   -7.36 KCAL/MOL
REMARK 922        TOTAL FREE ENERGY PREDICTED BY IDOCK:  -15.18 KCAL/MOL
REMARK 923 INTER-LIGAND FREE ENERGY PREDICTED BY IDOCK:  -12.96 KCAL/MOL
REMARK 924 INTRA-LIGAND FREE ENERGY PREDICTED BY IDOCK:   -2.22 KCAL/MOL
REMARK 927      BINDING AFFINITY PREDICTED BY RF-SCORE:    0.00 PKD
ROOT
HETATM    1  C   UNL     1      -8.410  17.952  66.629  1.00  0.00    -0.286 C  
HETATM    2  C   UNL     1      -9.913  17.727  66.755  1.00  0.00    -0.333 C  
HETATM    3  C   UNL     1     -10.545  18.788  67.649  1.00  0.00    -0.481 C  
ENDROOT
BRANCH   2   4
HETATM    4  O   UNL     1     -10.520  17.838  65.455  1.00  0.00    -0.641 OA 
BRANCH   4   5
HETATM    5  C   UNL     1     -11.028  16.675  64.958  1.00  0.00    -0.162 C  
HETATM    6  O   UNL     1     -11.656  16.573  63.912  1.00  0.00    -1.175 OA 
BRANCH   5   7
HETATM    7  C   UNL     1     -10.759  15.539  65.908  1.00  0.00    -0.346 C  
BRANCH   7   8
HETATM    8  C   UNL     1     -10.772  14.212  65.149  1.00  0.00    -0.400 C  
BRANCH   8   9
HETATM    9  C   UNL     1     -11.924  13.293  65.546  1.00  0.00    -0.445 C  
BRANCH   9  10
HETATM   10  C   UNL     1     -12.504  12.548  64.375  1.00  0.00    -0.530 C  
HETATM   11  C   UNL     1     -11.814  11.815  63.487  1.00  0.00    -0.481 C  
BRANCH  11  12
HETATM   12  C   UNL     1     -10.318  11.663  63.448  1.00  0.00    -0.482 C  
BRANCH  12  13
HETATM   13  C   UNL     1      -9.810  10.487  64.292  1.00  0.00    -0.402 C  
HETATM   14  C   UNL     1      -9.009   9.424  63.530  1.00  0.00    -0.115 C  
HETATM   15  O   UNL     1      -8.164  10.008  62.544  1.00  0.00    -0.126 OA 
HETATM   16  C   UNL     1      -8.135   8.783  64.601  1.00  0.00    -0.157 C  
HETATM   17  C   UNL     1      -7.700   9.962  65.467  1.00  0.00    -0.124 C  
HETATM   18  H   UNL     1      -7.667   9.349  62.072  1.00  0.00     0.000 HD 
HETATM   19  O   UNL     1      -6.529  10.565  64.906  1.00  0.00    -0.273 OA 
HETATM   20  C   UNL     1      -8.873  10.972  65.433  1.00  0.00    -0.157 C  
HETATM   21  H   UNL     1      -6.259  11.300  65.445  1.00  0.00     0.000 HD 
BRANCH  20  22
HETATM   22  C   UNL     1      -9.676  11.141  66.711  1.00  0.00    -0.220 C  
HETATM   23  C   UNL     1     -10.245  10.159  67.434  1.00  0.00    -0.267 C  
BRANCH  23  24
HETATM   24  C   UNL     1     -11.095  10.315  68.676  1.00  0.00    -0.239 C  
HETATM   25  H   UNL     1     -10.791  10.457  70.607  1.00  0.00     0.000 HD 
HETATM   26  O   UNL     1     -10.257  10.359  69.828  1.00  0.00    -0.236 OA 
BRANCH  24  27
HETATM   27  C   UNL     1     -11.942  11.601  68.588  1.00  0.00    -0.248 C  
BRANCH  27  28
HETATM   28  O   UNL     1     -12.355  12.041  69.892  1.00  0.00    -0.186 OA 
BRANCH  28  29
HETATM   29  C   UNL     1     -11.966  13.320  70.204  1.00  0.00    -0.318 A  
HETATM   30  C   UNL     1     -11.193  14.132  69.369  1.00  0.00    -0.298 A  
HETATM   31  C   UNL     1     -10.854  15.428  69.763  1.00  0.00    -0.297 A  
HETATM   32  C   UNL     1     -11.292  15.922  70.990  1.00  0.00    -0.434 A  
HETATM   33  C   UNL     1     -12.080  15.130  71.834  1.00  0.00    -0.448 A  
HETATM   34  C   UNL     1     -12.554  15.662  73.164  1.00  0.00    -0.476 C  
HETATM   35  C   UNL     1     -12.423  13.828  71.424  1.00  0.00    -0.404 A  
HETATM   36  F   UNL     1     -12.101  16.921  73.435  1.00  0.00    -0.515 F  
HETATM   37  F   UNL     1     -12.148  14.892  74.211  1.00  0.00    -0.668 F  
HETATM   38  F   UNL     1     -13.910  15.732  73.250  1.00  0.00    -0.589 F  
ENDBRANCH  28  29
ENDBRANCH  27  28
ENDBRANCH  24  27
ENDBRANCH  23  24
ENDBRANCH  20  22
ENDBRANCH  12  13
ENDBRANCH  11  12
ENDBRANCH   9  10
ENDBRANCH   8   9
ENDBRANCH   7   8
ENDBRANCH   5   7
ENDBRANCH   4   5
ENDBRANCH   2   4
TORSDOF 13
ENDMDL
MODEL        2
REMARK 921   NORMALIZED FREE ENERGY PREDICTED BY IDOCK:   -7.33 KCAL/MOL
REMARK 922        TOTAL FREE ENERGY PREDICTED BY IDOCK:  -15.12 KCAL/MOL
REMARK 923 INTER-LIGAND FREE ENERGY PREDICTED BY IDOCK:  -12.61 KCAL/MOL
REMARK 924 INTRA-LIGAND FREE ENERGY PREDICTED BY IDOCK:   -2.51 KCAL/MOL
REMARK 927      BINDING AFFINITY PREDICTED BY RF-SCORE:    0.00 PKD
ROOT
HETATM    1  C   UNL     1     -13.762  14.060  72.334  1.00  0.00    -0.669 C  
HETATM    2  C   UNL     1     -12.807  15.092  71.745  1.00  0.00    -0.355 C  
HETATM    3  C   UNL     1     -12.178  15.938  72.848  1.00  0.00    -0.605 C  
ENDROOT
BRANCH   2   4
HETATM    4  O   UNL     1     -11.740  14.414  71.057  1.00  0.00    -0.290 OA 
BRANCH   4   5
HETATM    5  C   UNL     1     -11.769  14.527  69.699  1.00  0.00    -0.307 C  
HETATM    6  O   UNL     1     -12.172  13.664  68.931  1.00  0.00    -0.336 OA 
BRANCH   5   7
HETATM    7  C   UNL     1     -11.178  15.845  69.272  1.00  0.00    -0.335 C  
BRANCH   7   8
HETATM    8  C   UNL     1      -9.652  15.758  69.286  1.00  0.00    -0.270 C  
BRANCH   8   9
HETATM    9  C   UNL     1      -9.000  16.271  68.005  1.00  0.00    -0.187 C  
BRANCH   9  10
HETATM   10  C   UNL     1      -9.972  16.978  67.100  1.00  0.00    -0.281 C  
HETATM   11  C   UNL     1     -10.410  16.532  65.912  1.00  0.00    -0.365 C  
BRANCH  11  12
HETATM   12  C   UNL     1      -9.953  15.276  65.223  1.00  0.00    -0.322 C  
BRANCH  12  13
HETATM   13  C   UNL     1     -10.836  14.062  65.539  1.00  0.00    -0.311 C  
HETATM   14  C   UNL     1     -12.303  14.181  65.108  1.00  0.00    -0.451 C  
HETATM   15  O   UNL     1     -12.432  14.846  63.856  1.00  0.00    -1.009 OA 
HETATM   16  C   UNL     1     -12.756  12.736  64.940  1.00  0.00    -0.479 C  
HETATM   17  C   UNL     1     -11.556  12.053  64.292  1.00  0.00    -0.358 C  
HETATM   18  H   UNL     1     -13.341  14.920  63.589  1.00  0.00     0.000 HD 
HETATM   19  O   UNL     1     -11.619  12.213  62.871  1.00  0.00    -0.621 OA 
HETATM   20  C   UNL     1     -10.303  12.778  64.842  1.00  0.00    -0.330 C  
HETATM   21  H   UNL     1     -10.871  11.788  62.467  1.00  0.00     0.000 HD 
BRANCH  20  22
HETATM   22  C   UNL     1      -9.426  12.004  65.810  1.00  0.00    -0.186 C  
HETATM   23  C   UNL     1      -9.290  12.237  67.129  1.00  0.00    -0.196 C  
BRANCH  23  24
HETATM   24  C   UNL     1      -8.378  11.512  68.095  1.00  0.00    -0.152 C  
HETATM   25  H   UNL     1      -7.014  12.002  69.414  1.00  0.00     0.000 HD 
HETATM   26  O   UNL     1      -7.587  12.458  68.808  1.00  0.00    -0.106 OA 
BRANCH  24  27
HETATM   27  C   UNL     1      -9.208  10.664  69.081  1.00  0.00    -0.148 C  
BRANCH  27  28
HETATM   28  O   UNL     1     -10.504  11.244  69.301  1.00  0.00    -0.197 OA 
BRANCH  28  29
HETATM   29  C   UNL     1     -11.316  10.509  70.129  1.00  0.00    -0.323 A  
HETATM   30  C   UNL     1     -12.356  11.048  70.890  1.00  0.00    -0.503 A  
HETATM   31  C   UNL     1     -13.142  10.221  71.697  1.00  0.00    -0.553 A  
HETATM   32  C   UNL     1     -12.895   8.851  71.740  1.00  0.00    -0.419 A  
HETATM   33  C   UNL     1     -11.867   8.289  70.974  1.00  0.00    -0.276 A  
HETATM   34  C   UNL     1     -11.599   6.805  71.021  1.00  0.00    -0.339 C  
HETATM   35  C   UNL     1     -11.088   9.130  70.158  1.00  0.00    -0.248 A  
HETATM   36  F   UNL     1     -12.409   6.136  71.891  1.00  0.00    -0.378 F  
HETATM   37  F   UNL     1     -10.326   6.515  71.408  1.00  0.00    -0.213 F  
HETATM   38  F   UNL     1     -11.773   6.200  69.814  1.00  0.00    -0.489 F  
ENDBRANCH  28  29
ENDBRANCH  27  28
ENDBRANCH  24  27
ENDBRANCH  23  24
ENDBRANCH  20  22
ENDBRANCH  12  13
ENDBRANCH  11  12
ENDBRANCH   9  10
ENDBRANCH   8   9
ENDBRANCH   7   8
ENDBRANCH   5   7
ENDBRANCH   4   5
ENDBRANCH   2   4
TORSDOF 13
ENDMDL
MODEL        3
REMARK 921   NORMALIZED FREE ENERGY PREDICTED BY IDOCK:   -7.29 KCAL/MOL
REMARK 922        TOTAL FREE ENERGY PREDICTED BY IDOCK:  -15.05 KCAL/MOL
REMARK 923 INTER-LIGAND FREE ENERGY PREDICTED BY IDOCK:  -12.59 KCAL/MOL
REMARK 924 INTRA-LIGAND FREE ENERGY PREDICTED BY IDOCK:   -2.45 KCAL/MOL
REMARK 927      BINDING AFFINITY PREDICTED BY RF-SCORE:    0.00 PKD
ROOT
HETATM    1  C   UNL     1      -8.792  10.533  66.985  1.00  0.00    -0.142 C  
HETATM    2  C   UNL     1      -9.412   9.546  66.002  1.00  0.00    -0.233 C  
HETATM    3  C   UNL     1     -10.111   8.412  66.744  1.00  0.00    -0.373 C  
ENDROOT
BRANCH   2   4
HETATM    4  O   UNL     1     -10.404  10.224  65.211  1.00  0.00    -0.278 OA 
BRANCH   4   5
HETATM    5  C   UNL     1      -9.973  10.647  63.988  1.00  0.00    -0.337 C  
HETATM    6  O   UNL     1      -9.382   9.952  63.174  1.00  0.00    -0.275 OA 
BRANCH   5   7
HETATM    7  C   UNL     1     -10.276  12.110  63.805  1.00  0.00    -0.449 C  
BRANCH   7   8
HETATM    8  C   UNL     1     -11.782  12.311  63.630  1.00  0.00    -0.591 C  
BRANCH   8   9
HETATM    9  C   UNL     1     -12.529  12.497  64.948  1.00  0.00    -0.524 C  
BRANCH   9  10
HETATM   10  C   UNL     1     -12.639  13.940  65.357  1.00  0.00    -0.538 C  
HETATM   11  C   UNL     1     -11.837  14.575  66.227  1.00  0.00    -0.354 C  
BRANCH  11  12
HETATM   12  C   UNL     1     -10.724  13.945  67.017  1.00  0.00    -0.283 C  
BRANCH  12  13
HETATM   13  C   UNL     1     -10.245  14.818  68.185  1.00  0.00    -0.228 C  
HETATM   14  C   UNL     1      -8.955  15.608  67.932  1.00  0.00    -0.180 C  
HETATM   15  O   UNL     1      -8.895  16.107  66.600  1.00  0.00    -0.212 OA 
HETATM   16  C   UNL     1      -9.054  16.790  68.890  1.00  0.00    -0.230 C  
HETATM   17  C   UNL     1     -10.524  17.190  68.821  1.00  0.00    -0.351 C  
HETATM   18  H   UNL     1      -8.096  16.597  66.444  1.00  0.00     0.000 HD 
HETATM   19  O   UNL     1     -10.728  18.090  67.727  1.00  0.00    -0.410 OA 
HETATM   20  C   UNL     1     -11.312  15.881  68.571  1.00  0.00    -0.374 C  
HETATM   21  H   UNL     1     -11.644  18.339  67.683  1.00  0.00     0.000 HD 
BRANCH  20  22
HETATM   22  C   UNL     1     -12.159  15.354  69.717  1.00  0.00    -0.373 C  
HETATM   23  C   UNL     1     -11.970  15.595  71.027  1.00  0.00    -0.445 C  
BRANCH  23  24
HETATM   24  C   UNL     1     -12.769  15.033  72.183  1.00  0.00    -0.331 C  
HETATM   25  H   UNL     1     -13.973  15.733  73.563  1.00  0.00     0.000 HD 
HETATM   26  O   UNL     1     -13.471  16.086  72.837  1.00  0.00    -0.533 OA 
BRANCH  24  27
HETATM   27  C   UNL     1     -13.763  13.967  71.679  1.00  0.00    -0.339 C  
BRANCH  27  28
HETATM   28  O   UNL     1     -13.523  12.696  72.304  1.00  0.00    -0.561 OA 
BRANCH  28  29
HETATM   29  C   UNL     1     -12.849  11.798  71.515  1.00  0.00    -0.345 A  
HETATM   30  C   UNL     1     -12.155  12.141  70.352  1.00  0.00    -0.395 A  
HETATM   31  C   UNL     1     -11.484  11.161  69.616  1.00  0.00    -0.383 A  
HETATM   32  C   UNL     1     -11.496   9.836  70.045  1.00  0.00    -0.232 A  
HETATM   33  C   UNL     1     -12.172   9.474  71.216  1.00  0.00    -0.433 A  
HETATM   34  C   UNL     1     -12.188   8.039  71.681  1.00  0.00    -0.307 C  
HETATM   35  C   UNL     1     -12.838  10.470  71.954  1.00  0.00    -0.509 A  
HETATM   36  F   UNL     1     -11.536   7.189  70.835  1.00  0.00    -0.286 F  
HETATM   37  F   UNL     1     -13.449   7.541  71.802  1.00  0.00    -0.352 F  
HETATM   38  F   UNL     1     -11.599   7.872  72.896  1.00  0.00    -0.410 F  
ENDBRANCH  28  29
ENDBRANCH  27  28
ENDBRANCH  24  27
ENDBRANCH  23  24
ENDBRANCH  20  22
ENDBRANCH  12  13
ENDBRANCH  11  12
ENDBRANCH   9  10
ENDBRANCH   8   9
ENDBRANCH   7   8
ENDBRANCH   5   7
ENDBRANCH   4   5
ENDBRANCH   2   4
TORSDOF 13
ENDMDL
MODEL        4
REMARK 921   NORMALIZED FREE ENERGY PREDICTED BY IDOCK:   -7.23 KCAL/MOL
REMARK 922        TOTAL FREE ENERGY PREDICTED BY IDOCK:  -14.95 KCAL/MOL
REMARK 923 INTER-LIGAND FREE ENERGY PREDICTED BY IDOCK:  -12.13 KCAL/MOL
REMARK 924 INTRA-LIGAND FREE ENERGY PREDICTED BY IDOCK:   -2.82 KCAL/MOL
REMARK 927      BINDING AFFINITY PREDICTED BY RF-SCORE:    0.00 PKD
ROOT
HETATM    1  C   UNL     1     -10.273   6.331  74.342  1.00  0.00    -0.339 C  
HETATM    2  C   UNL     1     -10.584   7.158  73.100  1.00  0.00    -0.336 C  
HETATM    3  C   UNL     1      -9.529   8.240  72.893  1.00  0.00    -0.321 C  
ENDROOT
BRANCH   2   4
HETATM    4  O   UNL     1     -10.561   6.303  71.942  1.00  0.00    -0.209 OA 
BRANCH   4   5
HETATM    5  C   UNL     1     -11.187   6.809  70.842  1.00  0.00    -0.292 C  
HETATM    6  O   UNL     1     -12.384   7.055  70.767  1.00  0.00    -0.352 OA 
BRANCH   5   7
HETATM    7  C   UNL     1     -10.208   6.967  69.710  1.00  0.00    -0.213 C  
BRANCH   7   8
HETATM    8  C   UNL     1     -10.915   6.728  68.375  1.00  0.00    -0.257 C  
BRANCH   8   9
HETATM    9  C   UNL     1     -10.351   7.561  67.228  1.00  0.00    -0.366 C  
BRANCH   9  10
HETATM   10  C   UNL     1      -9.430   8.653  67.700  1.00  0.00    -0.169 C  
HETATM   11  C   UNL     1      -9.649   9.973  67.585  1.00  0.00    -0.171 C  
BRANCH  11  12
HETATM   12  C   UNL     1     -10.821  10.612  66.894  1.00  0.00    -0.267 C  
BRANCH  12  13
HETATM   13  C   UNL     1     -10.407  11.633  65.826  1.00  0.00    -0.292 C  
HETATM   14  C   UNL     1      -9.814  11.042  64.542  1.00  0.00    -0.290 C  
HETATM   15  O   UNL     1     -10.479   9.843  64.157  1.00  0.00    -0.159 OA 
HETATM   16  C   UNL     1     -10.086  12.108  63.486  1.00  0.00    -0.410 C  
HETATM   17  C   UNL     1     -11.487  12.606  63.827  1.00  0.00    -0.470 C  
HETATM   18  H   UNL     1     -10.111   9.477  63.361  1.00  0.00     0.000 HD 
HETATM   19  O   UNL     1     -12.463  11.768  63.198  1.00  0.00    -0.894 OA 
HETATM   20  C   UNL     1     -11.618  12.493  65.366  1.00  0.00    -0.416 C  
HETATM   21  H   UNL     1     -13.335  12.078  63.411  1.00  0.00     0.000 HD 
BRANCH  20  22
HETATM   22  C   UNL     1     -11.646  13.790  66.154  1.00  0.00    -0.369 C  
HETATM   23  C   UNL     1     -10.603  14.372  66.774  1.00  0.00    -0.282 C  
BRANCH  23  24
HETATM   24  C   UNL     1     -10.627  15.634  67.611  1.00  0.00    -0.294 C  
HETATM   25  H   UNL     1     -10.628  17.566  67.282  1.00  0.00     0.000 HD 
HETATM   26  O   UNL     1     -10.614  16.774  66.757  1.00  0.00    -0.288 OA 
BRANCH  24  27
HETATM   27  C   UNL     1     -11.880  15.658  68.509  1.00  0.00    -0.237 C  
BRANCH  27  28
HETATM   28  O   UNL     1     -11.521  15.714  69.899  1.00  0.00    -0.285 OA 
BRANCH  28  29
HETATM   29  C   UNL     1     -12.153  14.779  70.681  1.00  0.00    -0.310 A  
HETATM   30  C   UNL     1     -12.998  15.091  71.750  1.00  0.00    -0.429 A  
HETATM   31  C   UNL     1     -13.610  14.072  72.484  1.00  0.00    -0.670 A  
HETATM   32  C   UNL     1     -13.387  12.739  72.149  1.00  0.00    -0.593 A  
HETATM   33  C   UNL     1     -12.556  12.406  71.073  1.00  0.00    -0.349 A  
HETATM   34  C   UNL     1     -12.312  10.962  70.710  1.00  0.00    -0.390 C  
HETATM   35  C   UNL     1     -11.951  13.440  70.335  1.00  0.00    -0.358 A  
HETATM   36  F   UNL     1     -12.932  10.081  71.548  1.00  0.00    -0.383 F  
HETATM   37  F   UNL     1     -10.991  10.631  70.741  1.00  0.00    -0.343 F  
HETATM   38  F   UNL     1     -12.749  10.652  69.459  1.00  0.00    -0.328 F  
ENDBRANCH  28  29
ENDBRANCH  27  28
ENDBRANCH  24  27
ENDBRANCH  23  24
ENDBRANCH  20  22
ENDBRANCH  12  13
ENDBRANCH  11  12
ENDBRANCH   9  10
ENDBRANCH   8   9
ENDBRANCH   7   8
ENDBRANCH   5   7
ENDBRANCH   4   5
ENDBRANCH   2   4
TORSDOF 13
ENDMDL
MODEL        5
REMARK 921   NORMALIZED FREE ENERGY PREDICTED BY IDOCK:   -7.21 KCAL/MOL
REMARK 922        TOTAL FREE ENERGY PREDICTED BY IDOCK:  -14.90 KCAL/MOL
REMARK 923 INTER-LIGAND FREE ENERGY PREDICTED BY IDOCK:  -12.48 KCAL/MOL
REMARK 924 INTRA-LIGAND FREE ENERGY PREDICTED BY IDOCK:   -2.42 KCAL/MOL
REMARK 927      BINDING AFFINITY PREDICTED BY RF-SCORE:    0.00 PKD
ROOT
HETATM    1  C   UNL     1     -10.138  11.473  63.166  1.00  0.00    -0.395 C  
HETATM    2  C   UNL     1     -11.280  12.480  63.248  1.00  0.00    -0.265 C  
HETATM    3  C   UNL     1     -12.614  11.769  63.456  1.00  0.00    -0.485 C  
ENDROOT
BRANCH   2   4
HETATM    4  O   UNL     1     -11.069  13.346  64.378  1.00  0.00    -0.363 OA 
BRANCH   4   5
HETATM    5  C   UNL     1     -12.128  14.144  64.695  1.00  0.00    -0.452 C  
HETATM    6  O   UNL     1     -12.666  14.932  63.929  1.00  0.00    -0.789 OA 
BRANCH   5   7
HETATM    7  C   UNL     1     -12.504  13.964  66.141  1.00  0.00    -0.478 C  
BRANCH   7   8
HETATM    8  C   UNL     1     -11.637  12.873  66.771  1.00  0.00    -0.416 C  
BRANCH   8   9
HETATM    9  C   UNL     1     -10.655  13.401  67.812  1.00  0.00    -0.252 C  
BRANCH   9  10
HETATM   10  C   UNL     1      -9.236  13.429  67.313  1.00  0.00    -0.222 C  
HETATM   11  C   UNL     1      -8.603  14.494  66.796  1.00  0.00    -0.163 C  
BRANCH  11  12
HETATM   12  C   UNL     1      -9.217  15.844  66.547  1.00  0.00    -0.310 C  
BRANCH  12  13
HETATM   13  C   UNL     1      -8.913  16.858  67.657  1.00  0.00    -0.219 C  
HETATM   14  C   UNL     1      -8.299  18.184  67.190  1.00  0.00    -0.238 C  
HETATM   15  O   UNL     1      -8.868  18.625  65.962  1.00  0.00    -0.489 OA 
HETATM   16  C   UNL     1      -8.681  19.173  68.285  1.00  0.00    -0.375 C  
HETATM   17  C   UNL     1     -10.112  18.782  68.643  1.00  0.00    -0.380 C  
HETATM   18  H   UNL     1      -8.488  19.446  65.673  1.00  0.00     0.000 HD 
HETATM   19  O   UNL     1     -11.026  19.441  67.761  1.00  0.00    -0.377 OA 
HETATM   20  C   UNL     1     -10.201  17.250  68.435  1.00  0.00    -0.358 C  
HETATM   21  H   UNL     1     -11.917  19.197  67.984  1.00  0.00     0.000 HD 
BRANCH  20  22
HETATM   22  C   UNL     1     -10.321  16.389  69.680  1.00  0.00    -0.244 C  
HETATM   23  C   UNL     1     -11.457  16.088  70.337  1.00  0.00    -0.392 C  
BRANCH  23  24
HETATM   24  C   UNL     1     -11.588  15.278  71.609  1.00  0.00    -0.408 C  
HETATM   25  H   UNL     1     -11.924  15.642  73.505  1.00  0.00     0.000 HD 
HETATM   26  O   UNL     1     -11.842  16.150  72.707  1.00  0.00    -0.486 OA 
BRANCH  24  27
HETATM   27  C   UNL     1     -12.728  14.249  71.474  1.00  0.00    -0.350 C  
BRANCH  27  28
HETATM   28  O   UNL     1     -12.479  13.336  70.393  1.00  0.00    -0.295 OA 
BRANCH  28  29
HETATM   29  C   UNL     1     -12.453  12.016  70.766  1.00  0.00    -0.279 A  
HETATM   30  C   UNL     1     -13.264  11.464  71.762  1.00  0.00    -0.472 A  
HETATM   31  C   UNL     1     -13.179  10.104  72.067  1.00  0.00    -0.534 A  
HETATM   32  C   UNL     1     -12.290   9.287  71.373  1.00  0.00    -0.421 A  
HETATM   33  C   UNL     1     -11.480   9.816  70.362  1.00  0.00    -0.347 A  
HETATM   34  C   UNL     1     -10.515   8.933  69.610  1.00  0.00    -0.216 C  
HETATM   35  C   UNL     1     -11.579  11.186  70.057  1.00  0.00    -0.421 A  
HETATM   36  F   UNL     1     -10.505   7.642  70.054  1.00  0.00    -0.208 F  
HETATM   37  F   UNL     1      -9.227   9.364  69.706  1.00  0.00    -0.148 F  
HETATM   38  F   UNL     1     -10.791   8.864  68.280  1.00  0.00    -0.240 F  
ENDBRANCH  28  29
ENDBRANCH  27  28
ENDBRANCH  24  27
ENDBRANCH  23  24
ENDBRANCH  20  22
ENDBRANCH  12  13
ENDBRANCH  11  12
ENDBRANCH   9  10
ENDBRANCH   8   9
ENDBRANCH   7   8
ENDBRANCH   5   7
ENDBRANCH   4   5
ENDBRANCH   2   4
TORSDOF 13
ENDMDL
MODEL        6
REMARK 921   NORMALIZED FREE ENERGY PREDICTED BY IDOCK:   -7.18 KCAL/MOL
REMARK 922        TOTAL FREE ENERGY PREDICTED BY IDOCK:  -14.87 KCAL/MOL
REMARK 923 INTER-LIGAND FREE ENERGY PREDICTED BY IDOCK:  -11.42 KCAL/MOL
REMARK 924 INTRA-LIGAND FREE ENERGY PREDICTED BY IDOCK:   -3.45 KCAL/MOL
REMARK 927      BINDING AFFINITY PREDICTED BY RF-SCORE:    0.00 PKD
ROOT
HETATM    1  C   UNL     1      -9.351  19.901  66.055  1.00  0.00    -0.370 C  
HETATM    2  C   UNL     1      -9.368  19.048  67.319  1.00  0.00    -0.304 C  
HETATM    3  C   UNL     1     -10.385  19.586  68.321  1.00  0.00    -0.524 C  
ENDROOT
BRANCH   2   4
HETATM    4  O   UNL     1      -9.762  17.706  66.980  1.00  0.00    -0.273 OA 
BRANCH   4   5
HETATM    5  C   UNL     1      -8.754  16.788  67.009  1.00  0.00    -0.204 C  
HETATM    6  O   UNL     1      -7.744  16.875  67.694  1.00  0.00    -0.160 OA 
BRANCH   5   7
HETATM    7  C   UNL     1      -9.032  15.677  66.031  1.00  0.00    -0.297 C  
BRANCH   7   8
HETATM    8  C   UNL     1     -10.471  15.779  65.524  1.00  0.00    -0.425 C  
BRANCH   8   9
HETATM    9  C   UNL     1     -11.015  14.469  64.963  1.00  0.00    -0.408 C  
BRANCH   9  10
HETATM   10  C   UNL     1     -12.170  13.928  65.761  1.00  0.00    -0.488 C  
HETATM   11  C   UNL     1     -12.082  13.096  66.811  1.00  0.00    -0.389 C  
BRANCH  11  12
HETATM   12  C   UNL     1     -10.815  12.484  67.342  1.00  0.00    -0.272 C  
BRANCH  12  13
HETATM   13  C   UNL     1     -10.671  10.997  66.989  1.00  0.00    -0.319 C  
HETATM   14  C   UNL     1     -10.074  10.701  65.609  1.00  0.00    -0.272 C  
HETATM   15  O   UNL     1      -9.032  11.613  65.278  1.00  0.00    -0.407 OA 
HETATM   16  C   UNL     1      -9.471   9.309  65.759  1.00  0.00    -0.329 C  
HETATM   17  C   UNL     1      -8.853   9.331  67.154  1.00  0.00    -0.127 C  
HETATM   18  H   UNL     1      -8.662  11.429  64.422  1.00  0.00     0.000 HD 
HETATM   19  O   UNL     1      -7.529   9.871  67.086  1.00  0.00    -0.091 OA 
HETATM   20  C   UNL     1      -9.751  10.261  68.005  1.00  0.00    -0.167 C  
HETATM   21  H   UNL     1      -7.144   9.885  67.955  1.00  0.00     0.000 HD 
BRANCH  20  22
HETATM   22  C   UNL     1     -10.604   9.607  69.078  1.00  0.00    -0.237 C  
HETATM   23  C   UNL     1     -10.875  10.106  70.298  1.00  0.00    -0.370 C  
BRANCH  23  24
HETATM   24  C   UNL     1     -11.675   9.442  71.398  1.00  0.00    -0.378 C  
HETATM   25  H   UNL     1     -11.304   8.623  73.140  1.00  0.00     0.000 HD 
HETATM   26  O   UNL     1     -10.802   9.040  72.450  1.00  0.00    -0.189 OA 
BRANCH  24  27
HETATM   27  C   UNL     1     -12.747  10.409  71.940  1.00  0.00    -0.357 C  
BRANCH  27  28
HETATM   28  O   UNL     1     -13.131  11.370  70.942  1.00  0.00    -0.189 OA 
BRANCH  28  29
HETATM   29  C   UNL     1     -12.976  12.677  71.331  1.00  0.00    -0.258 A  
HETATM   30  C   UNL     1     -13.521  13.220  72.497  1.00  0.00    -0.620 A  
HETATM   31  C   UNL     1     -13.300  14.561  72.821  1.00  0.00    -0.600 A  
HETATM   32  C   UNL     1     -12.527  15.363  71.984  1.00  0.00    -0.450 A  
HETATM   33  C   UNL     1     -11.959  14.834  70.819  1.00  0.00    -0.371 A  
HETATM   34  C   UNL     1     -11.123  15.702  69.911  1.00  0.00    -0.319 C  
HETATM   35  C   UNL     1     -12.181  13.480  70.506  1.00  0.00    -0.433 A  
HETATM   36  F   UNL     1     -11.040  16.999  70.328  1.00  0.00    -0.260 F  
HETATM   37  F   UNL     1     -11.611  15.754  68.641  1.00  0.00    -0.324 F  
HETATM   38  F   UNL     1      -9.838  15.266  69.803  1.00  0.00    -0.234 F  
ENDBRANCH  28  29
ENDBRANCH  27  28
ENDBRANCH  24  27
ENDBRANCH  23  24
ENDBRANCH  20  22
ENDBRANCH  12  13
ENDBRANCH  11  12
ENDBRANCH   9  10
ENDBRANCH   8   9
ENDBRANCH   7   8
ENDBRANCH   5   7
ENDBRANCH   4   5
ENDBRANCH   2   4
TORSDOF 13
ENDMDL
MODEL        7
REMARK 921   NORMALIZED FREE ENERGY PREDICTED BY IDOCK:   -7.17 KCAL/MOL
REMARK 922        TOTAL FREE ENERGY PREDICTED BY IDOCK:  -14.85 KCAL/MOL
REMARK 923 INTER-LIGAND FREE ENERGY PREDICTED BY IDOCK:  -12.26 KCAL/MOL
REMARK 924 INTRA-LIGAND FREE ENERGY PREDICTED BY IDOCK:   -2.59 KCAL/MOL
REMARK 927      BINDING AFFINITY PREDICTED BY RF-SCORE:    0.00 PKD
ROOT
HETATM    1  C   UNL     1      -9.194  11.522  66.414  1.00  0.00    -0.218 C  
HETATM    2  C   UNL     1      -9.476  10.444  65.374  1.00  0.00    -0.232 C  
HETATM    3  C   UNL     1      -9.687   9.089  66.044  1.00  0.00    -0.339 C  
ENDROOT
BRANCH   2   4
HETATM    4  O   UNL     1     -10.686  10.771  64.667  1.00  0.00    -0.284 OA 
BRANCH   4   5
HETATM    5  C   UNL     1     -10.515  11.563  63.571  1.00  0.00    -0.428 C  
HETATM    6  O   UNL     1      -9.565  11.502  62.803  1.00  0.00    -0.358 OA 
BRANCH   5   7
HETATM    7  C   UNL     1     -11.632  12.568  63.473  1.00  0.00    -0.584 C  
BRANCH   7   8
HETATM    8  C   UNL     1     -12.484  12.522  64.741  1.00  0.00    -0.532 C  
BRANCH   8   9
HETATM    9  C   UNL     1     -12.152  13.628  65.739  1.00  0.00    -0.463 C  
BRANCH   9  10
HETATM   10  C   UNL     1     -11.822  14.935  65.072  1.00  0.00    -0.299 C  
HETATM   11  C   UNL     1     -10.685  15.632  65.226  1.00  0.00    -0.444 C  
BRANCH  11  12
HETATM   12  C   UNL     1      -9.557  15.279  66.155  1.00  0.00    -0.353 C  
BRANCH  12  13
HETATM   13  C   UNL     1      -9.414  16.259  67.328  1.00  0.00    -0.231 C  
HETATM   14  C   UNL     1      -8.355  17.354  67.148  1.00  0.00    -0.214 C  
HETATM   15  O   UNL     1      -8.320  17.838  65.809  1.00  0.00    -0.529 OA 
HETATM   16  C   UNL     1      -8.831  18.479  68.059  1.00  0.00    -0.317 C  
HETATM   17  C   UNL     1     -10.345  18.484  67.869  1.00  0.00    -0.392 C  
HETATM   18  H   UNL     1      -7.664  18.517  65.698  1.00  0.00     0.000 HD 
HETATM   19  O   UNL     1     -10.686  19.289  66.736  1.00  0.00    -0.442 OA 
HETATM   20  C   UNL     1     -10.746  17.012  67.602  1.00  0.00    -0.295 C  
HETATM   21  H   UNL     1     -11.629  19.291  66.617  1.00  0.00     0.000 HD 
BRANCH  20  22
HETATM   22  C   UNL     1     -11.516  16.296  68.697  1.00  0.00    -0.288 C  
HETATM   23  C   UNL     1     -10.998  15.747  69.811  1.00  0.00    -0.316 C  
BRANCH  23  24
HETATM   24  C   UNL     1     -11.744  14.981  70.883  1.00  0.00    -0.328 C  
HETATM   25  H   UNL     1     -13.069  15.387  72.269  1.00  0.00     0.000 HD 
HETATM   26  O   UNL     1     -12.601  15.867  71.596  1.00  0.00    -0.442 OA 
BRANCH  24  27
HETATM   27  C   UNL     1     -12.567  13.840  70.252  1.00  0.00    -0.222 C  
BRANCH  27  28
HETATM   28  O   UNL     1     -11.726  12.736  69.882  1.00  0.00    -0.302 OA 
BRANCH  28  29
HETATM   29  C   UNL     1     -12.026  11.560  70.523  1.00  0.00    -0.344 A  
HETATM   30  C   UNL     1     -13.032  11.423  71.483  1.00  0.00    -0.505 A  
HETATM   31  C   UNL     1     -13.277  10.182  72.075  1.00  0.00    -0.534 A  
HETATM   32  C   UNL     1     -12.523   9.071  71.705  1.00  0.00    -0.438 A  
HETATM   33  C   UNL     1     -11.521   9.183  70.734  1.00  0.00    -0.337 A  
HETATM   34  C   UNL     1     -10.702   7.981  70.333  1.00  0.00    -0.233 C  
HETATM   35  C   UNL     1     -11.288  10.436  70.138  1.00  0.00    -0.397 A  
HETATM   36  F   UNL     1     -11.019   6.853  71.034  1.00  0.00    -0.249 F  
HETATM   37  F   UNL     1      -9.367   8.169  70.524  1.00  0.00    -0.150 F  
HETATM   38  F   UNL     1     -10.854   7.655  69.021  1.00  0.00    -0.218 F  
ENDBRANCH  28  29
ENDBRANCH  27  28
ENDBRANCH  24  27
ENDBRANCH  23  24
ENDBRANCH  20  22
ENDBRANCH  12  13
ENDBRANCH  11  12
ENDBRANCH   9  10
ENDBRANCH   8   9
ENDBRANCH   7   8
ENDBRANCH   5   7
ENDBRANCH   4   5
ENDBRANCH   2   4
TORSDOF 13
ENDMDL
MODEL        8
REMARK 921   NORMALIZED FREE ENERGY PREDICTED BY IDOCK:   -7.17 KCAL/MOL
REMARK 922        TOTAL FREE ENERGY PREDICTED BY IDOCK:  -14.83 KCAL/MOL
REMARK 923 INTER-LIGAND FREE ENERGY PREDICTED BY IDOCK:  -11.90 KCAL/MOL
REMARK 924 INTRA-LIGAND FREE ENERGY PREDICTED BY IDOCK:   -2.94 KCAL/MOL
REMARK 927      BINDING AFFINITY PREDICTED BY RF-SCORE:    0.00 PKD
ROOT
HETATM    1  C   UNL     1     -12.181   8.315  72.157  1.00  0.00    -0.418 C  
HETATM    2  C   UNL     1     -11.067   7.317  72.457  1.00  0.00    -0.293 C  
HETATM    3  C   UNL     1     -11.634   5.911  72.629  1.00  0.00    -0.289 C  
ENDROOT
BRANCH   2   4
HETATM    4  O   UNL     1     -10.149   7.283  71.349  1.00  0.00    -0.188 OA 
BRANCH   4   5
HETATM    5  C   UNL     1      -9.194   8.255  71.365  1.00  0.00    -0.169 C  
HETATM    6  O   UNL     1      -8.642   8.681  72.370  1.00  0.00    -0.341 OA 
BRANCH   5   7
HETATM    7  C   UNL     1      -8.957   8.776  69.972  1.00  0.00    -0.162 C  
BRANCH   7   8
HETATM    8  C   UNL     1      -9.601  10.153  69.816  1.00  0.00    -0.213 C  
BRANCH   8   9
HETATM    9  C   UNL     1     -11.096  10.097  69.514  1.00  0.00    -0.295 C  
BRANCH   9  10
HETATM   10  C   UNL     1     -11.574  11.278  68.715  1.00  0.00    -0.383 C  
HETATM   11  C   UNL     1     -12.034  12.435  69.217  1.00  0.00    -0.308 C  
BRANCH  11  12
HETATM   12  C   UNL     1     -12.233  12.741  70.676  1.00  0.00    -0.374 C  
BRANCH  12  13
HETATM   13  C   UNL     1     -12.753  14.163  70.927  1.00  0.00    -0.432 C  
HETATM   14  C   UNL     1     -13.973  14.267  71.850  1.00  0.00    -0.478 C  
HETATM   15  O   UNL     1     -13.901  13.337  72.925  1.00  0.00    -0.661 OA 
HETATM   16  C   UNL     1     -13.884  15.677  72.420  1.00  0.00    -0.616 C  
HETATM   17  C   UNL     1     -12.393  15.871  72.677  1.00  0.00    -0.485 C  
HETATM   18  H   UNL     1     -14.657  13.402  73.497  1.00  0.00     0.000 HD 
HETATM   19  O   UNL     1     -12.054  15.353  73.967  1.00  0.00    -0.551 OA 
HETATM   20  C   UNL     1     -11.662  15.057  71.581  1.00  0.00    -0.439 C  
HETATM   21  H   UNL     1     -11.125  15.473  74.127  1.00  0.00     0.000 HD 
BRANCH  20  22
HETATM   22  C   UNL     1     -10.938  15.843  70.502  1.00  0.00    -0.346 C  
HETATM   23  C   UNL     1     -10.004  15.369  69.658  1.00  0.00    -0.270 C  
BRANCH  23  24
HETATM   24  C   UNL     1      -9.233  16.152  68.616  1.00  0.00    -0.220 C  
HETATM   25  H   UNL     1      -7.374  16.699  68.325  1.00  0.00     0.000 HD 
HETATM   26  O   UNL     1      -7.857  16.207  68.979  1.00  0.00    -0.205 OA 
BRANCH  24  27
HETATM   27  C   UNL     1      -9.390  15.496  67.229  1.00  0.00    -0.212 C  
BRANCH  27  28
HETATM   28  O   UNL     1      -8.571  14.321  67.115  1.00  0.00    -0.206 OA 
BRANCH  28  29
HETATM   29  C   UNL     1      -9.191  13.260  66.504  1.00  0.00    -0.172 A  
HETATM   30  C   UNL     1      -8.707  11.949  66.523  1.00  0.00    -0.158 A  
HETATM   31  C   UNL     1      -9.413  10.928  65.882  1.00  0.00    -0.241 A  
HETATM   32  C   UNL     1     -10.609  11.210  65.228  1.00  0.00    -0.303 A  
HETATM   33  C   UNL     1     -11.120  12.514  65.211  1.00  0.00    -0.332 A  
HETATM   34  C   UNL     1     -12.415  12.821  64.501  1.00  0.00    -0.428 C  
HETATM   35  C   UNL     1     -10.405  13.534  65.865  1.00  0.00    -0.301 A  
HETATM   36  F   UNL     1     -12.962  11.737  63.879  1.00  0.00    -0.526 F  
HETATM   37  F   UNL     1     -12.269  13.767  63.532  1.00  0.00    -0.520 F  
HETATM   38  F   UNL     1     -13.378  13.288  65.342  1.00  0.00    -0.364 F  
ENDBRANCH  28  29
ENDBRANCH  27  28
ENDBRANCH  24  27
ENDBRANCH  23  24
ENDBRANCH  20  22
ENDBRANCH  12  13
ENDBRANCH  11  12
ENDBRANCH   9  10
ENDBRANCH   8   9
ENDBRANCH   7   8
ENDBRANCH   5   7
ENDBRANCH   4   5
ENDBRANCH   2   4
TORSDOF 13
ENDMDL
MODEL        9
REMARK 921   NORMALIZED FREE ENERGY PREDICTED BY IDOCK:   -7.12 KCAL/MOL
REMARK 922        TOTAL FREE ENERGY PREDICTED BY IDOCK:  -14.75 KCAL/MOL
REMARK 923 INTER-LIGAND FREE ENERGY PREDICTED BY IDOCK:  -12.08 KCAL/MOL
REMARK 924 INTRA-LIGAND FREE ENERGY PREDICTED BY IDOCK:   -2.67 KCAL/MOL
REMARK 927      BINDING AFFINITY PREDICTED BY RF-SCORE:    0.00 PKD
ROOT
HETATM    1  C   UNL     1     -14.321  15.091  72.041  1.00  0.00    -0.666 C  
HETATM    2  C   UNL     1     -12.955  15.751  71.893  1.00  0.00    -0.442 C  
HETATM    3  C   UNL     1     -12.405  16.167  73.253  1.00  0.00    -0.647 C  
ENDROOT
BRANCH   2   4
HETATM    4  O   UNL     1     -12.031  14.806  71.322  1.00  0.00    -0.319 OA 
BRANCH   4   5
HETATM    5  C   UNL     1     -11.915  14.864  69.965  1.00  0.00    -0.329 C  
HETATM    6  O   UNL     1     -11.841  15.895  69.311  1.00  0.00    -0.371 OA 
BRANCH   5   7
HETATM    7  C   UNL     1     -11.952  13.478  69.378  1.00  0.00    -0.383 C  
BRANCH   7   8
HETATM    8  C   UNL     1     -12.327  12.466  70.461  1.00  0.00    -0.346 C  
BRANCH   8   9
HETATM    9  C   UNL     1     -12.278  11.017  69.984  1.00  0.00    -0.418 C  
BRANCH   9  10
HETATM   10  C   UNL     1     -12.895  10.059  70.967  1.00  0.00    -0.455 C  
HETATM   11  C   UNL     1     -12.227   9.217  71.771  1.00  0.00    -0.457 C  
BRANCH  11  12
HETATM   12  C   UNL     1     -10.737   9.015  71.787  1.00  0.00    -0.437 C  
BRANCH  12  13
HETATM   13  C   UNL     1     -10.328   7.539  71.687  1.00  0.00    -0.217 C  
HETATM   14  C   UNL     1      -9.936   6.872  73.011  1.00  0.00    -0.187 C  
HETATM   15  O   UNL     1     -10.759   7.309  74.086  1.00  0.00    -0.565 OA 
HETATM   16  C   UNL     1     -10.200   5.390  72.768  1.00  0.00    -0.222 C  
HETATM   17  C   UNL     1     -11.499   5.380  71.967  1.00  0.00     0.029 C  
HETATM   18  H   UNL     1     -10.516   6.895  74.906  1.00  0.00     0.000 HD 
HETATM   19  O   UNL     1     -12.617   5.409  72.861  1.00  0.00    -0.446 OA 
HETATM   20  C   UNL     1     -11.483   6.670  71.112  1.00  0.00    -0.370 C  
HETATM   21  H   UNL     1     -13.425   5.404  72.362  1.00  0.00     0.000 HD 
BRANCH  20  22
HETATM   22  C   UNL     1     -11.293   6.505  69.614  1.00  0.00    -0.443 C  
HETATM   23  C   UNL     1     -10.355   7.102  68.856  1.00  0.00    -0.202 C  
BRANCH  23  24
HETATM   24  C   UNL     1     -10.188   6.992  67.356  1.00  0.00    -0.215 C  
HETATM   25  H   UNL     1     -11.136   6.131  65.872  1.00  0.00     0.000 HD 
HETATM   26  O   UNL     1     -11.241   6.200  66.814  1.00  0.00    -0.279 OA 
BRANCH  24  27
HETATM   27  C   UNL     1     -10.193   8.393  66.712  1.00  0.00    -0.306 C  
BRANCH  27  28
HETATM   28  O   UNL     1      -9.978   9.418  67.695  1.00  0.00    -0.169 OA 
BRANCH  28  29
HETATM   29  C   UNL     1      -9.925  10.689  67.182  1.00  0.00    -0.195 A  
HETATM   30  C   UNL     1      -9.055  11.685  67.635  1.00  0.00    -0.174 A  
HETATM   31  C   UNL     1      -9.061  12.950  67.043  1.00  0.00    -0.228 A  
HETATM   32  C   UNL     1      -9.931  13.223  65.989  1.00  0.00    -0.297 A  
HETATM   33  C   UNL     1     -10.799  12.235  65.510  1.00  0.00    -0.319 A  
HETATM   34  C   UNL     1     -11.742  12.530  64.370  1.00  0.00    -0.368 C  
HETATM   35  C   UNL     1     -10.779  10.962  66.108  1.00  0.00    -0.225 A  
HETATM   36  F   UNL     1     -11.672  13.820  63.930  1.00  0.00    -0.414 F  
HETATM   37  F   UNL     1     -13.047  12.326  64.703  1.00  0.00    -0.543 F  
HETATM   38  F   UNL     1     -11.506  11.754  63.277  1.00  0.00    -0.455 F  
ENDBRANCH  28  29
ENDBRANCH  27  28
ENDBRANCH  24  27
ENDBRANCH  23  24
ENDBRANCH  20  22
ENDBRANCH  12  13
ENDBRANCH  11  12
ENDBRANCH   9  10
ENDBRANCH   8   9
ENDBRANCH   7   8
ENDBRANCH   5   7
ENDBRANCH   4   5
ENDBRANCH   2   4
TORSDOF 13
ENDMDL
MODEL       10
REMARK 921   NORMALIZED FREE ENERGY PREDICTED BY IDOCK:   -7.12 KCAL/MOL
REMARK 922        TOTAL FREE ENERGY PREDICTED BY IDOCK:  -14.75 KCAL/MOL
REMARK 923 INTER-LIGAND FREE ENERGY PREDICTED BY IDOCK:  -10.83 KCAL/MOL
REMARK 924 INTRA-LIGAND FREE ENERGY PREDICTED BY IDOCK:   -3.92 KCAL/MOL
REMARK 927      BINDING AFFINITY PREDICTED BY RF-SCORE:    0.00 PKD
ROOT
HETATM    1  C   UNL     1     -11.256   9.055  71.167  1.00  0.00    -0.375 C  
HETATM    2  C   UNL     1      -9.811   9.219  70.710  1.00  0.00    -0.283 C  
HETATM    3  C   UNL     1      -8.856   8.531  71.681  1.00  0.00    -0.272 C  
ENDROOT
BRANCH   2   4
HETATM    4  O   UNL     1      -9.645   8.596  69.424  1.00  0.00    -0.163 OA 
BRANCH   4   5
HETATM    5  C   UNL     1      -8.740   9.202  68.605  1.00  0.00    -0.129 C  
HETATM    6  O   UNL     1      -7.526   9.064  68.675  1.00  0.00    -0.081 OA 
BRANCH   5   7
HETATM    7  C   UNL     1      -9.443  10.115  67.635  1.00  0.00    -0.166 C  
BRANCH   7   8
HETATM    8  C   UNL     1      -9.034  11.564  67.897  1.00  0.00    -0.159 C  
BRANCH   8   9
HETATM    9  C   UNL     1     -10.211  12.482  68.216  1.00  0.00    -0.235 C  
BRANCH   9  10
HETATM   10  C   UNL     1     -11.522  11.747  68.280  1.00  0.00    -0.370 C  
HETATM   11  C   UNL     1     -12.387  11.767  69.306  1.00  0.00    -0.047 C  
BRANCH  11  12
HETATM   12  C   UNL     1     -12.175  12.467  70.620  1.00  0.00    -0.365 C  
BRANCH  12  13
HETATM   13  C   UNL     1     -12.986  13.763  70.750  1.00  0.00    -0.238 C  
HETATM   14  C   UNL     1     -13.906  13.847  71.974  1.00  0.00    -0.497 C  
HETATM   15  O   UNL     1     -13.303  13.269  73.126  1.00  0.00    -0.445 OA 
HETATM   16  C   UNL     1     -14.069  15.344  72.210  1.00  0.00    -0.660 C  
HETATM   17  C   UNL     1     -12.677  15.907  71.941  1.00  0.00    -0.424 C  
HETATM   18  H   UNL     1     -13.874  13.321  73.885  1.00  0.00     0.000 HD 
HETATM   19  O   UNL     1     -11.886  15.828  73.131  1.00  0.00    -0.444 OA 
HETATM   20  C   UNL     1     -12.057  15.006  70.845  1.00  0.00    -0.380 C  
HETATM   21  H   UNL     1     -11.019  16.179  72.964  1.00  0.00     0.000 HD 
BRANCH  20  22
HETATM   22  C   UNL     1     -11.884  15.615  69.465  1.00  0.00    -0.387 C  
HETATM   23  C   UNL     1     -10.759  16.159  68.965  1.00  0.00    -0.287 C  
BRANCH  23  24
HETATM   24  C   UNL     1     -10.586  16.820  67.615  1.00  0.00    -0.325 C  
HETATM   25  H   UNL     1      -9.701  18.421  66.910  1.00  0.00     0.000 HD 
HETATM   26  O   UNL     1      -9.809  18.006  67.758  1.00  0.00    -0.285 OA 
BRANCH  24  27
HETATM   27  C   UNL     1      -9.899  15.854  66.629  1.00  0.00    -0.254 C  
BRANCH  27  28
HETATM   28  O   UNL     1     -10.640  15.751  65.401  1.00  0.00    -0.372 OA 
BRANCH  28  29
HETATM   29  C   UNL     1     -11.123  14.493  65.139  1.00  0.00    -0.370 A  
HETATM   30  C   UNL     1     -12.457  14.113  65.306  1.00  0.00    -0.474 A  
HETATM   31  C   UNL     1     -12.862  12.811  65.001  1.00  0.00    -0.312 A  
HETATM   32  C   UNL     1     -11.938  11.887  64.519  1.00  0.00    -0.281 A  
HETATM   33  C   UNL     1     -10.600  12.253  64.329  1.00  0.00    -0.387 A  
HETATM   34  C   UNL     1      -9.597  11.252  63.808  1.00  0.00    -0.259 C  
HETATM   35  C   UNL     1     -10.204  13.568  64.632  1.00  0.00    -0.341 A  
HETATM   36  F   UNL     1     -10.127  10.011  63.606  1.00  0.00    -0.249 F  
HETATM   37  F   UNL     1      -8.549  11.071  64.659  1.00  0.00    -0.150 F  
HETATM   38  F   UNL     1      -9.056  11.622  62.616  1.00  0.00    -0.362 F  
ENDBRANCH  28  29
ENDBRANCH  27  28
ENDBRANCH  24  27
ENDBRANCH  23  24
ENDBRANCH  20  22
ENDBRANCH  12  13
ENDBRANCH  11  12
ENDBRANCH   9  10
ENDBRANCH   8   9
ENDBRANCH   7   8
ENDBRANCH   5   7
ENDBRANCH   4   5
ENDBRANCH   2   4
TORSDOF 13
ENDMDL
MODEL       11
REMARK 921   NORMALIZED FREE ENERGY PREDICTED BY IDOCK:   -7.08 KCAL/MOL
REMARK 922        TOTAL FREE ENERGY PREDICTED BY IDOCK:  -14.69 KCAL/MOL
REMARK 923 INTER-LIGAND FREE ENERGY PREDICTED BY IDOCK:  -11.00 KCAL/MOL
REMARK 924 INTRA-LIGAND FREE ENERGY PREDICTED BY IDOCK:   -3.69 KCAL/MOL
REMARK 927      BINDING AFFINITY PREDICTED BY RF-SCORE:    0.00 PKD
ROOT
HETATM    1  C   UNL     1      -9.879   4.836  68.370  1.00  0.00    -0.187 C  
HETATM    2  C   UNL     1     -10.474   6.227  68.556  1.00  0.00    -0.229 C  
HETATM    3  C   UNL     1     -11.104   6.723  67.258  1.00  0.00    -0.394 C  
ENDROOT
BRANCH   2   4
HETATM    4  O   UNL     1     -11.515   6.170  69.548  1.00  0.00    -0.429 OA 
BRANCH   4   5
HETATM    5  C   UNL     1     -11.378   7.056  70.575  1.00  0.00    -0.312 C  
HETATM    6  O   UNL     1     -10.378   7.726  70.796  1.00  0.00    -0.202 OA 
BRANCH   5   7
HETATM    7  C   UNL     1     -12.613   7.051  71.437  1.00  0.00    -0.428 C  
BRANCH   7   8
HETATM    8  C   UNL     1     -12.739   8.386  72.171  1.00  0.00    -0.399 C  
BRANCH   8   9
HETATM    9  C   UNL     1     -13.392   9.482  71.334  1.00  0.00    -0.435 C  
BRANCH   9  10
HETATM   10  C   UNL     1     -12.611  10.768  71.346  1.00  0.00    -0.516 C  
HETATM   11  C   UNL     1     -11.828  11.223  70.355  1.00  0.00    -0.443 C  
BRANCH  11  12
HETATM   12  C   UNL     1     -11.521  10.498  69.074  1.00  0.00    -0.304 C  
BRANCH  12  13
HETATM   13  C   UNL     1     -10.464  11.208  68.218  1.00  0.00    -0.215 C  
HETATM   14  C   UNL     1      -9.015  11.050  68.693  1.00  0.00    -0.167 C  
HETATM   15  O   UNL     1      -8.762   9.740  69.189  1.00  0.00    -0.136 OA 
HETATM   16  C   UNL     1      -8.189  11.258  67.429  1.00  0.00    -0.135 C  
HETATM   17  C   UNL     1      -8.992  10.539  66.349  1.00  0.00    -0.159 C  
HETATM   18  H   UNL     1      -7.864   9.643  69.483  1.00  0.00     0.000 HD 
HETATM   19  O   UNL     1      -8.636   9.153  66.326  1.00  0.00    -0.120 OA 
HETATM   20  C   UNL     1     -10.479  10.688  66.753  1.00  0.00    -0.303 C  
HETATM   21  H   UNL     1      -9.136   8.706  65.654  1.00  0.00     0.000 HD 
BRANCH  20  22
HETATM   22  C   UNL     1     -11.340  11.603  65.900  1.00  0.00    -0.262 C  
HETATM   23  C   UNL     1     -11.094  11.977  64.631  1.00  0.00    -0.375 C  
BRANCH  23  24
HETATM   24  C   UNL     1     -11.911  12.932  63.787  1.00  0.00    -0.512 C  
HETATM   25  H   UNL     1     -13.645  12.906  62.873  1.00  0.00     0.000 HD 
HETATM   26  O   UNL     1     -13.133  12.307  63.403  1.00  0.00    -0.727 OA 
BRANCH  24  27
HETATM   27  C   UNL     1     -12.202  14.226  64.572  1.00  0.00    -0.455 C  
BRANCH  27  28
HETATM   28  O   UNL     1     -11.019  15.032  64.703  1.00  0.00    -0.372 OA 
BRANCH  28  29
HETATM   29  C   UNL     1     -10.438  14.981  65.944  1.00  0.00    -0.328 A  
HETATM   30  C   UNL     1      -9.058  14.950  66.165  1.00  0.00    -0.202 A  
HETATM   31  C   UNL     1      -8.553  14.911  67.467  1.00  0.00    -0.195 A  
HETATM   32  C   UNL     1      -9.425  14.911  68.554  1.00  0.00    -0.210 A  
HETATM   33  C   UNL     1     -10.810  14.957  68.355  1.00  0.00    -0.252 A  
HETATM   34  C   UNL     1     -11.755  14.956  69.531  1.00  0.00    -0.320 C  
HETATM   35  C   UNL     1     -11.307  15.004  67.039  1.00  0.00    -0.319 A  
HETATM   36  F   UNL     1     -11.120  14.862  70.735  1.00  0.00    -0.290 F  
HETATM   37  F   UNL     1     -12.632  13.915  69.496  1.00  0.00    -0.361 F  
HETATM   38  F   UNL     1     -12.511  16.085  69.600  1.00  0.00    -0.311 F  
ENDBRANCH  28  29
ENDBRANCH  27  28
ENDBRANCH  24  27
ENDBRANCH  23  24
ENDBRANCH  20  22
ENDBRANCH  12  13
ENDBRANCH  11  12
ENDBRANCH   9  10
ENDBRANCH   8   9
ENDBRANCH   7   8
ENDBRANCH   5   7
ENDBRANCH   4   5
ENDBRANCH   2   4
TORSDOF 13
ENDMDL
MODEL       12
REMARK 921   NORMALIZED FREE ENERGY PREDICTED BY IDOCK:   -7.04 KCAL/MOL
REMARK 922        TOTAL FREE ENERGY PREDICTED BY IDOCK:  -14.60 KCAL/MOL
REMARK 923 INTER-LIGAND FREE ENERGY PREDICTED BY IDOCK:  -12.28 KCAL/MOL
REMARK 924 INTRA-LIGAND FREE ENERGY PREDICTED BY IDOCK:   -2.33 KCAL/MOL
REMARK 927      BINDING AFFINITY PREDICTED BY RF-SCORE:    0.00 PKD
ROOT
HETATM    1  C   UNL     1      -8.928  20.170  66.906  1.00  0.00    -0.448 C  
HETATM    2  C   UNL     1      -8.996  18.667  67.154  1.00  0.00    -0.281 C  
HETATM    3  C   UNL     1      -8.602  18.337  68.590  1.00  0.00    -0.301 C  
ENDROOT
BRANCH   2   4
HETATM    4  O   UNL     1     -10.348  18.214  66.960  1.00  0.00    -0.352 OA 
BRANCH   4   5
HETATM    5  C   UNL     1     -10.526  17.372  65.903  1.00  0.00    -0.252 C  
HETATM    6  O   UNL     1     -10.980  17.699  64.814  1.00  0.00    -0.917 OA 
BRANCH   5   7
HETATM    7  C   UNL     1     -10.140  15.967  66.283  1.00  0.00    -0.329 C  
BRANCH   7   8
HETATM    8  C   UNL     1     -10.893  14.967  65.405  1.00  0.00    -0.379 C  
BRANCH   8   9
HETATM    9  C   UNL     1     -11.795  14.022  66.194  1.00  0.00    -0.422 C  
BRANCH   9  10
HETATM   10  C   UNL     1     -12.628  13.137  65.308  1.00  0.00    -0.531 C  
HETATM   11  C   UNL     1     -12.166  12.343  64.329  1.00  0.00    -0.538 C  
BRANCH  11  12
HETATM   12  C   UNL     1     -10.734  12.245  63.880  1.00  0.00    -0.463 C  
BRANCH  12  13
HETATM   13  C   UNL     1     -10.133  10.849  64.087  1.00  0.00    -0.416 C  
HETATM   14  C   UNL     1      -9.249  10.335  62.944  1.00  0.00    -0.297 C  
HETATM   15  O   UNL     1      -8.454  11.374  62.384  1.00  0.00    -0.523 OA 
HETATM   16  C   UNL     1      -8.325   9.327  63.618  1.00  0.00    -0.185 C  
HETATM   17  C   UNL     1      -7.986   9.982  64.953  1.00  0.00    -0.140 C  
HETATM   18  H   UNL     1      -7.906  11.055  61.676  1.00  0.00     0.000 HD 
HETATM   19  O   UNL     1      -6.868  10.861  64.788  1.00  0.00    -0.343 OA 
HETATM   20  C   UNL     1      -9.236  10.801  65.357  1.00  0.00    -0.234 C  
HETATM   21  H   UNL     1      -6.657  11.270  65.620  1.00  0.00     0.000 HD 
BRANCH  20  22
HETATM   22  C   UNL     1     -10.050  10.286  66.531  1.00  0.00    -0.290 C  
HETATM   23  C   UNL     1     -10.151  10.857  67.746  1.00  0.00    -0.203 C  
BRANCH  23  24
HETATM   24  C   UNL     1     -10.911  10.329  68.943  1.00  0.00    -0.238 C  
HETATM   25  H   UNL     1     -10.568  10.077  70.856  1.00  0.00     0.000 HD 
HETATM   26  O   UNL     1     -10.091  10.409  70.105  1.00  0.00    -0.144 OA 
BRANCH  24  27
HETATM   27  C   UNL     1     -12.208  11.136  69.153  1.00  0.00    -0.175 C  
BRANCH  27  28
HETATM   28  O   UNL     1     -12.590  11.154  70.538  1.00  0.00    -0.306 OA 
BRANCH  28  29
HETATM   29  C   UNL     1     -12.736  12.413  71.065  1.00  0.00    -0.223 A  
HETATM   30  C   UNL     1     -13.562  12.720  72.149  1.00  0.00    -0.547 A  
HETATM   31  C   UNL     1     -13.639  14.030  72.628  1.00  0.00    -0.623 A  
HETATM   32  C   UNL     1     -12.884  15.037  72.030  1.00  0.00    -0.410 A  
HETATM   33  C   UNL     1     -12.039  14.748  70.953  1.00  0.00    -0.387 A  
HETATM   34  C   UNL     1     -11.222  15.838  70.304  1.00  0.00    -0.366 C  
HETATM   35  C   UNL     1     -11.963  13.423  70.483  1.00  0.00    -0.332 A  
HETATM   36  F   UNL     1     -11.441  17.072  70.843  1.00  0.00    -0.142 F  
HETATM   37  F   UNL     1     -11.484  15.966  68.974  1.00  0.00    -0.292 F  
HETATM   38  F   UNL     1      -9.882  15.623  70.405  1.00  0.00    -0.244 F  
ENDBRANCH  28  29
ENDBRANCH  27  28
ENDBRANCH  24  27
ENDBRANCH  23  24
ENDBRANCH  20  22
ENDBRANCH  12  13
ENDBRANCH  11  12
ENDBRANCH   9  10
ENDBRANCH   8   9
ENDBRANCH   7   8
ENDBRANCH   5   7
ENDBRANCH   4   5
ENDBRANCH   2   4
TORSDOF 13
ENDMDL
MODEL       13
REMARK 921   NORMALIZED FREE ENERGY PREDICTED BY IDOCK:   -7.01 KCAL/MOL
REMARK 922        TOTAL FREE ENERGY PREDICTED BY IDOCK:  -14.56 KCAL/MOL
REMARK 923 INTER-LIGAND FREE ENERGY PREDICTED BY IDOCK:  -11.65 KCAL/MOL
REMARK 924 INTRA-LIGAND FREE ENERGY PREDICTED BY IDOCK:   -2.91 KCAL/MOL
REMARK 927      BINDING AFFINITY PREDICTED BY RF-SCORE:    0.00 PKD
ROOT
HETATM    1  C   UNL     1      -9.180  15.742  68.942  1.00  0.00    -0.227 C  
HETATM    2  C   UNL     1     -10.377  16.625  69.280  1.00  0.00    -0.318 C  
HETATM    3  C   UNL     1     -10.596  17.675  68.196  1.00  0.00    -0.359 C  
ENDROOT
BRANCH   2   4
HETATM    4  O   UNL     1     -11.563  15.813  69.343  1.00  0.00    -0.326 OA 
BRANCH   4   5
HETATM    5  C   UNL     1     -11.983  15.508  70.604  1.00  0.00    -0.378 C  
HETATM    6  O   UNL     1     -11.809  16.210  71.591  1.00  0.00    -0.466 OA 
BRANCH   5   7
HETATM    7  C   UNL     1     -12.643  14.154  70.621  1.00  0.00    -0.421 C  
BRANCH   7   8
HETATM    8  C   UNL     1     -11.894  13.200  69.691  1.00  0.00    -0.390 C  
BRANCH   8   9
HETATM    9  C   UNL     1     -12.145  11.727  69.997  1.00  0.00    -0.387 C  
BRANCH   9  10
HETATM   10  C   UNL     1     -12.875  11.518  71.296  1.00  0.00    -0.463 C  
HETATM   11  C   UNL     1     -13.004  10.352  71.949  1.00  0.00    -0.555 C  
BRANCH  11  12
HETATM   12  C   UNL     1     -12.510   9.016  71.466  1.00  0.00    -0.395 C  
BRANCH  12  13
HETATM   13  C   UNL     1     -11.144   8.633  72.050  1.00  0.00    -0.437 C  
HETATM   14  C   UNL     1     -11.156   7.469  73.049  1.00  0.00    -0.362 C  
HETATM   15  O   UNL     1     -12.073   6.452  72.661  1.00  0.00    -0.513 OA 
HETATM   16  C   UNL     1      -9.743   6.904  72.971  1.00  0.00    -0.190 C  
HETATM   17  C   UNL     1      -9.407   6.968  71.484  1.00  0.00    -0.154 C  
HETATM   18  H   UNL     1     -12.080   5.730  73.280  1.00  0.00     0.000 HD 
HETATM   19  O   UNL     1      -9.889   5.789  70.830  1.00  0.00    -0.169 OA 
HETATM   20  C   UNL     1     -10.149   8.210  70.933  1.00  0.00    -0.215 C  
HETATM   21  H   UNL     1      -9.681   5.830  69.904  1.00  0.00     0.000 HD 
BRANCH  20  22
HETATM   22  C   UNL     1      -9.299   9.403  70.534  1.00  0.00    -0.319 C  
HETATM   23  C   UNL     1      -9.122   9.878  69.287  1.00  0.00    -0.196 C  
BRANCH  23  24
HETATM   24  C   UNL     1      -8.235  11.029  68.866  1.00  0.00    -0.127 C  
HETATM   25  H   UNL     1      -6.358  11.545  69.095  1.00  0.00     0.000 HD 
HETATM   26  O   UNL     1      -6.915  10.822  69.359  1.00  0.00    -0.089 OA 
BRANCH  24  27
HETATM   27  C   UNL     1      -8.213  11.155  67.329  1.00  0.00    -0.136 C  
BRANCH  27  28
HETATM   28  O   UNL     1      -9.301  10.430  66.733  1.00  0.00    -0.153 OA 
BRANCH  28  29
HETATM   29  C   UNL     1      -9.920  11.092  65.702  1.00  0.00    -0.248 A  
HETATM   30  C   UNL     1      -9.977  10.621  64.388  1.00  0.00    -0.415 A  
HETATM   31  C   UNL     1     -10.641  11.356  63.403  1.00  0.00    -0.435 A  
HETATM   32  C   UNL     1     -11.259  12.561  63.730  1.00  0.00    -0.524 A  
HETATM   33  C   UNL     1     -11.227  13.043  65.044  1.00  0.00    -0.324 A  
HETATM   34  C   UNL     1     -11.895  14.348  65.399  1.00  0.00    -0.366 C  
HETATM   35  C   UNL     1     -10.562  12.290  66.029  1.00  0.00    -0.287 A  
HETATM   36  F   UNL     1     -12.457  14.978  64.326  1.00  0.00    -0.507 F  
HETATM   37  F   UNL     1     -11.030  15.248  65.942  1.00  0.00    -0.322 F  
HETATM   38  F   UNL     1     -12.899  14.197  66.304  1.00  0.00    -0.480 F  
ENDBRANCH  28  29
ENDBRANCH  27  28
ENDBRANCH  24  27
ENDBRANCH  23  24
ENDBRANCH  20  22
ENDBRANCH  12  13
ENDBRANCH  11  12
ENDBRANCH   9  10
ENDBRANCH   8   9
ENDBRANCH   7   8
ENDBRANCH   5   7
ENDBRANCH   4   5
ENDBRANCH   2   4
TORSDOF 13
ENDMDL
MODEL       14
REMARK 921   NORMALIZED FREE ENERGY PREDICTED BY IDOCK:   -7.01 KCAL/MOL
REMARK 922        TOTAL FREE ENERGY PREDICTED BY IDOCK:  -14.56 KCAL/MOL
REMARK 923 INTER-LIGAND FREE ENERGY PREDICTED BY IDOCK:  -12.00 KCAL/MOL
REMARK 924 INTRA-LIGAND FREE ENERGY PREDICTED BY IDOCK:   -2.56 KCAL/MOL
REMARK 927      BINDING AFFINITY PREDICTED BY RF-SCORE:    0.00 PKD
ROOT
HETATM    1  C   UNL     1      -9.693   6.062  71.081  1.00  0.00    -0.206 C  
HETATM    2  C   UNL     1     -10.924   6.747  70.495  1.00  0.00    -0.280 C  
HETATM    3  C   UNL     1     -11.150   6.309  69.052  1.00  0.00    -0.446 C  
ENDROOT
BRANCH   2   4
HETATM    4  O   UNL     1     -12.086   6.363  71.252  1.00  0.00    -0.310 OA 
BRANCH   4   5
HETATM    5  C   UNL     1     -12.972   7.370  71.493  1.00  0.00    -0.375 C  
HETATM    6  O   UNL     1     -14.145   7.372  71.146  1.00  0.00    -0.345 OA 
BRANCH   5   7
HETATM    7  C   UNL     1     -12.287   8.511  72.198  1.00  0.00    -0.444 C  
BRANCH   7   8
HETATM    8  C   UNL     1     -12.651   9.833  71.522  1.00  0.00    -0.493 C  
BRANCH   8   9
HETATM    9  C   UNL     1     -11.508  10.440  70.714  1.00  0.00    -0.422 C  
BRANCH   9  10
HETATM   10  C   UNL     1     -11.983  11.151  69.477  1.00  0.00    -0.425 C  
HETATM   11  C   UNL     1     -11.633  10.856  68.215  1.00  0.00    -0.335 C  
BRANCH  11  12
HETATM   12  C   UNL     1     -10.637   9.807  67.803  1.00  0.00    -0.320 C  
BRANCH  12  13
HETATM   13  C   UNL     1      -9.580  10.332  66.822  1.00  0.00    -0.214 C  
HETATM   14  C   UNL     1      -8.139   9.894  67.109  1.00  0.00    -0.117 C  
HETATM   15  O   UNL     1      -8.078   8.546  67.564  1.00  0.00    -0.105 OA 
HETATM   16  C   UNL     1      -7.451   9.979  65.751  1.00  0.00    -0.121 C  
HETATM   17  C   UNL     1      -8.503   9.453  64.779  1.00  0.00    -0.167 C  
HETATM   18  H   UNL     1      -7.184   8.275  67.741  1.00  0.00     0.000 HD 
HETATM   19  O   UNL     1      -8.419   8.026  64.705  1.00  0.00    -0.331 OA 
HETATM   20  C   UNL     1      -9.874   9.864  65.369  1.00  0.00    -0.384 C  
HETATM   21  H   UNL     1      -9.074   7.698  64.100  1.00  0.00     0.000 HD 
BRANCH  20  22
HETATM   22  C   UNL     1     -10.646  10.946  64.635  1.00  0.00    -0.332 C  
HETATM   23  C   UNL     1     -10.845  12.210  65.054  1.00  0.00    -0.344 C  
BRANCH  23  24
HETATM   24  C   UNL     1     -11.659  13.283  64.363  1.00  0.00    -0.382 C  
HETATM   25  H   UNL     1     -13.382  13.395  63.435  1.00  0.00     0.000 HD 
HETATM   26  O   UNL     1     -12.871  12.721  63.869  1.00  0.00    -0.687 OA 
BRANCH  24  27
HETATM   27  C   UNL     1     -11.968  14.435  65.340  1.00  0.00    -0.369 C  
BRANCH  27  28
HETATM   28  O   UNL     1     -12.124  13.948  66.684  1.00  0.00    -0.423 OA 
BRANCH  28  29
HETATM   29  C   UNL     1     -11.637  14.793  67.649  1.00  0.00    -0.354 A  
HETATM   30  C   UNL     1     -10.644  15.751  67.427  1.00  0.00    -0.313 A  
HETATM   31  C   UNL     1     -10.218  16.579  68.468  1.00  0.00    -0.266 A  
HETATM   32  C   UNL     1     -10.788  16.459  69.733  1.00  0.00    -0.343 A  
HETATM   33  C   UNL     1     -11.795  15.516  69.973  1.00  0.00    -0.379 A  
HETATM   34  C   UNL     1     -12.412  15.385  71.343  1.00  0.00    -0.392 C  
HETATM   35  C   UNL     1     -12.223  14.693  68.915  1.00  0.00    -0.174 A  
HETATM   36  F   UNL     1     -11.859  16.221  72.268  1.00  0.00    -0.496 F  
HETATM   37  F   UNL     1     -12.282  14.131  71.857  1.00  0.00    -0.377 F  
HETATM   38  F   UNL     1     -13.745  15.658  71.349  1.00  0.00    -0.530 F  
ENDBRANCH  28  29
ENDBRANCH  27  28
ENDBRANCH  24  27
ENDBRANCH  23  24
ENDBRANCH  20  22
ENDBRANCH  12  13
ENDBRANCH  11  12
ENDBRANCH   9  10
ENDBRANCH   8   9
ENDBRANCH   7   8
ENDBRANCH   5   7
ENDBRANCH   4   5
ENDBRANCH   2   4
TORSDOF 13
ENDMDL
MODEL       15
REMARK 921   NORMALIZED FREE ENERGY PREDICTED BY IDOCK:   -7.00 KCAL/MOL
REMARK 922        TOTAL FREE ENERGY PREDICTED BY IDOCK:  -14.55 KCAL/MOL
REMARK 923 INTER-LIGAND FREE ENERGY PREDICTED BY IDOCK:  -11.37 KCAL/MOL
REMARK 924 INTRA-LIGAND FREE ENERGY PREDICTED BY IDOCK:   -3.18 KCAL/MOL
REMARK 927      BINDING AFFINITY PREDICTED BY RF-SCORE:    0.00 PKD
ROOT
HETATM    1  C   UNL     1     -10.455  17.991  67.373  1.00  0.00    -0.399 C  
HETATM    2  C   UNL     1      -9.982  17.162  66.184  1.00  0.00    -0.281 C  
HETATM    3  C   UNL     1      -8.590  16.593  66.443  1.00  0.00    -0.345 C  
ENDROOT
BRANCH   2   4
HETATM    4  O   UNL     1     -10.876  16.050  65.994  1.00  0.00    -0.286 OA 
BRANCH   4   5
HETATM    5  C   UNL     1     -11.355  15.909  64.726  1.00  0.00    -0.309 C  
HETATM    6  O   UNL     1     -11.555  16.830  63.945  1.00  0.00    -1.122 OA 
BRANCH   5   7
HETATM    7  C   UNL     1     -11.660  14.463  64.441  1.00  0.00    -0.346 C  
BRANCH   7   8
HETATM    8  C   UNL     1     -12.605  13.912  65.509  1.00  0.00    -0.560 C  
BRANCH   8   9
HETATM    9  C   UNL     1     -12.072  12.667  66.212  1.00  0.00    -0.358 C  
BRANCH   9  10
HETATM   10  C   UNL     1     -11.338  11.741  65.280  1.00  0.00    -0.284 C  
HETATM   11  C   UNL     1     -10.027  11.456  65.325  1.00  0.00    -0.303 C  
BRANCH  11  12
HETATM   12  C   UNL     1      -9.027  12.067  66.267  1.00  0.00    -0.129 C  
BRANCH  12  13
HETATM   13  C   UNL     1      -8.282  11.025  67.112  1.00  0.00    -0.133 C  
HETATM   14  C   UNL     1      -6.756  11.025  66.966  1.00  0.00    -0.108 C  
HETATM   15  O   UNL     1      -6.238  12.346  66.849  1.00  0.00    -0.423 OA 
HETATM   16  C   UNL     1      -6.260  10.424  68.276  1.00  0.00    -0.051 C  
HETATM   17  C   UNL     1      -7.183  11.033  69.327  1.00  0.00    -0.124 C  
HETATM   18  H   UNL     1      -5.291  12.346  66.758  1.00  0.00     0.000 HD 
HETATM   19  O   UNL     1      -6.669  12.303  69.742  1.00  0.00    -0.331 OA 
HETATM   20  C   UNL     1      -8.552  11.229  68.630  1.00  0.00    -0.139 C  
HETATM   21  H   UNL     1      -7.245  12.683  70.396  1.00  0.00     0.000 HD 
BRANCH  20  22
HETATM   22  C   UNL     1      -9.687  10.320  69.068  1.00  0.00    -0.213 C  
HETATM   23  C   UNL     1      -9.850   9.776  70.288  1.00  0.00    -0.296 C  
BRANCH  23  24
HETATM   24  C   UNL     1     -10.944   8.825  70.725  1.00  0.00    -0.247 C  
HETATM   25  H   UNL     1     -11.092   7.257  71.891  1.00  0.00     0.000 HD 
HETATM   26  O   UNL     1     -10.406   7.854  71.618  1.00  0.00    -0.197 OA 
BRANCH  24  27
HETATM   27  C   UNL     1     -12.086   9.601  71.411  1.00  0.00    -0.388 C  
BRANCH  27  28
HETATM   28  O   UNL     1     -12.715  10.515  70.498  1.00  0.00    -0.338 OA 
BRANCH  28  29
HETATM   29  C   UNL     1     -12.794  11.805  70.959  1.00  0.00    -0.215 A  
HETATM   30  C   UNL     1     -13.436  12.179  72.143  1.00  0.00    -0.383 A  
HETATM   31  C   UNL     1     -13.455  13.518  72.542  1.00  0.00    -0.660 A  
HETATM   32  C   UNL     1     -12.827  14.487  71.763  1.00  0.00    -0.415 A  
HETATM   33  C   UNL     1     -12.166  14.131  70.581  1.00  0.00    -0.432 A  
HETATM   34  C   UNL     1     -11.487  15.181  69.737  1.00  0.00    -0.297 C  
HETATM   35  C   UNL     1     -12.145  12.779  70.193  1.00  0.00    -0.370 A  
HETATM   36  F   UNL     1     -11.635  16.447  70.224  1.00  0.00    -0.331 F  
HETATM   37  F   UNL     1     -11.966  15.218  68.463  1.00  0.00    -0.345 F  
HETATM   38  F   UNL     1     -10.145  14.982  69.629  1.00  0.00    -0.211 F  
ENDBRANCH  28  29
ENDBRANCH  27  28
ENDBRANCH  24  27
ENDBRANCH  23  24
ENDBRANCH  20  22
ENDBRANCH  12  13
ENDBRANCH  11  12
ENDBRANCH   9  10
ENDBRANCH   8   9
ENDBRANCH   7   8
ENDBRANCH   5   7
ENDBRANCH   4   5
ENDBRANCH   2   4
TORSDOF 13
ENDMDL
MODEL       16
REMARK 921   NORMALIZED FREE ENERGY PREDICTED BY IDOCK:   -6.96 KCAL/MOL
REMARK 922        TOTAL FREE ENERGY PREDICTED BY IDOCK:  -14.47 KCAL/MOL
REMARK 923 INTER-LIGAND FREE ENERGY PREDICTED BY IDOCK:  -11.73 KCAL/MOL
REMARK 924 INTRA-LIGAND FREE ENERGY PREDICTED BY IDOCK:   -2.74 KCAL/MOL
REMARK 927      BINDING AFFINITY PREDICTED BY RF-SCORE:    0.00 PKD
ROOT
HETATM    1  C   UNL     1      -8.942  18.741  66.607  1.00  0.00    -0.315 C  
HETATM    2  C   UNL     1      -9.478  18.594  68.027  1.00  0.00    -0.315 C  
HETATM    3  C   UNL     1     -10.064  19.912  68.522  1.00  0.00    -0.538 C  
ENDROOT
BRANCH   2   4
HETATM    4  O   UNL     1     -10.536  17.619  68.037  1.00  0.00    -0.379 OA 
BRANCH   4   5
HETATM    5  C   UNL     1     -10.228  16.443  68.654  1.00  0.00    -0.258 C  
HETATM    6  O   UNL     1      -9.240  16.255  69.352  1.00  0.00    -0.223 OA 
BRANCH   5   7
HETATM    7  C   UNL     1     -11.245  15.388  68.308  1.00  0.00    -0.325 C  
BRANCH   7   8
HETATM    8  C   UNL     1     -10.845  14.055  68.939  1.00  0.00    -0.278 C  
BRANCH   8   9
HETATM    9  C   UNL     1     -12.033  13.157  69.271  1.00  0.00    -0.344 C  
BRANCH   9  10
HETATM   10  C   UNL     1     -12.437  13.235  70.718  1.00  0.00    -0.403 C  
HETATM   11  C   UNL     1     -12.829  12.204  71.483  1.00  0.00    -0.394 C  
BRANCH  11  12
HETATM   12  C   UNL     1     -13.013  10.785  71.019  1.00  0.00    -0.425 C  
BRANCH  12  13
HETATM   13  C   UNL     1     -11.985   9.817  71.619  1.00  0.00    -0.454 C  
HETATM   14  C   UNL     1     -12.554   8.752  72.563  1.00  0.00    -0.306 C  
HETATM   15  O   UNL     1     -13.810   8.261  72.107  1.00  0.00    -0.455 OA 
HETATM   16  C   UNL     1     -11.537   7.619  72.496  1.00  0.00    -0.382 C  
HETATM   17  C   UNL     1     -11.145   7.571  71.022  1.00  0.00    -0.257 C  
HETATM   18  H   UNL     1     -14.163   7.600  72.693  1.00  0.00     0.000 HD 
HETATM   19  O   UNL     1     -12.071   6.749  70.304  1.00  0.00    -0.600 OA 
HETATM   20  C   UNL     1     -11.235   9.028  70.509  1.00  0.00    -0.301 C  
HETATM   21  H   UNL     1     -11.827   6.720  69.386  1.00  0.00     0.000 HD 
BRANCH  20  22
HETATM   22  C   UNL     1      -9.927   9.730  70.185  1.00  0.00    -0.315 C  
HETATM   23  C   UNL     1      -9.661  10.459  69.086  1.00  0.00    -0.234 C  
BRANCH  23  24
HETATM   24  C   UNL     1      -8.348  11.117  68.722  1.00  0.00    -0.136 C  
HETATM   25  H   UNL     1      -6.454  10.609  68.698  1.00  0.00     0.000 HD 
HETATM   26  O   UNL     1      -7.279  10.196  68.925  1.00  0.00    -0.072 OA 
BRANCH  24  27
HETATM   27  C   UNL     1      -8.371  11.585  67.253  1.00  0.00    -0.154 C  
BRANCH  27  28
HETATM   28  O   UNL     1      -9.034  10.626  66.413  1.00  0.00    -0.155 OA 
BRANCH  28  29
HETATM   29  C   UNL     1      -9.731  11.179  65.368  1.00  0.00    -0.231 A  
HETATM   30  C   UNL     1      -9.809  10.619  64.091  1.00  0.00    -0.396 A  
HETATM   31  C   UNL     1     -10.555  11.246  63.090  1.00  0.00    -0.233 A  
HETATM   32  C   UNL     1     -11.232  12.432  63.364  1.00  0.00    -0.492 A  
HETATM   33  C   UNL     1     -11.179  13.002  64.642  1.00  0.00    -0.355 A  
HETATM   34  C   UNL     1     -11.912  14.287  64.940  1.00  0.00    -0.425 C  
HETATM   35  C   UNL     1     -10.432  12.358  65.645  1.00  0.00    -0.290 A  
HETATM   36  F   UNL     1     -12.551  14.810  63.853  1.00  0.00    -0.463 F  
HETATM   37  F   UNL     1     -11.082  15.271  65.386  1.00  0.00    -0.319 F  
HETATM   38  F   UNL     1     -12.869  14.139  65.895  1.00  0.00    -0.509 F  
ENDBRANCH  28  29
ENDBRANCH  27  28
ENDBRANCH  24  27
ENDBRANCH  23  24
ENDBRANCH  20  22
ENDBRANCH  12  13
ENDBRANCH  11  12
ENDBRANCH   9  10
ENDBRANCH   8   9
ENDBRANCH   7   8
ENDBRANCH   5   7
ENDBRANCH   4   5
ENDBRANCH   2   4
TORSDOF 13
ENDMDL
MODEL       17
REMARK 921   NORMALIZED FREE ENERGY PREDICTED BY IDOCK:   -6.95 KCAL/MOL
REMARK 922        TOTAL FREE ENERGY PREDICTED BY IDOCK:  -14.45 KCAL/MOL
REMARK 923 INTER-LIGAND FREE ENERGY PREDICTED BY IDOCK:  -10.31 KCAL/MOL
REMARK 924 INTRA-LIGAND FREE ENERGY PREDICTED BY IDOCK:   -4.15 KCAL/MOL
REMARK 927      BINDING AFFINITY PREDICTED BY RF-SCORE:    0.00 PKD
ROOT
HETATM    1  C   UNL     1      -7.994   8.851  67.641  1.00  0.00    -0.102 C  
HETATM    2  C   UNL     1      -7.736   9.391  66.239  1.00  0.00    -0.097 C  
HETATM    3  C   UNL     1      -8.856   8.981  65.287  1.00  0.00    -0.234 C  
ENDROOT
BRANCH   2   4
HETATM    4  O   UNL     1      -7.710  10.830  66.282  1.00  0.00    -0.138 OA 
BRANCH   4   5
HETATM    5  C   UNL     1      -6.476  11.375  66.476  1.00  0.00    -0.081 C  
HETATM    6  O   UNL     1      -5.494  11.156  65.780  1.00  0.00    -0.145 OA 
BRANCH   5   7
HETATM    7  C   UNL     1      -6.476  12.242  67.707  1.00  0.00    -0.106 C  
BRANCH   7   8
HETATM    8  C   UNL     1      -7.913  12.592  68.095  1.00  0.00    -0.158 C  
BRANCH   8   9
HETATM    9  C   UNL     1      -8.135  14.084  68.331  1.00  0.00    -0.148 C  
BRANCH   9  10
HETATM   10  C   UNL     1      -8.229  14.869  67.052  1.00  0.00    -0.228 C  
HETATM   11  C   UNL     1      -8.000  16.185  66.916  1.00  0.00    -0.279 C  
BRANCH  11  12
HETATM   12  C   UNL     1      -7.680  17.140  68.033  1.00  0.00    -0.189 C  
BRANCH  12  13
HETATM   13  C   UNL     1      -8.858  18.052  68.400  1.00  0.00    -0.300 C  
HETATM   14  C   UNL     1      -8.701  19.525  68.004  1.00  0.00    -0.324 C  
HETATM   15  O   UNL     1      -8.061  19.666  66.740  1.00  0.00    -0.271 OA 
HETATM   16  C   UNL     1     -10.134  20.028  67.881  1.00  0.00    -0.559 C  
HETATM   17  C   UNL     1     -10.870  18.868  67.219  1.00  0.00    -0.372 C  
HETATM   18  H   UNL     1      -7.964  20.579  66.495  1.00  0.00     0.000 HD 
HETATM   19  O   UNL     1     -10.740  18.963  65.797  1.00  0.00    -0.462 OA 
HETATM   20  C   UNL     1     -10.174  17.579  67.720  1.00  0.00    -0.349 C  
HETATM   21  H   UNL     1     -11.198  18.240  65.384  1.00  0.00     0.000 HD 
BRANCH  20  22
HETATM   22  C   UNL     1     -10.954  16.701  68.683  1.00  0.00    -0.328 C  
HETATM   23  C   UNL     1     -10.664  16.482  69.979  1.00  0.00    -0.222 C  
BRANCH  23  24
HETATM   24  C   UNL     1     -11.398  15.567  70.936  1.00  0.00    -0.369 C  
HETATM   25  H   UNL     1     -12.567  15.772  72.495  1.00  0.00     0.000 HD 
HETATM   26  O   UNL     1     -12.107  16.346  71.894  1.00  0.00    -0.430 OA 
BRANCH  24  27
HETATM   27  C   UNL     1     -12.375  14.657  70.164  1.00  0.00    -0.336 C  
BRANCH  27  28
HETATM   28  O   UNL     1     -11.961  13.283  70.222  1.00  0.00    -0.333 OA 
BRANCH  28  29
HETATM   29  C   UNL     1     -11.713  12.717  68.997  1.00  0.00    -0.323 A  
HETATM   30  C   UNL     1     -11.327  11.387  68.808  1.00  0.00    -0.334 A  
HETATM   31  C   UNL     1     -11.109  10.893  67.520  1.00  0.00    -0.375 A  
HETATM   32  C   UNL     1     -11.282  11.722  66.415  1.00  0.00    -0.382 A  
HETATM   33  C   UNL     1     -11.683  13.053  66.581  1.00  0.00    -0.438 A  
HETATM   34  C   UNL     1     -11.871  13.953  65.385  1.00  0.00    -0.355 C  
HETATM   35  C   UNL     1     -11.909  13.539  67.882  1.00  0.00    -0.397 A  
HETATM   36  F   UNL     1     -11.570  13.348  64.200  1.00  0.00    -0.369 F  
HETATM   37  F   UNL     1     -11.087  15.065  65.439  1.00  0.00    -0.319 F  
HETATM   38  F   UNL     1     -13.150  14.399  65.257  1.00  0.00    -0.451 F  
ENDBRANCH  28  29
ENDBRANCH  27  28
ENDBRANCH  24  27
ENDBRANCH  23  24
ENDBRANCH  20  22
ENDBRANCH  12  13
ENDBRANCH  11  12
ENDBRANCH   9  10
ENDBRANCH   8   9
ENDBRANCH   7   8
ENDBRANCH   5   7
ENDBRANCH   4   5
ENDBRANCH   2   4
TORSDOF 13
ENDMDL
MODEL       18
REMARK 921   NORMALIZED FREE ENERGY PREDICTED BY IDOCK:   -6.94 KCAL/MOL
REMARK 922        TOTAL FREE ENERGY PREDICTED BY IDOCK:  -14.43 KCAL/MOL
REMARK 923 INTER-LIGAND FREE ENERGY PREDICTED BY IDOCK:  -11.18 KCAL/MOL
REMARK 924 INTRA-LIGAND FREE ENERGY PREDICTED BY IDOCK:   -3.25 KCAL/MOL
REMARK 927      BINDING AFFINITY PREDICTED BY RF-SCORE:    0.00 PKD
ROOT
HETATM    1  C   UNL     1      -8.652   8.533  71.071  1.00  0.00    -0.190 C  
HETATM    2  C   UNL     1      -9.313   7.248  70.584  1.00  0.00    -0.157 C  
HETATM    3  C   UNL     1      -8.343   6.074  70.673  1.00  0.00    -0.125 C  
ENDROOT
BRANCH   2   4
HETATM    4  O   UNL     1     -10.439   6.944  71.428  1.00  0.00    -0.209 OA 
BRANCH   4   5
HETATM    5  C   UNL     1     -11.631   6.833  70.776  1.00  0.00    -0.366 C  
HETATM    6  O   UNL     1     -11.783   6.331  69.671  1.00  0.00    -0.382 OA 
BRANCH   5   7
HETATM    7  C   UNL     1     -12.729   7.472  71.584  1.00  0.00    -0.385 C  
BRANCH   7   8
HETATM    8  C   UNL     1     -12.318   8.888  71.990  1.00  0.00    -0.460 C  
BRANCH   8   9
HETATM    9  C   UNL     1     -12.762   9.960  70.999  1.00  0.00    -0.425 C  
BRANCH   9  10
HETATM   10  C   UNL     1     -11.629  10.476  70.154  1.00  0.00    -0.408 C  
HETATM   11  C   UNL     1     -11.431  11.755  69.798  1.00  0.00    -0.320 C  
BRANCH  11  12
HETATM   12  C   UNL     1     -12.347  12.905  70.111  1.00  0.00    -0.249 C  
BRANCH  12  13
HETATM   13  C   UNL     1     -11.921  14.216  69.436  1.00  0.00    -0.382 C  
HETATM   14  C   UNL     1     -11.707  15.405  70.379  1.00  0.00    -0.319 C  
HETATM   15  O   UNL     1     -11.096  15.006  71.601  1.00  0.00    -0.572 OA 
HETATM   16  C   UNL     1     -10.736  16.304  69.622  1.00  0.00    -0.338 C  
HETATM   17  C   UNL     1      -9.759  15.323  68.980  1.00  0.00    -0.234 C  
HETATM   18  H   UNL     1     -10.963  15.743  72.185  1.00  0.00     0.000 HD 
HETATM   19  O   UNL     1      -8.712  15.010  69.904  1.00  0.00    -0.439 OA 
HETATM   20  C   UNL     1     -10.579  14.047  68.670  1.00  0.00    -0.263 C  
HETATM   21  H   UNL     1      -8.105  14.399  69.505  1.00  0.00     0.000 HD 
BRANCH  20  22
HETATM   22  C   UNL     1     -10.864  13.746  67.209  1.00  0.00    -0.292 C  
HETATM   23  C   UNL     1     -11.982  14.064  66.530  1.00  0.00    -0.470 C  
BRANCH  23  24
HETATM   24  C   UNL     1     -12.304  13.722  65.092  1.00  0.00    -0.448 C  
HETATM   25  H   UNL     1     -12.985  14.668  63.516  1.00  0.00     0.000 HD 
HETATM   26  O   UNL     1     -12.782  14.883  64.419  1.00  0.00    -0.566 OA 
BRANCH  24  27
HETATM   27  C   UNL     1     -11.053  13.173  64.378  1.00  0.00    -0.381 C  
BRANCH  27  28
HETATM   28  O   UNL     1     -11.322  11.904  63.759  1.00  0.00    -0.387 OA 
BRANCH  28  29
HETATM   29  C   UNL     1     -10.406  10.927  64.058  1.00  0.00    -0.349 A  
HETATM   30  C   UNL     1      -9.517  10.374  63.133  1.00  0.00    -0.362 A  
HETATM   31  C   UNL     1      -8.608   9.390  63.530  1.00  0.00    -0.215 A  
HETATM   32  C   UNL     1      -8.578   8.961  64.854  1.00  0.00    -0.198 A  
HETATM   33  C   UNL     1      -9.450   9.513  65.800  1.00  0.00    -0.314 A  
HETATM   34  C   UNL     1      -9.420   9.048  67.235  1.00  0.00    -0.149 C  
HETATM   35  C   UNL     1     -10.356  10.509  65.392  1.00  0.00    -0.292 A  
HETATM   36  F   UNL     1      -8.520   8.048  67.461  1.00  0.00    -0.121 F  
HETATM   37  F   UNL     1     -10.622   8.562  67.653  1.00  0.00    -0.285 F  
HETATM   38  F   UNL     1      -9.093  10.042  68.104  1.00  0.00    -0.120 F  
ENDBRANCH  28  29
ENDBRANCH  27  28
ENDBRANCH  24  27
ENDBRANCH  23  24
ENDBRANCH  20  22
ENDBRANCH  12  13
ENDBRANCH  11  12
ENDBRANCH   9  10
ENDBRANCH   8   9
ENDBRANCH   7   8
ENDBRANCH   5   7
ENDBRANCH   4   5
ENDBRANCH   2   4
TORSDOF 13
ENDMDL
MODEL       19
REMARK 921   NORMALIZED FREE ENERGY PREDICTED BY IDOCK:   -6.92 KCAL/MOL
REMARK 922        TOTAL FREE ENERGY PREDICTED BY IDOCK:  -14.41 KCAL/MOL
REMARK 923 INTER-LIGAND FREE ENERGY PREDICTED BY IDOCK:  -11.50 KCAL/MOL
REMARK 924 INTRA-LIGAND FREE ENERGY PREDICTED BY IDOCK:   -2.90 KCAL/MOL
REMARK 927      BINDING AFFINITY PREDICTED BY RF-SCORE:    0.00 PKD
ROOT
HETATM    1  C   UNL     1     -13.327   9.614  72.183  1.00  0.00    -0.545 C  
HETATM    2  C   UNL     1     -12.426   8.428  71.857  1.00  0.00    -0.347 C  
HETATM    3  C   UNL     1     -13.254   7.224  71.421  1.00  0.00    -0.404 C  
ENDROOT
BRANCH   2   4
HETATM    4  O   UNL     1     -11.559   8.777  70.762  1.00  0.00    -0.281 OA 
BRANCH   4   5
HETATM    5  C   UNL     1     -10.230   8.802  71.068  1.00  0.00    -0.237 C  
HETATM    6  O   UNL     1      -9.772   8.895  72.198  1.00  0.00    -0.306 OA 
BRANCH   5   7
HETATM    7  C   UNL     1      -9.405   8.758  69.809  1.00  0.00    -0.163 C  
BRANCH   7   8
HETATM    8  C   UNL     1      -8.320   9.833  69.863  1.00  0.00    -0.198 C  
BRANCH   8   9
HETATM    9  C   UNL     1      -8.419  10.857  68.735  1.00  0.00    -0.150 C  
BRANCH   9  10
HETATM   10  C   UNL     1      -9.634  10.656  67.871  1.00  0.00    -0.174 C  
HETATM   11  C   UNL     1     -10.053  11.479  66.897  1.00  0.00    -0.241 C  
BRANCH  11  12
HETATM   12  C   UNL     1      -9.431  12.799  66.536  1.00  0.00    -0.253 C  
BRANCH  12  13
HETATM   13  C   UNL     1     -10.465  13.865  66.147  1.00  0.00    -0.297 C  
HETATM   14  C   UNL     1     -10.573  14.163  64.647  1.00  0.00    -0.368 C  
HETATM   15  O   UNL     1     -10.443  12.982  63.864  1.00  0.00    -0.472 OA 
HETATM   16  C   UNL     1     -11.989  14.702  64.481  1.00  0.00    -0.473 C  
HETATM   17  C   UNL     1     -12.823  13.824  65.408  1.00  0.00    -0.410 C  
HETATM   18  H   UNL     1     -10.511  13.167  62.934  1.00  0.00     0.000 HD 
HETATM   19  O   UNL     1     -13.220  12.634  64.718  1.00  0.00    -0.846 OA 
HETATM   20  C   UNL     1     -11.897  13.453  66.592  1.00  0.00    -0.443 C  
HETATM   21  H   UNL     1     -13.739  12.087  65.296  1.00  0.00     0.000 HD 
BRANCH  20  22
HETATM   22  C   UNL     1     -12.209  14.083  67.938  1.00  0.00    -0.188 C  
HETATM   23  C   UNL     1     -12.150  13.477  69.138  1.00  0.00    -0.331 C  
BRANCH  23  24
HETATM   24  C   UNL     1     -12.512  14.074  70.481  1.00  0.00    -0.359 C  
HETATM   25  H   UNL     1     -13.063  13.407  72.240  1.00  0.00     0.000 HD 
HETATM   26  O   UNL     1     -12.836  13.032  71.397  1.00  0.00    -0.363 OA 
BRANCH  24  27
HETATM   27  C   UNL     1     -11.340  14.914  71.027  1.00  0.00    -0.215 C  
BRANCH  27  28
HETATM   28  O   UNL     1     -11.326  16.227  70.443  1.00  0.00    -0.371 OA 
BRANCH  28  29
HETATM   29  C   UNL     1     -10.310  16.431  69.543  1.00  0.00    -0.278 A  
HETATM   30  C   UNL     1      -9.175  15.623  69.442  1.00  0.00    -0.279 A  
HETATM   31  C   UNL     1      -8.196  15.899  68.484  1.00  0.00    -0.169 A  
HETATM   32  C   UNL     1      -8.352  16.979  67.618  1.00  0.00    -0.196 A  
HETATM   33  C   UNL     1      -9.489  17.792  67.693  1.00  0.00    -0.255 A  
HETATM   34  C   UNL     1      -9.658  18.962  66.756  1.00  0.00    -0.324 C  
HETATM   35  C   UNL     1     -10.473  17.500  68.655  1.00  0.00    -0.338 A  
HETATM   36  F   UNL     1      -8.599  19.139  65.913  1.00  0.00    -0.301 F  
HETATM   37  F   UNL     1      -9.803  20.144  67.416  1.00  0.00    -0.456 F  
HETATM   38  F   UNL     1     -10.751  18.842  65.954  1.00  0.00    -0.469 F  
ENDBRANCH  28  29
ENDBRANCH  27  28
ENDBRANCH  24  27
ENDBRANCH  23  24
ENDBRANCH  20  22
ENDBRANCH  12  13
ENDBRANCH  11  12
ENDBRANCH   9  10
ENDBRANCH   8   9
ENDBRANCH   7   8
ENDBRANCH   5   7
ENDBRANCH   4   5
ENDBRANCH   2   4
TORSDOF 13
ENDMDL
MODEL       20
REMARK 921   NORMALIZED FREE ENERGY PREDICTED BY IDOCK:   -6.90 KCAL/MOL
REMARK 922        TOTAL FREE ENERGY PREDICTED BY IDOCK:  -14.36 KCAL/MOL
REMARK 923 INTER-LIGAND FREE ENERGY PREDICTED BY IDOCK:  -11.96 KCAL/MOL
REMARK 924 INTRA-LIGAND FREE ENERGY PREDICTED BY IDOCK:   -2.39 KCAL/MOL
REMARK 927      BINDING AFFINITY PREDICTED BY RF-SCORE:    0.00 PKD
ROOT
HETATM    1  C   UNL     1      -9.779   4.290  70.351  1.00  0.00    -0.280 C  
HETATM    2  C   UNL     1      -9.897   5.600  71.122  1.00  0.00    -0.177 C  
HETATM    3  C   UNL     1      -8.525   6.238  71.315  1.00  0.00    -0.124 C  
ENDROOT
BRANCH   2   4
HETATM    4  O   UNL     1     -10.704   6.523  70.370  1.00  0.00    -0.226 OA 
BRANCH   4   5
HETATM    5  C   UNL     1     -11.593   7.244  71.110  1.00  0.00    -0.293 C  
HETATM    6  O   UNL     1     -12.328   6.780  71.971  1.00  0.00    -0.322 OA 
BRANCH   5   7
HETATM    7  C   UNL     1     -11.587   8.686  70.675  1.00  0.00    -0.225 C  
BRANCH   7   8
HETATM    8  C   UNL     1     -10.305   8.989  69.900  1.00  0.00    -0.219 C  
BRANCH   8   9
HETATM    9  C   UNL     1     -10.126  10.468  69.571  1.00  0.00    -0.208 C  
BRANCH   9  10
HETATM   10  C   UNL     1     -11.323  11.060  68.878  1.00  0.00    -0.346 C  
HETATM   11  C   UNL     1     -12.159  11.975  69.393  1.00  0.00    -0.261 C  
BRANCH  11  12
HETATM   12  C   UNL     1     -12.104  12.527  70.791  1.00  0.00    -0.240 C  
BRANCH  12  13
HETATM   13  C   UNL     1     -12.745  13.915  70.915  1.00  0.00    -0.410 C  
HETATM   14  C   UNL     1     -14.027  13.978  71.755  1.00  0.00    -0.386 C  
HETATM   15  O   UNL     1     -13.954  13.125  72.893  1.00  0.00    -0.668 OA 
HETATM   16  C   UNL     1     -14.082  15.424  72.235  1.00  0.00    -0.660 C  
HETATM   17  C   UNL     1     -12.629  15.751  72.566  1.00  0.00    -0.450 C  
HETATM   18  H   UNL     1     -14.748  13.165  73.413  1.00  0.00     0.000 HD 
HETATM   19  O   UNL     1     -12.335  15.342  73.906  1.00  0.00    -0.519 OA 
HETATM   20  C   UNL     1     -11.769  14.932  71.572  1.00  0.00    -0.394 C  
HETATM   21  H   UNL     1     -11.430  15.546  74.112  1.00  0.00     0.000 HD 
BRANCH  20  22
HETATM   22  C   UNL     1     -11.039  15.705  70.488  1.00  0.00    -0.375 C  
HETATM   23  C   UNL     1     -11.447  15.879  69.218  1.00  0.00    -0.374 C  
BRANCH  23  24
HETATM   24  C   UNL     1     -10.705  16.599  68.112  1.00  0.00    -0.349 C  
HETATM   25  H   UNL     1      -8.934  17.402  67.866  1.00  0.00     0.000 HD 
HETATM   26  O   UNL     1      -9.400  16.950  68.560  1.00  0.00    -0.243 OA 
BRANCH  24  27
HETATM   27  C   UNL     1     -10.612  15.704  66.859  1.00  0.00    -0.311 C  
BRANCH  27  28
HETATM   28  O   UNL     1     -11.723  14.796  66.786  1.00  0.00    -0.366 OA 
BRANCH  28  29
HETATM   29  C   UNL     1     -11.647  13.895  65.753  1.00  0.00    -0.338 A  
HETATM   30  C   UNL     1     -12.337  14.025  64.544  1.00  0.00    -0.409 A  
HETATM   31  C   UNL     1     -12.188  13.064  63.541  1.00  0.00    -0.580 A  
HETATM   32  C   UNL     1     -11.344  11.974  63.738  1.00  0.00    -0.526 A  
HETATM   33  C   UNL     1     -10.633  11.833  64.936  1.00  0.00    -0.344 A  
HETATM   34  C   UNL     1      -9.719  10.652  65.151  1.00  0.00    -0.271 C  
HETATM   35  C   UNL     1     -10.783  12.811  65.936  1.00  0.00    -0.294 A  
HETATM   36  F   UNL     1      -9.717   9.772  64.108  1.00  0.00    -0.338 F  
HETATM   37  F   UNL     1     -10.059   9.921  66.248  1.00  0.00    -0.264 F  
HETATM   38  F   UNL     1      -8.420  11.016  65.329  1.00  0.00    -0.175 F  
ENDBRANCH  28  29
ENDBRANCH  27  28
ENDBRANCH  24  27
ENDBRANCH  23  24
ENDBRANCH  20  22
ENDBRANCH  12  13
ENDBRANCH  11  12
ENDBRANCH   9  10
ENDBRANCH   8   9
ENDBRANCH   7   8
ENDBRANCH   5   7
ENDBRANCH   4   5
ENDBRANCH   2   4
TORSDOF 13
ENDMDL
MODEL       21
REMARK 921   NORMALIZED FREE ENERGY PREDICTED BY IDOCK:   -6.87 KCAL/MOL
REMARK 922        TOTAL FREE ENERGY PREDICTED BY IDOCK:  -14.31 KCAL/MOL
REMARK 923 INTER-LIGAND FREE ENERGY PREDICTED BY IDOCK:  -11.94 KCAL/MOL
REMARK 924 INTRA-LIGAND FREE ENERGY PREDICTED BY IDOCK:   -2.37 KCAL/MOL
REMARK 927      BINDING AFFINITY PREDICTED BY RF-SCORE:    0.00 PKD
ROOT
HETATM    1  C   UNL     1      -9.721   4.502  68.872  1.00  0.00    -0.224 C  
HETATM    2  C   UNL     1     -10.273   5.907  69.082  1.00  0.00    -0.215 C  
HETATM    3  C   UNL     1     -10.977   6.404  67.823  1.00  0.00    -0.425 C  
ENDROOT
BRANCH   2   4
HETATM    4  O   UNL     1     -11.247   5.882  70.141  1.00  0.00    -0.353 OA 
BRANCH   4   5
HETATM    5  C   UNL     1     -11.227   6.968  70.965  1.00  0.00    -0.274 C  
HETATM    6  O   UNL     1     -10.224   7.595  71.276  1.00  0.00    -0.188 OA 
BRANCH   5   7
HETATM    7  C   UNL     1     -12.610   7.251  71.489  1.00  0.00    -0.415 C  
BRANCH   7   8
HETATM    8  C   UNL     1     -12.598   8.534  72.320  1.00  0.00    -0.438 C  
BRANCH   8   9
HETATM    9  C   UNL     1     -13.596   9.582  71.839  1.00  0.00    -0.468 C  
BRANCH   9  10
HETATM   10  C   UNL     1     -12.987  10.952  71.713  1.00  0.00    -0.557 C  
HETATM   11  C   UNL     1     -12.270  11.403  70.672  1.00  0.00    -0.484 C  
BRANCH  11  12
HETATM   12  C   UNL     1     -11.872  10.599  69.466  1.00  0.00    -0.345 C  
BRANCH  12  13
HETATM   13  C   UNL     1     -10.757  11.258  68.644  1.00  0.00    -0.241 C  
HETATM   14  C   UNL     1      -9.330  10.813  68.989  1.00  0.00    -0.156 C  
HETATM   15  O   UNL     1      -9.269   9.421  69.280  1.00  0.00    -0.148 OA 
HETATM   16  C   UNL     1      -8.543  11.076  67.711  1.00  0.00    -0.130 C  
HETATM   17  C   UNL     1      -9.502  10.655  66.601  1.00  0.00    -0.167 C  
HETATM   18  H   UNL     1      -8.385   9.145  69.494  1.00  0.00     0.000 HD 
HETATM   19  O   UNL     1      -9.375   9.250  66.362  1.00  0.00    -0.164 OA 
HETATM   20  C   UNL     1     -10.925  10.967  67.125  1.00  0.00    -0.344 C  
HETATM   21  H   UNL     1      -9.973   8.988  65.671  1.00  0.00     0.000 HD 
BRANCH  20  22
HETATM   22  C   UNL     1     -11.667  12.118  66.469  1.00  0.00    -0.392 C  
HETATM   23  C   UNL     1     -11.490  12.572  65.215  1.00  0.00    -0.374 C  
BRANCH  23  24
HETATM   24  C   UNL     1     -12.180  13.752  64.565  1.00  0.00    -0.403 C  
HETATM   25  H   UNL     1     -13.679  14.942  64.989  1.00  0.00     0.000 HD 
HETATM   26  O   UNL     1     -13.245  14.202  65.397  1.00  0.00    -0.741 OA 
BRANCH  24  27
HETATM   27  C   UNL     1     -11.174  14.897  64.328  1.00  0.00    -0.010 C  
BRANCH  27  28
HETATM   28  O   UNL     1     -10.143  14.899  65.329  1.00  0.00    -0.355 OA 
BRANCH  28  29
HETATM   29  C   UNL     1     -10.298  15.861  66.295  1.00  0.00    -0.314 A  
HETATM   30  C   UNL     1     -10.597  15.591  67.633  1.00  0.00    -0.291 A  
HETATM   31  C   UNL     1     -10.724  16.635  68.552  1.00  0.00    -0.351 A  
HETATM   32  C   UNL     1     -10.544  17.954  68.139  1.00  0.00    -0.351 A  
HETATM   33  C   UNL     1     -10.230  18.245  66.806  1.00  0.00    -0.393 A  
HETATM   34  C   UNL     1     -10.037  19.673  66.358  1.00  0.00    -0.470 C  
HETATM   35  C   UNL     1     -10.096  17.185  65.891  1.00  0.00    -0.257 A  
HETATM   36  F   UNL     1     -10.244  20.584  67.351  1.00  0.00    -0.546 F  
HETATM   37  F   UNL     1     -10.886  20.025  65.353  1.00  0.00    -0.583 F  
HETATM   38  F   UNL     1      -8.781  19.913  65.892  1.00  0.00    -0.373 F  
ENDBRANCH  28  29
ENDBRANCH  27  28
ENDBRANCH  24  27
ENDBRANCH  23  24
ENDBRANCH  20  22
ENDBRANCH  12  13
ENDBRANCH  11  12
ENDBRANCH   9  10
ENDBRANCH   8   9
ENDBRANCH   7   8
ENDBRANCH   5   7
ENDBRANCH   4   5
ENDBRANCH   2   4
TORSDOF 13
ENDMDL
MODEL       22
REMARK 921   NORMALIZED FREE ENERGY PREDICTED BY IDOCK:   -6.85 KCAL/MOL
REMARK 922        TOTAL FREE ENERGY PREDICTED BY IDOCK:  -14.27 KCAL/MOL
REMARK 923 INTER-LIGAND FREE ENERGY PREDICTED BY IDOCK:  -11.02 KCAL/MOL
REMARK 924 INTRA-LIGAND FREE ENERGY PREDICTED BY IDOCK:   -3.25 KCAL/MOL
REMARK 927      BINDING AFFINITY PREDICTED BY RF-SCORE:    0.00 PKD
ROOT
HETATM    1  C   UNL     1      -9.649  11.409  63.149  1.00  0.00    -0.398 C  
HETATM    2  C   UNL     1     -10.144  10.694  64.401  1.00  0.00    -0.349 C  
HETATM    3  C   UNL     1      -9.200   9.559  64.784  1.00  0.00    -0.267 C  
ENDROOT
BRANCH   2   4
HETATM    4  O   UNL     1     -10.173  11.623  65.499  1.00  0.00    -0.239 OA 
BRANCH   4   5
HETATM    5  C   UNL     1     -11.403  11.820  66.052  1.00  0.00    -0.273 C  
HETATM    6  O   UNL     1     -12.330  12.407  65.512  1.00  0.00    -0.621 OA 
BRANCH   5   7
HETATM    7  C   UNL     1     -11.442  11.262  67.451  1.00  0.00    -0.300 C  
BRANCH   7   8
HETATM    8  C   UNL     1     -10.063  11.389  68.098  1.00  0.00    -0.200 C  
BRANCH   8   9
HETATM    9  C   UNL     1      -9.432  10.047  68.457  1.00  0.00    -0.150 C  
BRANCH   9  10
HETATM   10  C   UNL     1     -10.292   8.876  68.066  1.00  0.00    -0.271 C  
HETATM   11  C   UNL     1     -10.194   7.629  68.554  1.00  0.00    -0.220 C  
BRANCH  11  12
HETATM   12  C   UNL     1      -9.155   7.146  69.528  1.00  0.00    -0.146 C  
BRANCH  12  13
HETATM   13  C   UNL     1      -9.710   6.934  70.943  1.00  0.00    -0.183 C  
HETATM   14  C   UNL     1      -9.090   5.771  71.727  1.00  0.00    -0.142 C  
HETATM   15  O   UNL     1      -7.691   5.660  71.489  1.00  0.00    -0.102 OA 
HETATM   16  C   UNL     1      -9.306   6.154  73.187  1.00  0.00    -0.138 C  
HETATM   17  C   UNL     1      -9.038   7.656  73.210  1.00  0.00    -0.215 C  
HETATM   18  H   UNL     1      -7.307   4.939  71.975  1.00  0.00     0.000 HD 
HETATM   19  O   UNL     1      -7.637   7.894  73.379  1.00  0.00    -0.123 OA 
HETATM   20  C   UNL     1      -9.495   8.192  71.831  1.00  0.00    -0.260 C  
HETATM   21  H   UNL     1      -7.471   8.829  73.393  1.00  0.00     0.000 HD 
BRANCH  20  22
HETATM   22  C   UNL     1     -10.746   9.051  71.802  1.00  0.00    -0.437 C  
HETATM   23  C   UNL     1     -12.011   8.617  71.652  1.00  0.00    -0.388 C  
BRANCH  23  24
HETATM   24  C   UNL     1     -13.263   9.464  71.565  1.00  0.00    -0.384 C  
HETATM   25  H   UNL     1     -14.744   9.950  72.752  1.00  0.00     0.000 HD 
HETATM   26  O   UNL     1     -13.959   9.418  72.807  1.00  0.00    -0.372 OA 
BRANCH  24  27
HETATM   27  C   UNL     1     -12.901  10.921  71.214  1.00  0.00    -0.433 C  
BRANCH  27  28
HETATM   28  O   UNL     1     -13.532  11.845  72.115  1.00  0.00    -0.458 OA 
BRANCH  28  29
HETATM   29  C   UNL     1     -13.289  13.165  71.829  1.00  0.00    -0.389 A  
HETATM   30  C   UNL     1     -13.759  14.235  72.596  1.00  0.00    -0.555 A  
HETATM   31  C   UNL     1     -13.450  15.549  72.237  1.00  0.00    -0.596 A  
HETATM   32  C   UNL     1     -12.664  15.799  71.114  1.00  0.00    -0.488 A  
HETATM   33  C   UNL     1     -12.171  14.742  70.342  1.00  0.00    -0.395 A  
HETATM   34  C   UNL     1     -11.321  15.012  69.125  1.00  0.00    -0.296 C  
HETATM   35  C   UNL     1     -12.481  13.421  70.717  1.00  0.00    -0.418 A  
HETATM   36  F   UNL     1     -11.148  16.341  68.869  1.00  0.00    -0.276 F  
HETATM   37  F   UNL     1     -11.852  14.485  67.987  1.00  0.00    -0.318 F  
HETATM   38  F   UNL     1     -10.068  14.492  69.232  1.00  0.00    -0.219 F  
ENDBRANCH  28  29
ENDBRANCH  27  28
ENDBRANCH  24  27
ENDBRANCH  23  24
ENDBRANCH  20  22
ENDBRANCH  12  13
ENDBRANCH  11  12
ENDBRANCH   9  10
ENDBRANCH   8   9
ENDBRANCH   7   8
ENDBRANCH   5   7
ENDBRANCH   4   5
ENDBRANCH   2   4
TORSDOF 13
ENDMDL
MODEL       23
REMARK 921   NORMALIZED FREE ENERGY PREDICTED BY IDOCK:   -6.82 KCAL/MOL
REMARK 922        TOTAL FREE ENERGY PREDICTED BY IDOCK:  -14.22 KCAL/MOL
REMARK 923 INTER-LIGAND FREE ENERGY PREDICTED BY IDOCK:  -12.55 KCAL/MOL
REMARK 924 INTRA-LIGAND FREE ENERGY PREDICTED BY IDOCK:   -1.67 KCAL/MOL
REMARK 927      BINDING AFFINITY PREDICTED BY RF-SCORE:    0.00 PKD
ROOT
HETATM    1  C   UNL     1     -12.708  15.364  73.551  1.00  0.00    -0.689 C  
HETATM    2  C   UNL     1     -12.910  15.039  72.076  1.00  0.00    -0.333 C  
HETATM    3  C   UNL     1     -14.393  15.052  71.718  1.00  0.00    -0.674 C  
ENDROOT
BRANCH   2   4
HETATM    4  O   UNL     1     -12.262  16.043  71.275  1.00  0.00    -0.423 OA 
BRANCH   4   5
HETATM    5  C   UNL     1     -11.684  15.579  70.130  1.00  0.00    -0.347 C  
HETATM    6  O   UNL     1     -12.233  14.856  69.310  1.00  0.00    -0.266 OA 
BRANCH   5   7
HETATM    7  C   UNL     1     -10.252  16.036  70.046  1.00  0.00    -0.130 C  
BRANCH   7   8
HETATM    8  C   UNL     1      -9.848  16.209  68.581  1.00  0.00    -0.226 C  
BRANCH   8   9
HETATM    9  C   UNL     1      -9.337  14.925  67.934  1.00  0.00    -0.191 C  
BRANCH   9  10
HETATM   10  C   UNL     1      -9.263  15.018  66.434  1.00  0.00    -0.328 C  
HETATM   11  C   UNL     1     -10.291  14.868  65.584  1.00  0.00    -0.370 C  
BRANCH  11  12
HETATM   12  C   UNL     1     -11.699  14.502  65.964  1.00  0.00    -0.347 C  
BRANCH  12  13
HETATM   13  C   UNL     1     -12.125  13.124  65.438  1.00  0.00    -0.478 C  
HETATM   14  C   UNL     1     -12.815  13.125  64.069  1.00  0.00     0.108 C  
HETATM   15  O   UNL     1     -12.229  14.072  63.183  1.00  0.00    -1.071 OA 
HETATM   16  C   UNL     1     -12.555  11.725  63.525  1.00  0.00    -0.485 C  
HETATM   17  C   UNL     1     -11.115  11.437  63.941  1.00  0.00    -0.329 C  
HETATM   18  H   UNL     1     -12.657  14.072  62.335  1.00  0.00     0.000 HD 
HETATM   19  O   UNL     1     -10.216  11.961  62.958  1.00  0.00    -0.596 OA 
HETATM   20  C   UNL     1     -10.903  12.174  65.285  1.00  0.00    -0.336 C  
HETATM   21  H   UNL     1      -9.319  11.782  63.217  1.00  0.00     0.000 HD 
BRANCH  20  22
HETATM   22  C   UNL     1     -10.771  11.316  66.531  1.00  0.00    -0.323 C  
HETATM   23  C   UNL     1     -10.087  10.162  66.638  1.00  0.00    -0.283 C  
BRANCH  23  24
HETATM   24  C   UNL     1      -9.992   9.267  67.855  1.00  0.00    -0.187 C  
HETATM   25  H   UNL     1      -9.958   7.340  68.213  1.00  0.00     0.000 HD 
HETATM   26  O   UNL     1     -10.018   7.902  67.449  1.00  0.00    -0.164 OA 
BRANCH  24  27
HETATM   27  C   UNL     1      -8.696   9.562  68.637  1.00  0.00    -0.127 C  
BRANCH  27  28
HETATM   28  O   UNL     1      -8.978  10.240  69.873  1.00  0.00    -0.133 OA 
BRANCH  28  29
HETATM   29  C   UNL     1      -9.722   9.504  70.761  1.00  0.00    -0.219 A  
HETATM   30  C   UNL     1      -9.213   8.460  71.538  1.00  0.00    -0.257 A  
HETATM   31  C   UNL     1     -10.042   7.773  72.428  1.00  0.00    -0.284 A  
HETATM   32  C   UNL     1     -11.383   8.132  72.550  1.00  0.00    -0.469 A  
HETATM   33  C   UNL     1     -11.909   9.184  71.792  1.00  0.00    -0.453 A  
HETATM   34  C   UNL     1     -13.361   9.573  71.923  1.00  0.00    -0.437 C  
HETATM   35  C   UNL     1     -11.063   9.875  70.905  1.00  0.00    -0.418 A  
HETATM   36  F   UNL     1     -14.058   8.780  72.788  1.00  0.00    -0.447 F  
HETATM   37  F   UNL     1     -14.031   9.502  70.739  1.00  0.00    -0.322 F  
HETATM   38  F   UNL     1     -13.527  10.846  72.374  1.00  0.00    -0.512 F  
ENDBRANCH  28  29
ENDBRANCH  27  28
ENDBRANCH  24  27
ENDBRANCH  23  24
ENDBRANCH  20  22
ENDBRANCH  12  13
ENDBRANCH  11  12
ENDBRANCH   9  10
ENDBRANCH   8   9
ENDBRANCH   7   8
ENDBRANCH   5   7
ENDBRANCH   4   5
ENDBRANCH   2   4
TORSDOF 13
ENDMDL
MODEL       24
REMARK 921   NORMALIZED FREE ENERGY PREDICTED BY IDOCK:   -6.81 KCAL/MOL
REMARK 922        TOTAL FREE ENERGY PREDICTED BY IDOCK:  -14.21 KCAL/MOL
REMARK 923 INTER-LIGAND FREE ENERGY PREDICTED BY IDOCK:  -11.53 KCAL/MOL
REMARK 924 INTRA-LIGAND FREE ENERGY PREDICTED BY IDOCK:   -2.68 KCAL/MOL
REMARK 927      BINDING AFFINITY PREDICTED BY RF-SCORE:    0.00 PKD
ROOT
HETATM    1  C   UNL     1      -6.463   6.294  67.118  1.00  0.00    -0.053 C  
HETATM    2  C   UNL     1      -7.884   6.627  66.677  1.00  0.00    -0.104 C  
HETATM    3  C   UNL     1      -7.948   6.822  65.165  1.00  0.00    -0.128 C  
ENDROOT
BRANCH   2   4
HETATM    4  O   UNL     1      -8.755   5.531  67.010  1.00  0.00    -0.110 OA 
BRANCH   4   5
HETATM    5  C   UNL     1     -10.069   5.865  67.154  1.00  0.00    -0.177 C  
HETATM    6  O   UNL     1     -10.924   5.734  66.289  1.00  0.00    -0.137 OA 
BRANCH   5   7
HETATM    7  C   UNL     1     -10.308   6.474  68.509  1.00  0.00    -0.219 C  
BRANCH   7   8
HETATM    8  C   UNL     1      -9.704   5.582  69.594  1.00  0.00    -0.230 C  
BRANCH   8   9
HETATM    9  C   UNL     1      -8.956   6.357  70.675  1.00  0.00    -0.144 C  
BRANCH   9  10
HETATM   10  C   UNL     1      -8.660   7.776  70.275  1.00  0.00    -0.138 C  
HETATM   11  C   UNL     1      -9.228   8.876  70.795  1.00  0.00    -0.272 C  
BRANCH  11  12
HETATM   12  C   UNL     1     -10.326   8.895  71.823  1.00  0.00    -0.426 C  
BRANCH  12  13
HETATM   13  C   UNL     1     -11.718   8.666  71.220  1.00  0.00    -0.341 C  
HETATM   14  C   UNL     1     -12.361   7.311  71.540  1.00  0.00    -0.362 C  
HETATM   15  O   UNL     1     -12.089   6.900  72.875  1.00  0.00    -0.432 OA 
HETATM   16  C   UNL     1     -13.857   7.573  71.408  1.00  0.00    -0.439 C  
HETATM   17  C   UNL     1     -14.038   8.957  72.022  1.00  0.00    -0.411 C  
HETATM   18  H   UNL     1     -12.488   6.060  73.073  1.00  0.00     0.000 HD 
HETATM   19  O   UNL     1     -14.208   8.837  73.439  1.00  0.00    -1.173 OA 
HETATM   20  C   UNL     1     -12.733   9.733  71.719  1.00  0.00    -0.519 C  
HETATM   21  H   UNL     1     -14.320   9.700  73.822  1.00  0.00     0.000 HD 
BRANCH  20  22
HETATM   22  C   UNL     1     -12.819  10.862  70.706  1.00  0.00    -0.378 C  
HETATM   23  C   UNL     1     -12.041  11.959  70.664  1.00  0.00    -0.389 C  
BRANCH  23  24
HETATM   24  C   UNL     1     -12.150  13.118  69.697  1.00  0.00    -0.255 C  
HETATM   25  H   UNL     1     -11.542  14.980  69.623  1.00  0.00     0.000 HD 
HETATM   26  O   UNL     1     -11.473  14.252  70.230  1.00  0.00    -0.246 OA 
BRANCH  24  27
HETATM   27  C   UNL     1     -11.546  12.735  68.331  1.00  0.00    -0.325 C  
BRANCH  27  28
HETATM   28  O   UNL     1     -12.160  13.477  67.264  1.00  0.00    -0.368 OA 
BRANCH  28  29
HETATM   29  C   UNL     1     -11.879  12.998  66.010  1.00  0.00    -0.417 A  
HETATM   30  C   UNL     1     -12.400  13.533  64.829  1.00  0.00    -0.435 A  
HETATM   31  C   UNL     1     -12.047  12.987  63.592  1.00  0.00    -0.604 A  
HETATM   32  C   UNL     1     -11.166  11.910  63.530  1.00  0.00    -0.501 A  
HETATM   33  C   UNL     1     -10.621  11.369  64.700  1.00  0.00    -0.380 A  
HETATM   34  C   UNL     1      -9.668  10.201  64.634  1.00  0.00    -0.309 C  
HETATM   35  C   UNL     1     -10.976  11.931  65.940  1.00  0.00    -0.354 A  
HETATM   36  F   UNL     1      -9.460   9.744  63.366  1.00  0.00    -0.308 F  
HETATM   37  F   UNL     1     -10.107   9.126  65.345  1.00  0.00    -0.288 F  
HETATM   38  F   UNL     1      -8.435  10.500  65.126  1.00  0.00    -0.158 F  
ENDBRANCH  28  29
ENDBRANCH  27  28
ENDBRANCH  24  27
ENDBRANCH  23  24
ENDBRANCH  20  22
ENDBRANCH  12  13
ENDBRANCH  11  12
ENDBRANCH   9  10
ENDBRANCH   8   9
ENDBRANCH   7   8
ENDBRANCH   5   7
ENDBRANCH   4   5
ENDBRANCH   2   4
TORSDOF 13
ENDMDL
MODEL       25
REMARK 921   NORMALIZED FREE ENERGY PREDICTED BY IDOCK:   -6.74 KCAL/MOL
REMARK 922        TOTAL FREE ENERGY PREDICTED BY IDOCK:  -14.08 KCAL/MOL
REMARK 923 INTER-LIGAND FREE ENERGY PREDICTED BY IDOCK:  -11.71 KCAL/MOL
REMARK 924 INTRA-LIGAND FREE ENERGY PREDICTED BY IDOCK:   -2.37 KCAL/MOL
REMARK 927      BINDING AFFINITY PREDICTED BY RF-SCORE:    0.00 PKD
ROOT
HETATM    1  C   UNL     1     -10.733   4.291  72.931  1.00  0.00    -0.246 C  
HETATM    2  C   UNL     1     -11.318   5.678  72.690  1.00  0.00    -0.305 C  
HETATM    3  C   UNL     1     -10.589   6.725  73.527  1.00  0.00    -0.358 C  
ENDROOT
BRANCH   2   4
HETATM    4  O   UNL     1     -11.145   6.033  71.306  1.00  0.00    -0.276 OA 
BRANCH   4   5
HETATM    5  C   UNL     1     -11.839   7.135  70.905  1.00  0.00    -0.339 C  
HETATM    6  O   UNL     1     -13.004   7.375  71.193  1.00  0.00    -0.319 OA 
BRANCH   5   7
HETATM    7  C   UNL     1     -10.986   7.990  70.005  1.00  0.00    -0.202 C  
BRANCH   7   8
HETATM    8  C   UNL     1     -10.893   9.407  70.571  1.00  0.00    -0.336 C  
BRANCH   8   9
HETATM    9  C   UNL     1     -10.536  10.459  69.525  1.00  0.00    -0.274 C  
BRANCH   9  10
HETATM   10  C   UNL     1     -11.072  10.129  68.159  1.00  0.00    -0.290 C  
HETATM   11  C   UNL     1     -10.728  10.733  67.010  1.00  0.00    -0.320 C  
BRANCH  11  12
HETATM   12  C   UNL     1      -9.799  11.908  66.880  1.00  0.00    -0.217 C  
BRANCH  12  13
HETATM   13  C   UNL     1     -10.458  13.126  66.219  1.00  0.00    -0.291 C  
HETATM   14  C   UNL     1     -10.308  13.212  64.696  1.00  0.00    -0.361 C  
HETATM   15  O   UNL     1     -10.409  11.931  64.083  1.00  0.00    -0.286 OA 
HETATM   16  C   UNL     1     -11.500  14.055  64.256  1.00  0.00    -0.314 C  
HETATM   17  C   UNL     1     -12.640  13.562  65.142  1.00  0.00    -0.436 C  
HETATM   18  H   UNL     1     -10.316  11.985  63.139  1.00  0.00     0.000 HD 
HETATM   19  O   UNL     1     -13.257  12.419  64.542  1.00  0.00    -0.834 OA 
HETATM   20  C   UNL     1     -11.989  13.156  66.487  1.00  0.00    -0.459 C  
HETATM   21  H   UNL     1     -13.967  12.112  65.094  1.00  0.00     0.000 HD 
BRANCH  20  22
HETATM   22  C   UNL     1     -12.275  14.040  67.689  1.00  0.00    -0.235 C  
HETATM   23  C   UNL     1     -12.073  13.723  68.981  1.00  0.00    -0.359 C  
BRANCH  23  24
HETATM   24  C   UNL     1     -12.405  14.569  70.191  1.00  0.00    -0.342 C  
HETATM   25  H   UNL     1     -12.426  14.334  72.137  1.00  0.00     0.000 HD 
HETATM   26  O   UNL     1     -12.218  13.803  71.377  1.00  0.00    -0.305 OA 
BRANCH  24  27
HETATM   27  C   UNL     1     -11.513  15.827  70.226  1.00  0.00    -0.359 C  
BRANCH  27  28
HETATM   28  O   UNL     1     -10.138  15.496  69.973  1.00  0.00    -0.301 OA 
BRANCH  28  29
HETATM   29  C   UNL     1      -9.614  16.086  68.851  1.00  0.00    -0.236 A  
HETATM   30  C   UNL     1      -8.727  15.457  67.973  1.00  0.00    -0.160 A  
HETATM   31  C   UNL     1      -8.254  16.133  66.846  1.00  0.00    -0.273 A  
HETATM   32  C   UNL     1      -8.670  17.437  66.587  1.00  0.00    -0.286 A  
HETATM   33  C   UNL     1      -9.570  18.079  67.446  1.00  0.00    -0.272 A  
HETATM   34  C   UNL     1     -10.021  19.492  67.167  1.00  0.00    -0.373 C  
HETATM   35  C   UNL     1     -10.047  17.387  68.574  1.00  0.00    -0.352 A  
HETATM   36  F   UNL     1      -9.435  20.039  66.063  1.00  0.00    -0.425 F  
HETATM   37  F   UNL     1      -9.740  20.343  68.192  1.00  0.00    -0.451 F  
HETATM   38  F   UNL     1     -11.362  19.585  66.957  1.00  0.00    -0.515 F  
ENDBRANCH  28  29
ENDBRANCH  27  28
ENDBRANCH  24  27
ENDBRANCH  23  24
ENDBRANCH  20  22
ENDBRANCH  12  13
ENDBRANCH  11  12
ENDBRANCH   9  10
ENDBRANCH   8   9
ENDBRANCH   7   8
ENDBRANCH   5   7
ENDBRANCH   4   5
ENDBRANCH   2   4
TORSDOF 13
ENDMDL
MODEL       26
REMARK 921   NORMALIZED FREE ENERGY PREDICTED BY IDOCK:   -6.70 KCAL/MOL
REMARK 922        TOTAL FREE ENERGY PREDICTED BY IDOCK:  -14.02 KCAL/MOL
REMARK 923 INTER-LIGAND FREE ENERGY PREDICTED BY IDOCK:  -10.94 KCAL/MOL
REMARK 924 INTRA-LIGAND FREE ENERGY PREDICTED BY IDOCK:   -3.08 KCAL/MOL
REMARK 927      BINDING AFFINITY PREDICTED BY RF-SCORE:    0.00 PKD
ROOT
HETATM    1  C   UNL     1      -6.603   8.832  65.254  1.00  0.00    -0.067 C  
HETATM    2  C   UNL     1      -7.408   9.958  64.614  1.00  0.00    -0.140 C  
HETATM    3  C   UNL     1      -7.344   9.871  63.092  1.00  0.00    -0.130 C  
ENDROOT
BRANCH   2   4
HETATM    4  O   UNL     1      -8.789   9.832  64.998  1.00  0.00    -0.164 OA 
BRANCH   4   5
HETATM    5  C   UNL     1      -9.455  11.013  65.144  1.00  0.00    -0.228 C  
HETATM    6  O   UNL     1      -9.089  11.942  65.851  1.00  0.00    -0.186 OA 
BRANCH   5   7
HETATM    7  C   UNL     1     -10.738  10.990  64.356  1.00  0.00    -0.340 C  
BRANCH   7   8
HETATM    8  C   UNL     1     -10.819  12.226  63.460  1.00  0.00    -0.508 C  
BRANCH   8   9
HETATM    9  C   UNL     1     -12.032  13.107  63.746  1.00  0.00    -0.572 C  
BRANCH   9  10
HETATM   10  C   UNL     1     -12.580  12.912  65.133  1.00  0.00    -0.536 C  
HETATM   11  C   UNL     1     -12.362  13.715  66.187  1.00  0.00    -0.476 C  
BRANCH  11  12
HETATM   12  C   UNL     1     -11.464  14.921  66.200  1.00  0.00    -0.272 C  
BRANCH  12  13
HETATM   13  C   UNL     1     -10.549  14.976  67.431  1.00  0.00    -0.271 C  
HETATM   14  C   UNL     1      -9.083  15.323  67.148  1.00  0.00    -0.210 C  
HETATM   15  O   UNL     1      -8.961  16.309  66.128  1.00  0.00    -0.308 OA 
HETATM   16  C   UNL     1      -8.585  15.918  68.460  1.00  0.00    -0.190 C  
HETATM   17  C   UNL     1      -9.759  16.766  68.941  1.00  0.00    -0.257 C  
HETATM   18  H   UNL     1      -8.052  16.523  65.953  1.00  0.00     0.000 HD 
HETATM   19  O   UNL     1      -9.687  18.068  68.351  1.00  0.00    -0.309 OA 
HETATM   20  C   UNL     1     -11.037  16.043  68.452  1.00  0.00    -0.351 C  
HETATM   21  H   UNL     1     -10.418  18.596  68.650  1.00  0.00     0.000 HD 
BRANCH  20  22
HETATM   22  C   UNL     1     -11.901  15.375  69.507  1.00  0.00    -0.370 C  
HETATM   23  C   UNL     1     -11.838  15.576  70.836  1.00  0.00    -0.413 C  
BRANCH  23  24
HETATM   24  C   UNL     1     -12.652  14.878  71.905  1.00  0.00    -0.331 C  
HETATM   25  H   UNL     1     -14.071  15.365  73.167  1.00  0.00     0.000 HD 
HETATM   26  O   UNL     1     -13.560  15.803  72.496  1.00  0.00    -0.507 OA 
BRANCH  24  27
HETATM   27  C   UNL     1     -13.427  13.691  71.298  1.00  0.00    -0.126 C  
BRANCH  27  28
HETATM   28  O   UNL     1     -13.482  12.584  72.213  1.00  0.00    -0.556 OA 
BRANCH  28  29
HETATM   29  C   UNL     1     -12.925  11.427  71.730  1.00  0.00    -0.414 A  
HETATM   30  C   UNL     1     -13.046  10.179  72.347  1.00  0.00    -0.190 A  
HETATM   31  C   UNL     1     -12.456   9.049  71.776  1.00  0.00    -0.438 A  
HETATM   32  C   UNL     1     -11.748   9.160  70.581  1.00  0.00    -0.256 A  
HETATM   33  C   UNL     1     -11.627  10.398  69.939  1.00  0.00    -0.358 A  
HETATM   34  C   UNL     1     -10.859  10.520  68.646  1.00  0.00    -0.237 C  
HETATM   35  C   UNL     1     -12.233  11.528  70.518  1.00  0.00    -0.469 A  
HETATM   36  F   UNL     1     -10.295   9.346  68.239  1.00  0.00    -0.197 F  
HETATM   37  F   UNL     1      -9.833  11.411  68.728  1.00  0.00    -0.194 F  
HETATM   38  F   UNL     1     -11.637  10.934  67.609  1.00  0.00    -0.365 F  
ENDBRANCH  28  29
ENDBRANCH  27  28
ENDBRANCH  24  27
ENDBRANCH  23  24
ENDBRANCH  20  22
ENDBRANCH  12  13
ENDBRANCH  11  12
ENDBRANCH   9  10
ENDBRANCH   8   9
ENDBRANCH   7   8
ENDBRANCH   5   7
ENDBRANCH   4   5
ENDBRANCH   2   4
TORSDOF 13
ENDMDL
MODEL       27
REMARK 921   NORMALIZED FREE ENERGY PREDICTED BY IDOCK:   -6.70 KCAL/MOL
REMARK 922        TOTAL FREE ENERGY PREDICTED BY IDOCK:  -14.02 KCAL/MOL
REMARK 923 INTER-LIGAND FREE ENERGY PREDICTED BY IDOCK:  -11.19 KCAL/MOL
REMARK 924 INTRA-LIGAND FREE ENERGY PREDICTED BY IDOCK:   -2.83 KCAL/MOL
REMARK 927      BINDING AFFINITY PREDICTED BY RF-SCORE:    0.00 PKD
ROOT
HETATM    1  C   UNL     1      -9.687   4.352  66.968  1.00  0.00    -0.232 C  
HETATM    2  C   UNL     1      -9.764   4.188  68.482  1.00  0.00    -0.078 C  
HETATM    3  C   UNL     1      -9.045   2.918  68.925  1.00  0.00    -0.207 C  
ENDROOT
BRANCH   2   4
HETATM    4  O   UNL     1      -9.107   5.301  69.114  1.00  0.00    -0.104 OA 
BRANCH   4   5
HETATM    5  C   UNL     1      -9.842   5.932  70.074  1.00  0.00    -0.175 C  
HETATM    6  O   UNL     1      -9.651   5.837  71.279  1.00  0.00    -0.162 OA 
BRANCH   5   7
HETATM    7  C   UNL     1     -10.961   6.716  69.443  1.00  0.00    -0.361 C  
BRANCH   7   8
HETATM    8  C   UNL     1     -10.830   8.194  69.810  1.00  0.00    -0.190 C  
BRANCH   8   9
HETATM    9  C   UNL     1      -9.607   8.869  69.196  1.00  0.00    -0.162 C  
BRANCH   9  10
HETATM   10  C   UNL     1      -9.638  10.367  69.333  1.00  0.00    -0.213 C  
HETATM   11  C   UNL     1     -10.134  11.230  68.432  1.00  0.00    -0.202 C  
BRANCH  11  12
HETATM   12  C   UNL     1     -10.684  10.869  67.080  1.00  0.00    -0.323 C  
BRANCH  12  13
HETATM   13  C   UNL     1     -10.465  11.965  66.029  1.00  0.00    -0.282 C  
HETATM   14  C   UNL     1     -10.038  11.473  64.641  1.00  0.00    -0.271 C  
HETATM   15  O   UNL     1     -10.705  10.268  64.281  1.00  0.00    -0.186 OA 
HETATM   16  C   UNL     1     -10.498  12.581  63.700  1.00  0.00    -0.418 C  
HETATM   17  C   UNL     1     -11.854  12.995  64.263  1.00  0.00    -0.396 C  
HETATM   18  H   UNL     1     -10.441   9.963  63.420  1.00  0.00     0.000 HD 
HETATM   19  O   UNL     1     -12.877  12.148  63.727  1.00  0.00    -0.718 OA 
HETATM   20  C   UNL     1     -11.760  12.792  65.795  1.00  0.00    -0.449 C  
HETATM   21  H   UNL     1     -13.721  12.406  64.078  1.00  0.00     0.000 HD 
BRANCH  20  22
HETATM   22  C   UNL     1     -11.726  14.042  66.657  1.00  0.00    -0.420 C  
HETATM   23  C   UNL     1     -10.654  14.822  66.892  1.00  0.00    -0.294 C  
BRANCH  23  24
HETATM   24  C   UNL     1     -10.590  16.037  67.792  1.00  0.00    -0.309 C  
HETATM   25  H   UNL     1     -10.715  17.981  67.580  1.00  0.00     0.000 HD 
HETATM   26  O   UNL     1     -10.756  17.218  67.014  1.00  0.00    -0.270 OA 
BRANCH  24  27
HETATM   27  C   UNL     1     -11.683  15.958  68.877  1.00  0.00    -0.370 C  
BRANCH  27  28
HETATM   28  O   UNL     1     -11.161  15.417  70.102  1.00  0.00    -0.254 OA 
BRANCH  28  29
HETATM   29  C   UNL     1     -12.081  14.722  70.847  1.00  0.00    -0.324 A  
HETATM   30  C   UNL     1     -13.058  15.321  71.646  1.00  0.00    -0.507 A  
HETATM   31  C   UNL     1     -13.964  14.533  72.362  1.00  0.00    -0.580 A  
HETATM   32  C   UNL     1     -13.901  13.144  72.275  1.00  0.00    -0.586 A  
HETATM   33  C   UNL     1     -12.939  12.525  71.468  1.00  0.00    -0.379 A  
HETATM   34  C   UNL     1     -12.869  11.021  71.374  1.00  0.00    -0.443 C  
HETATM   35  C   UNL     1     -12.037  13.328  70.745  1.00  0.00    -0.311 A  
HETATM   36  F   UNL     1     -13.780  10.387  72.168  1.00  0.00    -0.427 F  
HETATM   37  F   UNL     1     -11.654  10.530  71.744  1.00  0.00    -0.232 F  
HETATM   38  F   UNL     1     -13.094  10.561  70.114  1.00  0.00    -0.357 F  
ENDBRANCH  28  29
ENDBRANCH  27  28
ENDBRANCH  24  27
ENDBRANCH  23  24
ENDBRANCH  20  22
ENDBRANCH  12  13
ENDBRANCH  11  12
ENDBRANCH   9  10
ENDBRANCH   8   9
ENDBRANCH   7   8
ENDBRANCH   5   7
ENDBRANCH   4   5
ENDBRANCH   2   4
TORSDOF 13
ENDMDL
MODEL       28
REMARK 921   NORMALIZED FREE ENERGY PREDICTED BY IDOCK:   -6.69 KCAL/MOL
REMARK 922        TOTAL FREE ENERGY PREDICTED BY IDOCK:  -13.99 KCAL/MOL
REMARK 923 INTER-LIGAND FREE ENERGY PREDICTED BY IDOCK:  -11.92 KCAL/MOL
REMARK 924 INTRA-LIGAND FREE ENERGY PREDICTED BY IDOCK:   -2.07 KCAL/MOL
REMARK 927      BINDING AFFINITY PREDICTED BY RF-SCORE:    0.00 PKD
ROOT
HETATM    1  C   UNL     1     -11.369   6.563  70.672  1.00  0.00    -0.409 C  
HETATM    2  C   UNL     1     -11.952   7.417  71.793  1.00  0.00    -0.305 C  
HETATM    3  C   UNL     1     -11.021   7.431  73.001  1.00  0.00    -0.422 C  
ENDROOT
BRANCH   2   4
HETATM    4  O   UNL     1     -12.089   8.774  71.335  1.00  0.00    -0.288 OA 
BRANCH   4   5
HETATM    5  C   UNL     1     -13.314   9.332  71.552  1.00  0.00    -0.369 C  
HETATM    6  O   UNL     1     -14.383   8.747  71.436  1.00  0.00    -0.356 OA 
BRANCH   5   7
HETATM    7  C   UNL     1     -13.169  10.790  71.897  1.00  0.00    -0.524 C  
BRANCH   7   8
HETATM    8  C   UNL     1     -12.381  11.508  70.801  1.00  0.00    -0.472 C  
BRANCH   8   9
HETATM    9  C   UNL     1     -12.740  12.984  70.659  1.00  0.00    -0.175 C  
BRANCH   9  10
HETATM   10  C   UNL     1     -11.538  13.854  70.411  1.00  0.00    -0.177 C  
HETATM   11  C   UNL     1     -11.294  14.561  69.296  1.00  0.00    -0.317 C  
BRANCH  11  12
HETATM   12  C   UNL     1     -12.138  14.557  68.051  1.00  0.00    -0.233 C  
BRANCH  12  13
HETATM   13  C   UNL     1     -11.435  13.910  66.850  1.00  0.00    -0.370 C  
HETATM   14  C   UNL     1     -12.362  13.284  65.801  1.00  0.00    -0.447 C  
HETATM   15  O   UNL     1     -13.535  14.066  65.601  1.00  0.00    -0.713 OA 
HETATM   16  C   UNL     1     -11.538  13.310  64.519  1.00  0.00    -0.407 C  
HETATM   17  C   UNL     1     -10.824  14.657  64.574  1.00  0.00    -0.188 C  
HETATM   18  H   UNL     1     -14.110  13.677  64.951  1.00  0.00     0.000 HD 
HETATM   19  O   UNL     1     -11.668  15.673  64.024  1.00  0.00    -0.899 OA 
HETATM   20  C   UNL     1     -10.572  14.946  66.075  1.00  0.00    -0.321 C  
HETATM   21  H   UNL     1     -11.223  16.512  64.059  1.00  0.00     0.000 HD 
BRANCH  20  22
HETATM   22  C   UNL     1      -9.136  14.873  66.562  1.00  0.00    -0.309 C  
HETATM   23  C   UNL     1      -8.565  13.847  67.219  1.00  0.00    -0.221 C  
BRANCH  23  24
HETATM   24  C   UNL     1      -7.153  13.782  67.760  1.00  0.00    -0.167 C  
HETATM   25  H   UNL     1      -5.518  12.775  67.369  1.00  0.00     0.000 HD 
HETATM   26  O   UNL     1      -6.404  12.816  67.029  1.00  0.00    -0.219 OA 
BRANCH  24  27
HETATM   27  C   UNL     1      -6.477  15.164  67.660  1.00  0.00    -0.155 C  
BRANCH  27  28
HETATM   28  O   UNL     1      -6.545  15.868  68.911  1.00  0.00    -0.115 OA 
BRANCH  28  29
HETATM   29  C   UNL     1      -7.035  17.146  68.811  1.00  0.00    -0.217 A  
HETATM   30  C   UNL     1      -6.390  18.277  69.319  1.00  0.00    -0.259 A  
HETATM   31  C   UNL     1      -6.958  19.544  69.160  1.00  0.00    -0.392 A  
HETATM   32  C   UNL     1      -8.168  19.686  68.486  1.00  0.00    -0.332 A  
HETATM   33  C   UNL     1      -8.823  18.568  67.956  1.00  0.00    -0.317 A  
HETATM   34  C   UNL     1     -10.135  18.721  67.226  1.00  0.00    -0.357 C  
HETATM   35  C   UNL     1      -8.238  17.298  68.115  1.00  0.00    -0.231 A  
HETATM   36  F   UNL     1     -10.590  20.007  67.196  1.00  0.00    -0.532 F  
HETATM   37  F   UNL     1     -11.135  17.989  67.790  1.00  0.00    -0.373 F  
HETATM   38  F   UNL     1     -10.064  18.324  65.927  1.00  0.00    -0.332 F  
ENDBRANCH  28  29
ENDBRANCH  27  28
ENDBRANCH  24  27
ENDBRANCH  23  24
ENDBRANCH  20  22
ENDBRANCH  12  13
ENDBRANCH  11  12
ENDBRANCH   9  10
ENDBRANCH   8   9
ENDBRANCH   7   8
ENDBRANCH   5   7
ENDBRANCH   4   5
ENDBRANCH   2   4
TORSDOF 13
ENDMDL
MODEL       29
REMARK 921   NORMALIZED FREE ENERGY PREDICTED BY IDOCK:   -6.65 KCAL/MOL
REMARK 922        TOTAL FREE ENERGY PREDICTED BY IDOCK:  -13.93 KCAL/MOL
REMARK 923 INTER-LIGAND FREE ENERGY PREDICTED BY IDOCK:  -11.35 KCAL/MOL
REMARK 924 INTRA-LIGAND FREE ENERGY PREDICTED BY IDOCK:   -2.58 KCAL/MOL
REMARK 927      BINDING AFFINITY PREDICTED BY RF-SCORE:    0.00 PKD
ROOT
HETATM    1  C   UNL     1     -13.544   8.272  71.592  1.00  0.00    -0.381 C  
HETATM    2  C   UNL     1     -12.314   8.945  72.191  1.00  0.00    -0.378 C  
HETATM    3  C   UNL     1     -11.321   7.904  72.697  1.00  0.00    -0.468 C  
ENDROOT
BRANCH   2   4
HETATM    4  O   UNL     1     -11.653   9.718  71.174  1.00  0.00    -0.331 OA 
BRANCH   4   5
HETATM    5  C   UNL     1     -12.322  10.837  70.777  1.00  0.00    -0.383 C  
HETATM    6  O   UNL     1     -13.065  11.500  71.488  1.00  0.00    -0.422 OA 
BRANCH   5   7
HETATM    7  C   UNL     1     -12.065  11.110  69.319  1.00  0.00    -0.377 C  
BRANCH   7   8
HETATM    8  C   UNL     1     -11.909  12.614  69.092  1.00  0.00    -0.349 C  
BRANCH   8   9
HETATM    9  C   UNL     1     -10.898  12.965  68.004  1.00  0.00    -0.261 C  
BRANCH   9  10
HETATM   10  C   UNL     1      -9.486  13.028  68.518  1.00  0.00    -0.098 C  
HETATM   11  C   UNL     1      -8.515  12.136  68.267  1.00  0.00    -0.176 C  
BRANCH  11  12
HETATM   12  C   UNL     1      -8.675  10.861  67.486  1.00  0.00    -0.130 C  
BRANCH  12  13
HETATM   13  C   UNL     1      -8.514  11.058  65.973  1.00  0.00    -0.158 C  
HETATM   14  C   UNL     1      -7.148  10.667  65.397  1.00  0.00    -0.011 C  
HETATM   15  O   UNL     1      -6.629   9.497  66.020  1.00  0.00    -0.074 OA 
HETATM   16  C   UNL     1      -7.441  10.350  63.936  1.00  0.00    -0.004 C  
HETATM   17  C   UNL     1      -8.775   9.611  63.985  1.00  0.00    -0.219 C  
HETATM   18  H   UNL     1      -5.782   9.255  65.663  1.00  0.00     0.000 HD 
HETATM   19  O   UNL     1      -8.546   8.218  64.217  1.00  0.00    -0.385 OA 
HETATM   20  C   UNL     1      -9.554  10.216  65.179  1.00  0.00    -0.354 C  
HETATM   21  H   UNL     1      -9.377   7.758  64.249  1.00  0.00     0.000 HD 
BRANCH  20  22
HETATM   22  C   UNL     1     -10.759  11.079  64.852  1.00  0.00    -0.278 C  
HETATM   23  C   UNL     1     -10.780  12.148  64.034  1.00  0.00    -0.432 C  
BRANCH  23  24
HETATM   24  C   UNL     1     -11.959  13.051  63.742  1.00  0.00    -0.518 C  
HETATM   25  H   UNL     1     -13.885  12.837  63.447  1.00  0.00     0.000 HD 
HETATM   26  O   UNL     1     -13.145  12.270  63.631  1.00  0.00    -0.780 OA 
BRANCH  24  27
HETATM   27  C   UNL     1     -12.119  14.102  64.859  1.00  0.00    -0.428 C  
BRANCH  27  28
HETATM   28  O   UNL     1     -11.673  15.396  64.424  1.00  0.00    -0.387 OA 
BRANCH  28  29
HETATM   29  C   UNL     1     -10.718  15.964  65.230  1.00  0.00    -0.424 A  
HETATM   30  C   UNL     1      -9.581  15.295  65.692  1.00  0.00    -0.313 A  
HETATM   31  C   UNL     1      -8.654  15.957  66.500  1.00  0.00    -0.345 A  
HETATM   32  C   UNL     1      -8.854  17.292  66.842  1.00  0.00    -0.259 A  
HETATM   33  C   UNL     1      -9.978  17.985  66.377  1.00  0.00    -0.362 A  
HETATM   34  C   UNL     1     -10.197  19.431  66.748  1.00  0.00    -0.420 C  
HETATM   35  C   UNL     1     -10.902  17.311  65.557  1.00  0.00    -0.024 A  
HETATM   36  F   UNL     1      -9.238  19.926  67.583  1.00  0.00    -0.366 F  
HETATM   37  F   UNL     1     -11.382  19.633  67.388  1.00  0.00    -0.513 F  
HETATM   38  F   UNL     1     -10.206  20.256  65.667  1.00  0.00    -0.537 F  
ENDBRANCH  28  29
ENDBRANCH  27  28
ENDBRANCH  24  27
ENDBRANCH  23  24
ENDBRANCH  20  22
ENDBRANCH  12  13
ENDBRANCH  11  12
ENDBRANCH   9  10
ENDBRANCH   8   9
ENDBRANCH   7   8
ENDBRANCH   5   7
ENDBRANCH   4   5
ENDBRANCH   2   4
TORSDOF 13
ENDMDL
MODEL       30
REMARK 921   NORMALIZED FREE ENERGY PREDICTED BY IDOCK:   -6.63 KCAL/MOL
REMARK 922        TOTAL FREE ENERGY PREDICTED BY IDOCK:  -13.89 KCAL/MOL
REMARK 923 INTER-LIGAND FREE ENERGY PREDICTED BY IDOCK:  -11.87 KCAL/MOL
REMARK 924 INTRA-LIGAND FREE ENERGY PREDICTED BY IDOCK:   -2.02 KCAL/MOL
REMARK 927      BINDING AFFINITY PREDICTED BY RF-SCORE:    0.00 PKD
ROOT
HETATM    1  C   UNL     1     -14.003  13.654  72.133  1.00  0.00    -0.609 C  
HETATM    2  C   UNL     1     -13.987  15.175  72.248  1.00  0.00    -0.530 C  
HETATM    3  C   UNL     1     -13.026  15.623  73.345  1.00  0.00    -0.676 C  
ENDROOT
BRANCH   2   4
HETATM    4  O   UNL     1     -13.524  15.740  71.009  1.00  0.00    -0.581 OA 
BRANCH   4   5
HETATM    5  C   UNL     1     -12.327  15.257  70.569  1.00  0.00    -0.387 C  
HETATM    6  O   UNL     1     -11.261  15.384  71.156  1.00  0.00    -0.343 OA 
BRANCH   5   7
HETATM    7  C   UNL     1     -12.492  14.594  69.227  1.00  0.00    -0.054 C  
BRANCH   7   8
HETATM    8  C   UNL     1     -11.515  13.426  69.101  1.00  0.00    -0.351 C  
BRANCH   8   9
HETATM    9  C   UNL     1     -11.936  12.191  69.892  1.00  0.00    -0.380 C  
BRANCH   9  10
HETATM   10  C   UNL     1     -11.962  10.942  69.053  1.00  0.00    -0.322 C  
HETATM   11  C   UNL     1     -10.890  10.296  68.568  1.00  0.00    -0.281 C  
BRANCH  11  12
HETATM   12  C   UNL     1      -9.460  10.740  68.708  1.00  0.00    -0.187 C  
BRANCH  12  13
HETATM   13  C   UNL     1      -8.662  10.618  67.403  1.00  0.00    -0.125 C  
HETATM   14  C   UNL     1      -7.539   9.574  67.410  1.00  0.00    -0.095 C  
HETATM   15  O   UNL     1      -7.915   8.401  68.125  1.00  0.00    -0.115 OA 
HETATM   16  C   UNL     1      -7.364   9.211  65.940  1.00  0.00    -0.094 C  
HETATM   17  C   UNL     1      -8.792   9.169  65.405  1.00  0.00    -0.196 C  
HETATM   18  H   UNL     1      -7.219   7.754  68.129  1.00  0.00     0.000 HD 
HETATM   19  O   UNL     1      -9.355   7.873  65.633  1.00  0.00    -0.404 OA 
HETATM   20  C   UNL     1      -9.582  10.229  66.211  1.00  0.00    -0.238 C  
HETATM   21  H   UNL     1     -10.244   7.847  65.300  1.00  0.00     0.000 HD 
BRANCH  20  22
HETATM   22  C   UNL     1     -10.010  11.484  65.471  1.00  0.00    -0.282 C  
HETATM   23  C   UNL     1     -11.217  11.717  64.925  1.00  0.00    -0.328 C  
BRANCH  23  24
HETATM   24  C   UNL     1     -11.642  12.938  64.136  1.00  0.00    -0.398 C  
HETATM   25  H   UNL     1     -13.176  13.466  63.037  1.00  0.00     0.000 HD 
HETATM   26  O   UNL     1     -12.910  12.700  63.532  1.00  0.00    -0.712 OA 
BRANCH  24  27
HETATM   27  C   UNL     1     -11.717  14.172  65.058  1.00  0.00    -0.376 C  
BRANCH  27  28
HETATM   28  O   UNL     1     -10.652  15.095  64.778  1.00  0.00    -0.398 OA 
BRANCH  28  29
HETATM   29  C   UNL     1     -10.125  15.701  65.891  1.00  0.00    -0.353 A  
HETATM   30  C   UNL     1      -9.376  15.038  66.866  1.00  0.00    -0.258 A  
HETATM   31  C   UNL     1      -8.867  15.740  67.962  1.00  0.00    -0.176 A  
HETATM   32  C   UNL     1      -9.097  17.108  68.082  1.00  0.00    -0.247 A  
HETATM   33  C   UNL     1      -9.832  17.794  67.108  1.00  0.00    -0.311 A  
HETATM   34  C   UNL     1     -10.083  19.276  67.238  1.00  0.00    -0.384 C  
HETATM   35  C   UNL     1     -10.333  17.080  66.004  1.00  0.00    -0.324 A  
HETATM   36  F   UNL     1      -9.571  19.813  68.383  1.00  0.00    -0.392 F  
HETATM   37  F   UNL     1     -11.410  19.583  67.249  1.00  0.00    -0.543 F  
HETATM   38  F   UNL     1      -9.538  19.994  66.219  1.00  0.00    -0.419 F  
ENDBRANCH  28  29
ENDBRANCH  27  28
ENDBRANCH  24  27
ENDBRANCH  23  24
ENDBRANCH  20  22
ENDBRANCH  12  13
ENDBRANCH  11  12
ENDBRANCH   9  10
ENDBRANCH   8   9
ENDBRANCH   7   8
ENDBRANCH   5   7
ENDBRANCH   4   5
ENDBRANCH   2   4
TORSDOF 13
ENDMDL
MODEL       31
REMARK 921   NORMALIZED FREE ENERGY PREDICTED BY IDOCK:   -6.60 KCAL/MOL
REMARK 922        TOTAL FREE ENERGY PREDICTED BY IDOCK:  -13.84 KCAL/MOL
REMARK 923 INTER-LIGAND FREE ENERGY PREDICTED BY IDOCK:  -11.04 KCAL/MOL
REMARK 924 INTRA-LIGAND FREE ENERGY PREDICTED BY IDOCK:   -2.80 KCAL/MOL
REMARK 927      BINDING AFFINITY PREDICTED BY RF-SCORE:    0.00 PKD
ROOT
HETATM    1  C   UNL     1     -12.762   9.877  71.716  1.00  0.00    -0.523 C  
HETATM    2  C   UNL     1     -12.926   8.365  71.826  1.00  0.00    -0.344 C  
HETATM    3  C   UNL     1     -14.400   7.977  71.770  1.00  0.00    -0.583 C  
ENDROOT
BRANCH   2   4
HETATM    4  O   UNL     1     -12.268   7.734  70.713  1.00  0.00    -0.197 OA 
BRANCH   4   5
HETATM    5  C   UNL     1     -11.324   6.811  71.052  1.00  0.00    -0.309 C  
HETATM    6  O   UNL     1     -11.474   5.927  71.884  1.00  0.00    -0.279 OA 
BRANCH   5   7
HETATM    7  C   UNL     1     -10.047   7.070  70.298  1.00  0.00    -0.198 C  
BRANCH   7   8
HETATM    8  C   UNL     1      -9.327   8.279  70.897  1.00  0.00    -0.187 C  
BRANCH   8   9
HETATM    9  C   UNL     1      -8.961   9.343  69.866  1.00  0.00    -0.215 C  
BRANCH   9  10
HETATM   10  C   UNL     1     -10.121  10.233  69.510  1.00  0.00    -0.260 C  
HETATM   11  C   UNL     1     -10.760  10.260  68.330  1.00  0.00    -0.276 C  
BRANCH  11  12
HETATM   12  C   UNL     1     -10.389   9.460  67.112  1.00  0.00    -0.326 C  
BRANCH  12  13
HETATM   13  C   UNL     1      -9.386  10.180  66.201  1.00  0.00    -0.217 C  
HETATM   14  C   UNL     1      -7.943   9.667  66.273  1.00  0.00    -0.108 C  
HETATM   15  O   UNL     1      -7.893   8.250  66.403  1.00  0.00    -0.092 OA 
HETATM   16  C   UNL     1      -7.348  10.051  64.924  1.00  0.00    -0.140 C  
HETATM   17  C   UNL     1      -8.479   9.778  63.937  1.00  0.00    -0.184 C  
HETATM   18  H   UNL     1      -6.999   7.932  66.448  1.00  0.00     0.000 HD 
HETATM   19  O   UNL     1      -8.446   8.405  63.534  1.00  0.00    -0.371 OA 
HETATM   20  C   UNL     1      -9.793  10.063  64.705  1.00  0.00    -0.325 C  
HETATM   21  H   UNL     1      -9.151   8.234  62.921  1.00  0.00     0.000 HD 
BRANCH  20  22
HETATM   22  C   UNL     1     -10.579  11.296  64.297  1.00  0.00    -0.422 C  
HETATM   23  C   UNL     1     -10.925  12.324  65.093  1.00  0.00    -0.344 C  
BRANCH  23  24
HETATM   24  C   UNL     1     -11.755  13.532  64.716  1.00  0.00    -0.370 C  
HETATM   25  H   UNL     1     -13.266  13.913  63.527  1.00  0.00     0.000 HD 
HETATM   26  O   UNL     1     -12.745  13.155  63.764  1.00  0.00    -0.688 OA 
BRANCH  24  27
HETATM   27  C   UNL     1     -12.426  14.134  65.967  1.00  0.00    -0.425 C  
BRANCH  27  28
HETATM   28  O   UNL     1     -12.131  13.356  67.139  1.00  0.00    -0.368 OA 
BRANCH  28  29
HETATM   29  C   UNL     1     -11.716  14.097  68.217  1.00  0.00    -0.348 A  
HETATM   30  C   UNL     1     -10.703  15.058  68.166  1.00  0.00    -0.256 A  
HETATM   31  C   UNL     1     -10.354  15.775  69.313  1.00  0.00    -0.245 A  
HETATM   32  C   UNL     1     -11.021  15.541  70.513  1.00  0.00    -0.368 A  
HETATM   33  C   UNL     1     -12.050  14.593  70.581  1.00  0.00    -0.385 A  
HETATM   34  C   UNL     1     -12.773  14.338  71.881  1.00  0.00    -0.338 C  
HETATM   35  C   UNL     1     -12.399  13.882  69.419  1.00  0.00    -0.240 A  
HETATM   36  F   UNL     1     -12.288  15.073  72.923  1.00  0.00    -0.383 F  
HETATM   37  F   UNL     1     -12.691  13.038  72.278  1.00  0.00    -0.314 F  
HETATM   38  F   UNL     1     -14.100  14.628  71.811  1.00  0.00    -0.412 F  
ENDBRANCH  28  29
ENDBRANCH  27  28
ENDBRANCH  24  27
ENDBRANCH  23  24
ENDBRANCH  20  22
ENDBRANCH  12  13
ENDBRANCH  11  12
ENDBRANCH   9  10
ENDBRANCH   8   9
ENDBRANCH   7   8
ENDBRANCH   5   7
ENDBRANCH   4   5
ENDBRANCH   2   4
TORSDOF 13
ENDMDL
MODEL       32
REMARK 921   NORMALIZED FREE ENERGY PREDICTED BY IDOCK:   -6.60 KCAL/MOL
REMARK 922        TOTAL FREE ENERGY PREDICTED BY IDOCK:  -13.83 KCAL/MOL
REMARK 923 INTER-LIGAND FREE ENERGY PREDICTED BY IDOCK:  -10.49 KCAL/MOL
REMARK 924 INTRA-LIGAND FREE ENERGY PREDICTED BY IDOCK:   -3.34 KCAL/MOL
REMARK 927      BINDING AFFINITY PREDICTED BY RF-SCORE:    0.00 PKD
ROOT
HETATM    1  C   UNL     1     -12.236  15.069  64.290  1.00  0.00    -0.312 C  
HETATM    2  C   UNL     1     -11.476  14.118  65.206  1.00  0.00    -0.330 C  
HETATM    3  C   UNL     1     -11.463  14.642  66.639  1.00  0.00    -0.363 C  
ENDROOT
BRANCH   2   4
HETATM    4  O   UNL     1     -12.137  12.839  65.218  1.00  0.00    -0.405 OA 
BRANCH   4   5
HETATM    5  C   UNL     1     -12.080  12.153  64.042  1.00  0.00    -0.443 C  
HETATM    6  O   UNL     1     -13.028  11.969  63.290  1.00  0.00    -0.736 OA 
BRANCH   5   7
HETATM    7  C   UNL     1     -10.696  11.601  63.825  1.00  0.00    -0.482 C  
BRANCH   7   8
HETATM    8  C   UNL     1     -10.184  10.964  65.117  1.00  0.00    -0.360 C  
BRANCH   8   9
HETATM    9  C   UNL     1      -9.457   9.640  64.898  1.00  0.00    -0.288 C  
BRANCH   9  10
HETATM   10  C   UNL     1      -8.761   9.145  66.136  1.00  0.00    -0.169 C  
HETATM   11  C   UNL     1      -9.250   8.254  67.012  1.00  0.00    -0.187 C  
BRANCH  11  12
HETATM   12  C   UNL     1     -10.620   7.636  66.964  1.00  0.00    -0.406 C  
BRANCH  12  13
HETATM   13  C   UNL     1     -10.620   6.143  67.316  1.00  0.00    -0.362 C  
HETATM   14  C   UNL     1     -10.346   5.189  66.147  1.00  0.00    -0.236 C  
HETATM   15  O   UNL     1      -9.360   5.710  65.261  1.00  0.00    -0.361 OA 
HETATM   16  C   UNL     1      -9.786   3.939  66.814  1.00  0.00    -0.189 C  
HETATM   17  C   UNL     1      -8.883   4.489  67.914  1.00  0.00    -0.107 C  
HETATM   18  H   UNL     1      -9.190   5.119  64.537  1.00  0.00     0.000 HD 
HETATM   19  O   UNL     1      -7.582   4.758  67.381  1.00  0.00    -0.084 OA 
HETATM   20  C   UNL     1      -9.537   5.812  68.382  1.00  0.00    -0.147 C  
HETATM   21  H   UNL     1      -7.020   5.101  68.066  1.00  0.00     0.000 HD 
BRANCH  20  22
HETATM   22  C   UNL     1     -10.168   5.822  69.763  1.00  0.00    -0.303 C  
HETATM   23  C   UNL     1     -11.382   6.306  70.085  1.00  0.00    -0.476 C  
BRANCH  23  24
HETATM   24  C   UNL     1     -12.001   6.373  71.464  1.00  0.00    -0.273 C  
HETATM   25  H   UNL     1     -11.510   5.823  73.280  1.00  0.00     0.000 HD 
HETATM   26  O   UNL     1     -11.121   5.781  72.414  1.00  0.00    -0.253 OA 
BRANCH  24  27
HETATM   27  C   UNL     1     -12.289   7.838  71.851  1.00  0.00    -0.310 C  
BRANCH  27  28
HETATM   28  O   UNL     1     -11.131   8.460  72.431  1.00  0.00    -0.346 OA 
BRANCH  28  29
HETATM   29  C   UNL     1     -10.297   9.059  71.521  1.00  0.00    -0.342 A  
HETATM   30  C   UNL     1      -8.921   8.830  71.446  1.00  0.00    -0.307 A  
HETATM   31  C   UNL     1      -8.150   9.476  70.475  1.00  0.00    -0.199 A  
HETATM   32  C   UNL     1      -8.754  10.347  69.571  1.00  0.00    -0.102 A  
HETATM   33  C   UNL     1     -10.134  10.578  69.619  1.00  0.00    -0.177 A  
HETATM   34  C   UNL     1     -10.788  11.521  68.641  1.00  0.00    -0.212 C  
HETATM   35  C   UNL     1     -10.902   9.916  70.595  1.00  0.00    -0.400 A  
HETATM   36  F   UNL     1      -9.904  12.117  67.789  1.00  0.00    -0.183 F  
HETATM   37  F   UNL     1     -11.448  12.541  69.258  1.00  0.00    -0.285 F  
HETATM   38  F   UNL     1     -11.706  10.905  67.848  1.00  0.00    -0.359 F  
ENDBRANCH  28  29
ENDBRANCH  27  28
ENDBRANCH  24  27
ENDBRANCH  23  24
ENDBRANCH  20  22
ENDBRANCH  12  13
ENDBRANCH  11  12
ENDBRANCH   9  10
ENDBRANCH   8   9
ENDBRANCH   7   8
ENDBRANCH   5   7
ENDBRANCH   4   5
ENDBRANCH   2   4
TORSDOF 13
ENDMDL
MODEL       33
REMARK 921   NORMALIZED FREE ENERGY PREDICTED BY IDOCK:   -6.57 KCAL/MOL
REMARK 922        TOTAL FREE ENERGY PREDICTED BY IDOCK:  -13.79 KCAL/MOL
REMARK 923 INTER-LIGAND FREE ENERGY PREDICTED BY IDOCK:  -11.16 KCAL/MOL
REMARK 924 INTRA-LIGAND FREE ENERGY PREDICTED BY IDOCK:   -2.63 KCAL/MOL
REMARK 927      BINDING AFFINITY PREDICTED BY RF-SCORE:    0.00 PKD
ROOT
HETATM    1  C   UNL     1      -7.423   6.466  67.545  1.00  0.00    -0.092 C  
HETATM    2  C   UNL     1      -7.808   6.812  66.111  1.00  0.00    -0.102 C  
HETATM    3  C   UNL     1      -7.651   5.598  65.201  1.00  0.00    -0.078 C  
ENDROOT
BRANCH   2   4
HETATM    4  O   UNL     1      -9.191   7.207  66.072  1.00  0.00    -0.127 OA 
BRANCH   4   5
HETATM    5  C   UNL     1      -9.420   8.524  66.342  1.00  0.00    -0.232 C  
HETATM    6  O   UNL     1      -8.903   9.462  65.751  1.00  0.00    -0.151 OA 
BRANCH   5   7
HETATM    7  C   UNL     1     -10.357   8.661  67.513  1.00  0.00    -0.336 C  
BRANCH   7   8
HETATM    8  C   UNL     1     -10.390  10.116  67.983  1.00  0.00    -0.227 C  
BRANCH   8   9
HETATM    9  C   UNL     1      -9.620  10.355  69.279  1.00  0.00    -0.226 C  
BRANCH   9  10
HETATM   10  C   UNL     1      -9.065   9.088  69.870  1.00  0.00    -0.176 C  
HETATM   11  C   UNL     1      -9.494   8.488  70.991  1.00  0.00    -0.234 C  
BRANCH  11  12
HETATM   12  C   UNL     1     -10.562   9.010  71.913  1.00  0.00    -0.388 C  
BRANCH  12  13
HETATM   13  C   UNL     1     -11.979   8.842  71.349  1.00  0.00    -0.367 C  
HETATM   14  C   UNL     1     -12.571   7.432  71.461  1.00  0.00    -0.367 C  
HETATM   15  O   UNL     1     -12.217   6.807  72.691  1.00  0.00    -0.492 OA 
HETATM   16  C   UNL     1     -14.077   7.663  71.450  1.00  0.00    -0.479 C  
HETATM   17  C   UNL     1     -14.258   8.915  72.303  1.00  0.00    -0.397 C  
HETATM   18  H   UNL     1     -12.585   5.933  72.759  1.00  0.00     0.000 HD 
HETATM   19  O   UNL     1     -14.348   8.549  73.684  1.00  0.00    -0.694 OA 
HETATM   20  C   UNL     1     -12.990   9.774  72.074  1.00  0.00    -0.515 C  
HETATM   21  H   UNL     1     -14.460   9.328  74.215  1.00  0.00     0.000 HD 
BRANCH  20  22
HETATM   22  C   UNL     1     -13.158  11.056  71.277  1.00  0.00    -0.381 C  
HETATM   23  C   UNL     1     -12.513  12.218  71.487  1.00  0.00    -0.132 C  
BRANCH  23  24
HETATM   24  C   UNL     1     -12.709  13.519  70.739  1.00  0.00    -0.245 C  
HETATM   25  H   UNL     1     -12.568  15.433  71.138  1.00  0.00     0.000 HD 
HETATM   26  O   UNL     1     -12.444  14.616  71.608  1.00  0.00    -0.317 OA 
BRANCH  24  27
HETATM   27  C   UNL     1     -11.777  13.578  69.512  1.00  0.00    -0.322 C  
BRANCH  27  28
HETATM   28  O   UNL     1     -12.213  14.576  68.575  1.00  0.00    -0.254 OA 
BRANCH  28  29
HETATM   29  C   UNL     1     -11.562  14.537  67.368  1.00  0.00    -0.385 A  
HETATM   30  C   UNL     1     -10.602  15.468  66.962  1.00  0.00    -0.311 A  
HETATM   31  C   UNL     1      -9.980  15.342  65.718  1.00  0.00    -0.393 A  
HETATM   32  C   UNL     1     -10.309  14.281  64.877  1.00  0.00    -0.429 A  
HETATM   33  C   UNL     1     -11.256  13.329  65.271  1.00  0.00    -0.315 A  
HETATM   34  C   UNL     1     -11.614  12.181  64.360  1.00  0.00    -0.350 C  
HETATM   35  C   UNL     1     -11.871  13.460  66.529  1.00  0.00    -0.443 A  
HETATM   36  F   UNL     1     -10.966  12.219  63.160  1.00  0.00    -0.457 F  
HETATM   37  F   UNL     1     -12.942  12.144  64.060  1.00  0.00    -0.548 F  
HETATM   38  F   UNL     1     -11.316  10.968  64.901  1.00  0.00    -0.200 F  
ENDBRANCH  28  29
ENDBRANCH  27  28
ENDBRANCH  24  27
ENDBRANCH  23  24
ENDBRANCH  20  22
ENDBRANCH  12  13
ENDBRANCH  11  12
ENDBRANCH   9  10
ENDBRANCH   8   9
ENDBRANCH   7   8
ENDBRANCH   5   7
ENDBRANCH   4   5
ENDBRANCH   2   4
TORSDOF 13
ENDMDL
MODEL       34
REMARK 921   NORMALIZED FREE ENERGY PREDICTED BY IDOCK:   -6.56 KCAL/MOL
REMARK 922        TOTAL FREE ENERGY PREDICTED BY IDOCK:  -13.76 KCAL/MOL
REMARK 923 INTER-LIGAND FREE ENERGY PREDICTED BY IDOCK:  -11.72 KCAL/MOL
REMARK 924 INTRA-LIGAND FREE ENERGY PREDICTED BY IDOCK:   -2.05 KCAL/MOL
REMARK 927      BINDING AFFINITY PREDICTED BY RF-SCORE:    0.00 PKD
ROOT
HETATM    1  C   UNL     1      -9.767   4.160  69.471  1.00  0.00    -0.254 C  
HETATM    2  C   UNL     1      -9.933   5.663  69.665  1.00  0.00    -0.203 C  
HETATM    3  C   UNL     1     -11.020   6.209  68.745  1.00  0.00    -0.421 C  
ENDROOT
BRANCH   2   4
HETATM    4  O   UNL     1     -10.339   5.925  71.020  1.00  0.00    -0.205 OA 
BRANCH   4   5
HETATM    5  C   UNL     1      -9.451   6.653  71.755  1.00  0.00    -0.151 C  
HETATM    6  O   UNL     1      -8.321   6.290  72.053  1.00  0.00    -0.110 OA 
BRANCH   5   7
HETATM    7  C   UNL     1     -10.079   7.947  72.200  1.00  0.00    -0.279 C  
BRANCH   7   8
HETATM    8  C   UNL     1     -11.559   7.725  72.513  1.00  0.00    -0.422 C  
BRANCH   8   9
HETATM    9  C   UNL     1     -12.381   9.011  72.519  1.00  0.00    -0.276 C  
BRANCH   9  10
HETATM   10  C   UNL     1     -12.850   9.409  71.147  1.00  0.00    -0.322 C  
HETATM   11  C   UNL     1     -12.784  10.642  70.619  1.00  0.00    -0.445 C  
BRANCH  11  12
HETATM   12  C   UNL     1     -12.299  11.876  71.327  1.00  0.00    -0.212 C  
BRANCH  12  13
HETATM   13  C   UNL     1     -12.872  13.172  70.740  1.00  0.00    -0.169 C  
HETATM   14  C   UNL     1     -13.819  13.952  71.659  1.00  0.00    -0.296 C  
HETATM   15  O   UNL     1     -13.385  13.918  73.015  1.00  0.00    -0.623 OA 
HETATM   16  C   UNL     1     -13.724  15.387  71.155  1.00  0.00    -0.497 C  
HETATM   17  C   UNL     1     -12.243  15.561  70.834  1.00  0.00    -0.400 C  
HETATM   18  H   UNL     1     -13.972  14.401  73.585  1.00  0.00     0.000 HD 
HETATM   19  O   UNL     1     -11.537  15.954  72.015  1.00  0.00    -0.423 OA 
HETATM   20  C   UNL     1     -11.742  14.173  70.366  1.00  0.00    -0.312 C  
HETATM   21  H   UNL     1     -10.614  16.062  71.815  1.00  0.00     0.000 HD 
BRANCH  20  22
HETATM   22  C   UNL     1     -11.398  14.021  68.895  1.00  0.00    -0.314 C  
HETATM   23  C   UNL     1     -12.234  13.633  67.914  1.00  0.00    -0.185 C  
BRANCH  23  24
HETATM   24  C   UNL     1     -11.893  13.423  66.455  1.00  0.00    -0.396 C  
HETATM   25  H   UNL     1     -12.490  14.139  64.731  1.00  0.00     0.000 HD 
HETATM   26  O   UNL     1     -12.704  14.271  65.647  1.00  0.00    -0.471 OA 
BRANCH  24  27
HETATM   27  C   UNL     1     -10.401  13.721  66.204  1.00  0.00    -0.301 C  
BRANCH  27  28
HETATM   28  O   UNL     1     -10.234  14.904  65.406  1.00  0.00    -0.336 OA 
BRANCH  28  29
HETATM   29  C   UNL     1      -9.608  15.938  66.056  1.00  0.00    -0.350 A  
HETATM   30  C   UNL     1      -8.373  15.827  66.700  1.00  0.00    -0.319 A  
HETATM   31  C   UNL     1      -7.802  16.939  67.327  1.00  0.00    -0.204 A  
HETATM   32  C   UNL     1      -8.460  18.166  67.305  1.00  0.00    -0.243 A  
HETATM   33  C   UNL     1      -9.691  18.301  66.652  1.00  0.00    -0.339 A  
HETATM   34  C   UNL     1     -10.406  19.630  66.628  1.00  0.00    -0.486 C  
HETATM   35  C   UNL     1     -10.253  17.178  66.017  1.00  0.00    -0.332 A  
HETATM   36  F   UNL     1      -9.755  20.606  67.325  1.00  0.00    -0.548 F  
HETATM   37  F   UNL     1     -11.654  19.563  67.168  1.00  0.00    -0.330 F  
HETATM   38  F   UNL     1     -10.566  20.120  65.369  1.00  0.00    -0.546 F  
ENDBRANCH  28  29
ENDBRANCH  27  28
ENDBRANCH  24  27
ENDBRANCH  23  24
ENDBRANCH  20  22
ENDBRANCH  12  13
ENDBRANCH  11  12
ENDBRANCH   9  10
ENDBRANCH   8   9
ENDBRANCH   7   8
ENDBRANCH   5   7
ENDBRANCH   4   5
ENDBRANCH   2   4
TORSDOF 13
ENDMDL
MODEL       35
REMARK 921   NORMALIZED FREE ENERGY PREDICTED BY IDOCK:   -6.55 KCAL/MOL
REMARK 922        TOTAL FREE ENERGY PREDICTED BY IDOCK:  -13.75 KCAL/MOL
REMARK 923 INTER-LIGAND FREE ENERGY PREDICTED BY IDOCK:  -11.46 KCAL/MOL
REMARK 924 INTRA-LIGAND FREE ENERGY PREDICTED BY IDOCK:   -2.29 KCAL/MOL
REMARK 927      BINDING AFFINITY PREDICTED BY RF-SCORE:    0.00 PKD
ROOT
HETATM    1  C   UNL     1     -10.290  20.025  68.397  1.00  0.00    -0.465 C  
HETATM    2  C   UNL     1     -10.039  19.011  67.286  1.00  0.00    -0.364 C  
HETATM    3  C   UNL     1     -10.502  19.560  65.940  1.00  0.00    -0.585 C  
ENDROOT
BRANCH   2   4
HETATM    4  O   UNL     1      -8.627  18.754  67.187  1.00  0.00    -0.268 OA 
BRANCH   4   5
HETATM    5  C   UNL     1      -8.083  18.115  68.261  1.00  0.00    -0.297 C  
HETATM    6  O   UNL     1      -7.073  18.470  68.853  1.00  0.00    -0.279 OA 
BRANCH   5   7
HETATM    7  C   UNL     1      -8.870  16.872  68.582  1.00  0.00    -0.262 C  
BRANCH   7   8
HETATM    8  C   UNL     1      -7.937  15.796  69.138  1.00  0.00    -0.231 C  
BRANCH   8   9
HETATM    9  C   UNL     1      -8.497  14.382  69.019  1.00  0.00    -0.001 C  
BRANCH   9  10
HETATM   10  C   UNL     1      -8.200  13.747  67.687  1.00  0.00    -0.180 C  
HETATM   11  C   UNL     1      -9.099  13.465  66.731  1.00  0.00    -0.221 C  
BRANCH  11  12
HETATM   12  C   UNL     1     -10.586  13.659  66.839  1.00  0.00    -0.271 C  
BRANCH  12  13
HETATM   13  C   UNL     1     -11.382  12.759  65.884  1.00  0.00    -0.363 C  
HETATM   14  C   UNL     1     -12.029  13.472  64.691  1.00  0.00    -0.400 C  
HETATM   15  O   UNL     1     -11.188  14.495  64.168  1.00  0.00    -0.599 OA 
HETATM   16  C   UNL     1     -12.172  12.377  63.641  1.00  0.00    -0.653 C  
HETATM   17  C   UNL     1     -10.879  11.578  63.772  1.00  0.00    -0.416 C  
HETATM   18  H   UNL     1     -11.590  14.936  63.429  1.00  0.00     0.000 HD 
HETATM   19  O   UNL     1      -9.857  12.181  62.971  1.00  0.00    -0.490 OA 
HETATM   20  C   UNL     1     -10.480  11.654  65.266  1.00  0.00    -0.323 C  
HETATM   21  H   UNL     1      -9.052  11.683  63.052  1.00  0.00     0.000 HD 
BRANCH  20  22
HETATM   22  C   UNL     1     -10.611  10.380  66.082  1.00  0.00    -0.160 C  
HETATM   23  C   UNL     1      -9.614   9.542  66.423  1.00  0.00    -0.273 C  
BRANCH  23  24
HETATM   24  C   UNL     1      -9.736   8.241  67.186  1.00  0.00    -0.195 C  
HETATM   25  H   UNL     1      -9.036   6.417  67.023  1.00  0.00     0.000 HD 
HETATM   26  O   UNL     1      -8.959   7.234  66.544  1.00  0.00    -0.140 OA 
BRANCH  24  27
HETATM   27  C   UNL     1      -9.262   8.427  68.642  1.00  0.00    -0.143 C  
BRANCH  27  28
HETATM   28  O   UNL     1      -9.267   9.815  69.016  1.00  0.00    -0.150 OA 
BRANCH  28  29
HETATM   29  C   UNL     1     -10.379  10.204  69.720  1.00  0.00    -0.259 A  
HETATM   30  C   UNL     1     -10.945  11.480  69.652  1.00  0.00    -0.129 A  
HETATM   31  C   UNL     1     -12.088  11.785  70.395  1.00  0.00    -0.440 A  
HETATM   32  C   UNL     1     -12.674  10.813  71.203  1.00  0.00    -0.532 A  
HETATM   33  C   UNL     1     -12.131   9.525  71.274  1.00  0.00    -0.443 A  
HETATM   34  C   UNL     1     -12.765   8.473  72.150  1.00  0.00    -0.373 C  
HETATM   35  C   UNL     1     -10.985   9.226  70.515  1.00  0.00    -0.318 A  
HETATM   36  F   UNL     1     -13.840   8.931  72.854  1.00  0.00    -0.452 F  
HETATM   37  F   UNL     1     -11.902   7.975  73.078  1.00  0.00    -0.419 F  
HETATM   38  F   UNL     1     -13.217   7.401  71.443  1.00  0.00    -0.364 F  
ENDBRANCH  28  29
ENDBRANCH  27  28
ENDBRANCH  24  27
ENDBRANCH  23  24
ENDBRANCH  20  22
ENDBRANCH  12  13
ENDBRANCH  11  12
ENDBRANCH   9  10
ENDBRANCH   8   9
ENDBRANCH   7   8
ENDBRANCH   5   7
ENDBRANCH   4   5
ENDBRANCH   2   4
TORSDOF 13
ENDMDL
MODEL       36
REMARK 921   NORMALIZED FREE ENERGY PREDICTED BY IDOCK:   -6.55 KCAL/MOL
REMARK 922        TOTAL FREE ENERGY PREDICTED BY IDOCK:  -13.75 KCAL/MOL
REMARK 923 INTER-LIGAND FREE ENERGY PREDICTED BY IDOCK:  -11.16 KCAL/MOL
REMARK 924 INTRA-LIGAND FREE ENERGY PREDICTED BY IDOCK:   -2.59 KCAL/MOL
REMARK 927      BINDING AFFINITY PREDICTED BY RF-SCORE:    0.00 PKD
ROOT
HETATM    1  C   UNL     1      -9.787  10.375  64.488  1.00  0.00    -0.405 C  
HETATM    2  C   UNL     1      -9.816  10.301  66.011  1.00  0.00    -0.233 C  
HETATM    3  C   UNL     1     -10.215   8.904  66.476  1.00  0.00    -0.319 C  
ENDROOT
BRANCH   2   4
HETATM    4  O   UNL     1      -8.499  10.570  66.525  1.00  0.00    -0.133 OA 
BRANCH   4   5
HETATM    5  C   UNL     1      -8.442  11.547  67.473  1.00  0.00    -0.143 C  
HETATM    6  O   UNL     1      -9.341  11.819  68.257  1.00  0.00    -0.184 OA 
BRANCH   5   7
HETATM    7  C   UNL     1      -7.134  12.288  67.381  1.00  0.00    -0.151 C  
BRANCH   7   8
HETATM    8  C   UNL     1      -7.379  13.792  67.507  1.00  0.00    -0.176 C  
BRANCH   8   9
HETATM    9  C   UNL     1      -6.175  14.564  68.038  1.00  0.00    -0.162 C  
BRANCH   9  10
HETATM   10  C   UNL     1      -5.991  15.894  67.361  1.00  0.00    -0.125 C  
HETATM   11  C   UNL     1      -6.624  17.034  67.680  1.00  0.00    -0.163 C  
BRANCH  11  12
HETATM   12  C   UNL     1      -7.696  17.181  68.725  1.00  0.00    -0.259 C  
BRANCH  12  13
HETATM   13  C   UNL     1      -8.965  17.861  68.194  1.00  0.00    -0.268 C  
HETATM   14  C   UNL     1      -9.141  19.332  68.590  1.00  0.00    -0.380 C  
HETATM   15  O   UNL     1      -7.902  20.033  68.577  1.00  0.00    -0.242 OA 
HETATM   16  C   UNL     1     -10.033  19.904  67.494  1.00  0.00    -0.552 C  
HETATM   17  C   UNL     1      -9.509  19.246  66.221  1.00  0.00    -0.345 C  
HETATM   18  H   UNL     1      -8.011  20.945  68.822  1.00  0.00     0.000 HD 
HETATM   19  O   UNL     1      -8.418  20.010  65.698  1.00  0.00    -0.470 OA 
HETATM   20  C   UNL     1      -9.009  17.842  66.640  1.00  0.00    -0.282 C  
HETATM   21  H   UNL     1      -8.091  19.600  64.905  1.00  0.00     0.000 HD 
BRANCH  20  22
HETATM   22  C   UNL     1      -9.823  16.649  66.171  1.00  0.00    -0.340 C  
HETATM   23  C   UNL     1     -10.624  15.880  66.931  1.00  0.00    -0.309 C  
BRANCH  23  24
HETATM   24  C   UNL     1     -11.398  14.655  66.492  1.00  0.00    -0.353 C  
HETATM   25  H   UNL     1     -11.016  12.997  65.519  1.00  0.00     0.000 HD 
HETATM   26  O   UNL     1     -10.530  13.766  65.795  1.00  0.00    -0.284 OA 
BRANCH  24  27
HETATM   27  C   UNL     1     -12.015  13.945  67.713  1.00  0.00    -0.355 C  
BRANCH  27  28
HETATM   28  O   UNL     1     -11.594  14.562  68.941  1.00  0.00    -0.276 OA 
BRANCH  28  29
HETATM   29  C   UNL     1     -12.228  14.081  70.059  1.00  0.00    -0.352 A  
HETATM   30  C   UNL     1     -12.887  14.883  70.995  1.00  0.00    -0.425 A  
HETATM   31  C   UNL     1     -13.517  14.304  72.099  1.00  0.00    -0.524 A  
HETATM   32  C   UNL     1     -13.500  12.922  72.268  1.00  0.00    -0.631 A  
HETATM   33  C   UNL     1     -12.858  12.100  71.334  1.00  0.00    -0.378 A  
HETATM   34  C   UNL     1     -12.837  10.602  71.516  1.00  0.00    -0.462 C  
HETATM   35  C   UNL     1     -12.233  12.692  70.221  1.00  0.00    -0.347 A  
HETATM   36  F   UNL     1     -13.446  10.188  72.665  1.00  0.00    -0.381 F  
HETATM   37  F   UNL     1     -11.573  10.099  71.569  1.00  0.00    -0.427 F  
HETATM   38  F   UNL     1     -13.465   9.940  70.507  1.00  0.00    -0.326 F  
ENDBRANCH  28  29
ENDBRANCH  27  28
ENDBRANCH  24  27
ENDBRANCH  23  24
ENDBRANCH  20  22
ENDBRANCH  12  13
ENDBRANCH  11  12
ENDBRANCH   9  10
ENDBRANCH   8   9
ENDBRANCH   7   8
ENDBRANCH   5   7
ENDBRANCH   4   5
ENDBRANCH   2   4
TORSDOF 13
ENDMDL
MODEL       37
REMARK 921   NORMALIZED FREE ENERGY PREDICTED BY IDOCK:   -6.55 KCAL/MOL
REMARK 922        TOTAL FREE ENERGY PREDICTED BY IDOCK:  -13.75 KCAL/MOL
REMARK 923 INTER-LIGAND FREE ENERGY PREDICTED BY IDOCK:  -11.31 KCAL/MOL
REMARK 924 INTRA-LIGAND FREE ENERGY PREDICTED BY IDOCK:   -2.44 KCAL/MOL
REMARK 927      BINDING AFFINITY PREDICTED BY RF-SCORE:    0.00 PKD
ROOT
HETATM    1  C   UNL     1     -13.607  15.821  72.957  1.00  0.00    -0.638 C  
HETATM    2  C   UNL     1     -12.911  14.765  72.106  1.00  0.00    -0.331 C  
HETATM    3  C   UNL     1     -13.556  13.398  72.308  1.00  0.00    -0.703 C  
ENDROOT
BRANCH   2   4
HETATM    4  O   UNL     1     -13.050  15.108  70.715  1.00  0.00    -0.402 OA 
BRANCH   4   5
HETATM    5  C   UNL     1     -11.886  15.104  70.004  1.00  0.00    -0.325 C  
HETATM    6  O   UNL     1     -10.786  15.389  70.456  1.00  0.00    -0.309 OA 
BRANCH   5   7
HETATM    7  C   UNL     1     -12.156  14.755  68.564  1.00  0.00    -0.210 C  
BRANCH   7   8
HETATM    8  C   UNL     1     -10.990  15.219  67.691  1.00  0.00    -0.311 C  
BRANCH   8   9
HETATM    9  C   UNL     1     -11.227  15.013  66.198  1.00  0.00    -0.307 C  
BRANCH   9  10
HETATM   10  C   UNL     1     -12.383  14.093  65.913  1.00  0.00    -0.486 C  
HETATM   11  C   UNL     1     -12.359  13.028  65.096  1.00  0.00    -0.536 C  
BRANCH  11  12
HETATM   12  C   UNL     1     -11.194  12.597  64.249  1.00  0.00    -0.410 C  
BRANCH  12  13
HETATM   13  C   UNL     1     -10.623  11.233  64.660  1.00  0.00    -0.392 C  
HETATM   14  C   UNL     1      -9.715  10.558  63.625  1.00  0.00    -0.318 C  
HETATM   15  O   UNL     1      -8.885  11.503  62.957  1.00  0.00    -0.506 OA 
HETATM   16  C   UNL     1      -8.830   9.638  64.457  1.00  0.00    -0.257 C  
HETATM   17  C   UNL     1      -8.519  10.462  65.703  1.00  0.00    -0.165 C  
HETATM   18  H   UNL     1      -8.322  11.084  62.315  1.00  0.00     0.000 HD 
HETATM   19  O   UNL     1      -7.382  11.295  65.458  1.00  0.00    -0.342 OA 
HETATM   20  C   UNL     1      -9.767  11.344  65.953  1.00  0.00    -0.257 C  
HETATM   21  H   UNL     1      -7.189  11.809  66.234  1.00  0.00     0.000 HD 
BRANCH  20  22
HETATM   22  C   UNL     1     -10.625  11.003  67.158  1.00  0.00    -0.294 C  
HETATM   23  C   UNL     1     -10.636  11.647  68.340  1.00  0.00    -0.235 C  
BRANCH  23  24
HETATM   24  C   UNL     1     -11.442  11.286  69.569  1.00  0.00    -0.307 C  
HETATM   25  H   UNL     1     -13.199  10.502  69.946  1.00  0.00     0.000 HD 
HETATM   26  O   UNL     1     -12.692  10.729  69.174  1.00  0.00    -0.225 OA 
BRANCH  24  27
HETATM   27  C   UNL     1     -10.666  10.280  70.443  1.00  0.00    -0.205 C  
BRANCH  27  28
HETATM   28  O   UNL     1     -11.562   9.406  71.150  1.00  0.00    -0.290 OA 
BRANCH  28  29
HETATM   29  C   UNL     1     -11.295   8.071  70.981  1.00  0.00    -0.273 A  
HETATM   30  C   UNL     1     -11.369   7.120  72.003  1.00  0.00    -0.293 A  
HETATM   31  C   UNL     1     -11.092   5.777  71.737  1.00  0.00    -0.301 A  
HETATM   32  C   UNL     1     -10.749   5.376  70.447  1.00  0.00    -0.276 A  
HETATM   33  C   UNL     1     -10.685   6.311  69.407  1.00  0.00    -0.364 A  
HETATM   34  C   UNL     1     -10.312   5.879  68.010  1.00  0.00    -0.208 C  
HETATM   35  C   UNL     1     -10.973   7.660  69.684  1.00  0.00    -0.145 A  
HETATM   36  F   UNL     1     -10.019   4.550  67.915  1.00  0.00    -0.207 F  
HETATM   37  F   UNL     1      -9.216   6.532  67.535  1.00  0.00    -0.117 F  
HETATM   38  F   UNL     1     -11.305   6.103  67.107  1.00  0.00    -0.365 F  
ENDBRANCH  28  29
ENDBRANCH  27  28
ENDBRANCH  24  27
ENDBRANCH  23  24
ENDBRANCH  20  22
ENDBRANCH  12  13
ENDBRANCH  11  12
ENDBRANCH   9  10
ENDBRANCH   8   9
ENDBRANCH   7   8
ENDBRANCH   5   7
ENDBRANCH   4   5
ENDBRANCH   2   4
TORSDOF 13
ENDMDL
MODEL       38
REMARK 921   NORMALIZED FREE ENERGY PREDICTED BY IDOCK:   -6.55 KCAL/MOL
REMARK 922        TOTAL FREE ENERGY PREDICTED BY IDOCK:  -13.74 KCAL/MOL
REMARK 923 INTER-LIGAND FREE ENERGY PREDICTED BY IDOCK:  -11.29 KCAL/MOL
REMARK 924 INTRA-LIGAND FREE ENERGY PREDICTED BY IDOCK:   -2.45 KCAL/MOL
REMARK 927      BINDING AFFINITY PREDICTED BY RF-SCORE:    0.00 PKD
ROOT
HETATM    1  C   UNL     1      -9.231   7.718  69.327  1.00  0.00    -0.145 C  
HETATM    2  C   UNL     1     -10.694   7.334  69.520  1.00  0.00    -0.232 C  
HETATM    3  C   UNL     1     -10.986   5.981  68.878  1.00  0.00    -0.395 C  
ENDROOT
BRANCH   2   4
HETATM    4  O   UNL     1     -10.972   7.215  70.927  1.00  0.00    -0.239 OA 
BRANCH   4   5
HETATM    5  C   UNL     1     -11.048   8.398  71.599  1.00  0.00    -0.278 C  
HETATM    6  O   UNL     1     -10.319   8.729  72.523  1.00  0.00    -0.259 OA 
BRANCH   5   7
HETATM    7  C   UNL     1     -12.200   9.219  71.081  1.00  0.00    -0.373 C  
BRANCH   7   8
HETATM    8  C   UNL     1     -11.720  10.630  70.741  1.00  0.00    -0.435 C  
BRANCH   8   9
HETATM    9  C   UNL     1     -11.697  10.922  69.243  1.00  0.00    -0.395 C  
BRANCH   9  10
HETATM   10  C   UNL     1     -10.924  12.167  68.904  1.00  0.00    -0.269 C  
HETATM   11  C   UNL     1      -9.740  12.212  68.273  1.00  0.00    -0.216 C  
BRANCH  11  12
HETATM   12  C   UNL     1      -8.923  11.022  67.854  1.00  0.00    -0.144 C  
BRANCH  12  13
HETATM   13  C   UNL     1      -8.626  10.995  66.349  1.00  0.00    -0.165 C  
HETATM   14  C   UNL     1      -7.294  10.348  65.950  1.00  0.00    -0.135 C  
HETATM   15  O   UNL     1      -7.001   9.209  66.752  1.00  0.00    -0.079 OA 
HETATM   16  C   UNL     1      -7.525   9.886  64.516  1.00  0.00    -0.140 C  
HETATM   17  C   UNL     1      -8.953   9.351  64.533  1.00  0.00    -0.181 C  
HETATM   18  H   UNL     1      -6.175   8.808  66.504  1.00  0.00     0.000 HD 
HETATM   19  O   UNL     1      -8.950   7.981  64.949  1.00  0.00    -0.381 OA 
HETATM   20  C   UNL     1      -9.718  10.208  65.571  1.00  0.00    -0.344 C  
HETATM   21  H   UNL     1      -9.840   7.648  64.960  1.00  0.00     0.000 HD 
BRANCH  20  22
HETATM   22  C   UNL     1     -10.756  11.179  65.036  1.00  0.00    -0.301 C  
HETATM   23  C   UNL     1     -10.581  12.070  64.043  1.00  0.00    -0.423 C  
BRANCH  23  24
HETATM   24  C   UNL     1     -11.587  13.082  63.536  1.00  0.00    -0.412 C  
HETATM   25  H   UNL     1     -13.455  13.066  62.943  1.00  0.00     0.000 HD 
HETATM   26  O   UNL     1     -12.824  12.431  63.261  1.00  0.00    -0.696 OA 
BRANCH  24  27
HETATM   27  C   UNL     1     -11.796  14.198  64.580  1.00  0.00    -0.436 C  
BRANCH  27  28
HETATM   28  O   UNL     1     -10.604  14.983  64.747  1.00  0.00    -0.402 OA 
BRANCH  28  29
HETATM   29  C   UNL     1     -10.619  15.801  65.848  1.00  0.00    -0.339 A  
HETATM   30  C   UNL     1     -10.847  15.358  67.154  1.00  0.00    -0.321 A  
HETATM   31  C   UNL     1     -10.831  16.263  68.218  1.00  0.00    -0.340 A  
HETATM   32  C   UNL     1     -10.579  17.613  67.984  1.00  0.00    -0.379 A  
HETATM   33  C   UNL     1     -10.334  18.074  66.685  1.00  0.00    -0.375 A  
HETATM   34  C   UNL     1     -10.063  19.536  66.429  1.00  0.00    -0.455 C  
HETATM   35  C   UNL     1     -10.344  17.154  65.621  1.00  0.00    -0.198 A  
HETATM   36  F   UNL     1     -10.132  20.305  67.555  1.00  0.00    -0.501 F  
HETATM   37  F   UNL     1     -10.948  20.087  65.553  1.00  0.00    -0.539 F  
HETATM   38  F   UNL     1      -8.827  19.759  65.906  1.00  0.00    -0.368 F  
ENDBRANCH  28  29
ENDBRANCH  27  28
ENDBRANCH  24  27
ENDBRANCH  23  24
ENDBRANCH  20  22
ENDBRANCH  12  13
ENDBRANCH  11  12
ENDBRANCH   9  10
ENDBRANCH   8   9
ENDBRANCH   7   8
ENDBRANCH   5   7
ENDBRANCH   4   5
ENDBRANCH   2   4
TORSDOF 13
ENDMDL
MODEL       39
REMARK 921   NORMALIZED FREE ENERGY PREDICTED BY IDOCK:   -6.54 KCAL/MOL
REMARK 922        TOTAL FREE ENERGY PREDICTED BY IDOCK:  -13.73 KCAL/MOL
REMARK 923 INTER-LIGAND FREE ENERGY PREDICTED BY IDOCK:  -11.33 KCAL/MOL
REMARK 924 INTRA-LIGAND FREE ENERGY PREDICTED BY IDOCK:   -2.41 KCAL/MOL
REMARK 927      BINDING AFFINITY PREDICTED BY RF-SCORE:    0.00 PKD
ROOT
HETATM    1  C   UNL     1      -8.704   5.816  65.444  1.00  0.00    -0.122 C  
HETATM    2  C   UNL     1      -8.485   7.103  66.230  1.00  0.00    -0.138 C  
HETATM    3  C   UNL     1      -7.336   7.911  65.634  1.00  0.00    -0.079 C  
ENDROOT
BRANCH   2   4
HETATM    4  O   UNL     1      -9.671   7.914  66.155  1.00  0.00    -0.139 OA 
BRANCH   4   5
HETATM    5  C   UNL     1     -10.398   7.977  67.306  1.00  0.00    -0.301 C  
HETATM    6  O   UNL     1     -10.902   7.016  67.871  1.00  0.00    -0.218 OA 
BRANCH   5   7
HETATM    7  C   UNL     1     -10.544   9.407  67.754  1.00  0.00    -0.317 C  
BRANCH   7   8
HETATM    8  C   UNL     1      -9.164  10.042  67.921  1.00  0.00    -0.145 C  
BRANCH   8   9
HETATM    9  C   UNL     1      -8.722  10.166  69.377  1.00  0.00    -0.186 C  
BRANCH   9  10
HETATM   10  C   UNL     1      -8.436   8.833  70.014  1.00  0.00    -0.133 C  
HETATM   11  C   UNL     1      -9.117   8.285  71.032  1.00  0.00    -0.189 C  
BRANCH  11  12
HETATM   12  C   UNL     1     -10.249   8.932  71.781  1.00  0.00    -0.414 C  
BRANCH  12  13
HETATM   13  C   UNL     1     -11.623   8.647  71.160  1.00  0.00    -0.330 C  
HETATM   14  C   UNL     1     -12.228   7.279  71.495  1.00  0.00    -0.352 C  
HETATM   15  O   UNL     1     -11.967   6.903  72.843  1.00  0.00    -0.485 OA 
HETATM   16  C   UNL     1     -13.729   7.491  71.332  1.00  0.00    -0.414 C  
HETATM   17  C   UNL     1     -13.964   8.881  71.916  1.00  0.00    -0.419 C  
HETATM   18  H   UNL     1     -12.343   6.055  73.051  1.00  0.00     0.000 HD 
HETATM   19  O   UNL     1     -14.156   8.783  73.331  1.00  0.00    -1.167 OA 
HETATM   20  C   UNL     1     -12.679   9.692  71.620  1.00  0.00    -0.499 C  
HETATM   21  H   UNL     1     -14.302   9.649  73.695  1.00  0.00     0.000 HD 
BRANCH  20  22
HETATM   22  C   UNL     1     -12.783  10.797  70.583  1.00  0.00    -0.417 C  
HETATM   23  C   UNL     1     -12.079  11.944  70.564  1.00  0.00    -0.422 C  
BRANCH  23  24
HETATM   24  C   UNL     1     -12.210  13.079  69.572  1.00  0.00    -0.140 C  
HETATM   25  H   UNL     1     -12.526  15.012  69.645  1.00  0.00     0.000 HD 
HETATM   26  O   UNL     1     -12.444  14.299  70.268  1.00  0.00    -0.342 OA 
BRANCH  24  27
HETATM   27  C   UNL     1     -10.932  13.193  68.716  1.00  0.00    -0.262 C  
BRANCH  27  28
HETATM   28  O   UNL     1     -10.382  14.519  68.779  1.00  0.00    -0.234 OA 
BRANCH  28  29
HETATM   29  C   UNL     1     -10.487  15.228  67.608  1.00  0.00    -0.263 A  
HETATM   30  C   UNL     1     -10.796  14.659  66.370  1.00  0.00    -0.315 A  
HETATM   31  C   UNL     1     -10.895  15.461  65.231  1.00  0.00    -0.423 A  
HETATM   32  C   UNL     1     -10.694  16.836  65.326  1.00  0.00    -0.183 A  
HETATM   33  C   UNL     1     -10.398  17.428  66.560  1.00  0.00    -0.312 A  
HETATM   34  C   UNL     1     -10.179  18.917  66.664  1.00  0.00    -0.405 C  
HETATM   35  C   UNL     1     -10.309  16.612  67.702  1.00  0.00    -0.305 A  
HETATM   36  F   UNL     1     -10.255  19.560  65.463  1.00  0.00    -0.402 F  
HETATM   37  F   UNL     1      -8.955  19.231  67.172  1.00  0.00    -0.290 F  
HETATM   38  F   UNL     1     -11.090  19.529  67.469  1.00  0.00    -0.563 F  
ENDBRANCH  28  29
ENDBRANCH  27  28
ENDBRANCH  24  27
ENDBRANCH  23  24
ENDBRANCH  20  22
ENDBRANCH  12  13
ENDBRANCH  11  12
ENDBRANCH   9  10
ENDBRANCH   8   9
ENDBRANCH   7   8
ENDBRANCH   5   7
ENDBRANCH   4   5
ENDBRANCH   2   4
TORSDOF 13
ENDMDL
MODEL       40
REMARK 921   NORMALIZED FREE ENERGY PREDICTED BY IDOCK:   -6.52 KCAL/MOL
REMARK 922        TOTAL FREE ENERGY PREDICTED BY IDOCK:  -13.70 KCAL/MOL
REMARK 923 INTER-LIGAND FREE ENERGY PREDICTED BY IDOCK:  -12.63 KCAL/MOL
REMARK 924 INTRA-LIGAND FREE ENERGY PREDICTED BY IDOCK:   -1.06 KCAL/MOL
REMARK 927      BINDING AFFINITY PREDICTED BY RF-SCORE:    0.00 PKD
ROOT
HETATM    1  C   UNL     1     -11.209   4.882  73.150  1.00  0.00    -0.403 C  
HETATM    2  C   UNL     1     -11.287   6.010  72.127  1.00  0.00    -0.299 C  
HETATM    3  C   UNL     1     -11.224   7.370  72.816  1.00  0.00    -0.380 C  
ENDROOT
BRANCH   2   4
HETATM    4  O   UNL     1     -10.159   5.922  71.237  1.00  0.00    -0.186 OA 
BRANCH   4   5
HETATM    5  C   UNL     1     -10.460   5.535  69.966  1.00  0.00    -0.303 C  
HETATM    6  O   UNL     1     -10.251   4.421  69.503  1.00  0.00    -0.115 OA 
BRANCH   5   7
HETATM    7  C   UNL     1     -11.033   6.690  69.189  1.00  0.00    -0.338 C  
BRANCH   7   8
HETATM    8  C   UNL     1     -10.900   6.425  67.689  1.00  0.00    -0.425 C  
BRANCH   8   9
HETATM    9  C   UNL     1     -10.338   7.609  66.908  1.00  0.00    -0.388 C  
BRANCH   9  10
HETATM   10  C   UNL     1     -10.375   8.894  67.690  1.00  0.00    -0.313 C  
HETATM   11  C   UNL     1     -10.245  10.129  67.181  1.00  0.00    -0.278 C  
BRANCH  11  12
HETATM   12  C   UNL     1      -9.960  10.462  65.743  1.00  0.00    -0.334 C  
BRANCH  12  13
HETATM   13  C   UNL     1     -10.389  11.883  65.357  1.00  0.00    -0.306 C  
HETATM   14  C   UNL     1     -10.463  12.165  63.851  1.00  0.00    -0.409 C  
HETATM   15  O   UNL     1     -10.976  11.048  63.131  1.00  0.00    -0.780 OA 
HETATM   16  C   UNL     1     -11.459  13.313  63.740  1.00  0.00    -0.363 C  
HETATM   17  C   UNL     1     -12.533  12.962  64.766  1.00  0.00    -0.455 C  
HETATM   18  H   UNL     1     -11.022  11.223  62.198  1.00  0.00     0.000 HD 
HETATM   19  O   UNL     1     -13.503  12.093  64.171  1.00  0.00    -0.671 OA 
HETATM   20  C   UNL     1     -11.802  12.218  65.911  1.00  0.00    -0.420 C  
HETATM   21  H   UNL     1     -14.171  11.874  64.810  1.00  0.00     0.000 HD 
BRANCH  20  22
HETATM   22  C   UNL     1     -11.666  12.950  67.234  1.00  0.00    -0.431 C  
HETATM   23  C   UNL     1     -11.885  14.261  67.450  1.00  0.00    -0.441 C  
BRANCH  23  24
HETATM   24  C   UNL     1     -11.699  15.015  68.749  1.00  0.00    -0.334 C  
HETATM   25  H   UNL     1     -10.593  14.842  70.357  1.00  0.00     0.000 HD 
HETATM   26  O   UNL     1     -10.709  14.368  69.542  1.00  0.00    -0.206 OA 
BRANCH  24  27
HETATM   27  C   UNL     1     -11.282  16.473  68.466  1.00  0.00    -0.296 C  
BRANCH  27  28
HETATM   28  O   UNL     1      -9.869  16.572  68.224  1.00  0.00    -0.231 OA 
BRANCH  28  29
HETATM   29  C   UNL     1      -9.448  17.823  67.850  1.00  0.00    -0.270 A  
HETATM   30  C   UNL     1     -10.110  18.630  66.921  1.00  0.00    -0.399 A  
HETATM   31  C   UNL     1      -9.615  19.899  66.611  1.00  0.00    -0.527 A  
HETATM   32  C   UNL     1      -8.461  20.370  67.234  1.00  0.00    -0.405 A  
HETATM   33  C   UNL     1      -7.792  19.583  68.179  1.00  0.00    -0.347 A  
HETATM   34  C   UNL     1      -6.542  20.092  68.854  1.00  0.00    -0.315 C  
HETATM   35  C   UNL     1      -8.304  18.310  68.490  1.00  0.00    -0.327 A  
HETATM   36  F   UNL     1      -6.151  21.322  68.412  1.00  0.00    -0.362 F  
HETATM   37  F   UNL     1      -5.472  19.273  68.658  1.00  0.00    -0.188 F  
HETATM   38  F   UNL     1      -6.683  20.212  70.202  1.00  0.00    -0.388 F  
ENDBRANCH  28  29
ENDBRANCH  27  28
ENDBRANCH  24  27
ENDBRANCH  23  24
ENDBRANCH  20  22
ENDBRANCH  12  13
ENDBRANCH  11  12
ENDBRANCH   9  10
ENDBRANCH   8   9
ENDBRANCH   7   8
ENDBRANCH   5   7
ENDBRANCH   4   5
ENDBRANCH   2   4
TORSDOF 13
ENDMDL
MODEL       41
REMARK 921   NORMALIZED FREE ENERGY PREDICTED BY IDOCK:   -6.51 KCAL/MOL
REMARK 922        TOTAL FREE ENERGY PREDICTED BY IDOCK:  -13.68 KCAL/MOL
REMARK 923 INTER-LIGAND FREE ENERGY PREDICTED BY IDOCK:  -10.91 KCAL/MOL
REMARK 924 INTRA-LIGAND FREE ENERGY PREDICTED BY IDOCK:   -2.77 KCAL/MOL
REMARK 927      BINDING AFFINITY PREDICTED BY RF-SCORE:    0.00 PKD
ROOT
HETATM    1  C   UNL     1     -13.044   9.626  71.850  1.00  0.00    -0.530 C  
HETATM    2  C   UNL     1     -13.007  10.946  71.088  1.00  0.00    -0.352 C  
HETATM    3  C   UNL     1     -13.239  12.121  72.033  1.00  0.00    -0.496 C  
ENDROOT
BRANCH   2   4
HETATM    4  O   UNL     1     -11.707  11.116  70.495  1.00  0.00    -0.333 OA 
BRANCH   4   5
HETATM    5  C   UNL     1     -11.716  11.607  69.224  1.00  0.00    -0.331 C  
HETATM    6  O   UNL     1     -12.118  11.000  68.240  1.00  0.00    -0.604 OA 
BRANCH   5   7
HETATM    7  C   UNL     1     -11.105  12.982  69.190  1.00  0.00    -0.245 C  
BRANCH   7   8
HETATM    8  C   UNL     1     -12.110  13.983  68.620  1.00  0.00    -0.332 C  
BRANCH   8   9
HETATM    9  C   UNL     1     -11.745  14.487  67.226  1.00  0.00    -0.429 C  
BRANCH   9  10
HETATM   10  C   UNL     1     -12.621  13.908  66.149  1.00  0.00    -0.426 C  
HETATM   11  C   UNL     1     -12.202  13.199  65.089  1.00  0.00    -0.497 C  
BRANCH  11  12
HETATM   12  C   UNL     1     -10.769  12.914  64.734  1.00  0.00    -0.354 C  
BRANCH  12  13
HETATM   13  C   UNL     1     -10.197  11.695  65.471  1.00  0.00    -0.302 C  
HETATM   14  C   UNL     1     -10.382  10.349  64.762  1.00  0.00    -0.151 C  
HETATM   15  O   UNL     1     -10.217  10.468  63.353  1.00  0.00    -0.493 OA 
HETATM   16  C   UNL     1      -9.252   9.485  65.311  1.00  0.00    -0.307 C  
HETATM   17  C   UNL     1      -8.068  10.444  65.386  1.00  0.00    -0.152 C  
HETATM   18  H   UNL     1     -10.331   9.633  62.913  1.00  0.00     0.000 HD 
HETATM   19  O   UNL     1      -7.395  10.479  64.124  1.00  0.00    -0.328 OA 
HETATM   20  C   UNL     1      -8.665  11.838  65.697  1.00  0.00     0.202 C  
HETATM   21  H   UNL     1      -6.657  11.077  64.171  1.00  0.00     0.000 HD 
BRANCH  20  22
HETATM   22  C   UNL     1      -8.409  12.408  67.080  1.00  0.00    -0.181 C  
HETATM   23  C   UNL     1      -7.989  13.654  67.367  1.00  0.00    -0.177 C  
BRANCH  23  24
HETATM   24  C   UNL     1      -7.675  14.220  68.735  1.00  0.00    -0.134 C  
HETATM   25  H   UNL     1      -6.506  13.757  70.239  1.00  0.00     0.000 HD 
HETATM   26  O   UNL     1      -6.703  13.402  69.380  1.00  0.00    -0.101 OA 
BRANCH  24  27
HETATM   27  C   UNL     1      -7.151  15.665  68.610  1.00  0.00    -0.127 C  
BRANCH  27  28
HETATM   28  O   UNL     1      -6.771  15.965  67.257  1.00  0.00    -0.181 OA 
BRANCH  28  29
HETATM   29  C   UNL     1      -7.088  17.238  66.852  1.00  0.00    -0.199 A  
HETATM   30  C   UNL     1      -6.361  17.965  65.907  1.00  0.00    -0.287 A  
HETATM   31  C   UNL     1      -6.765  19.253  65.545  1.00  0.00    -0.305 A  
HETATM   32  C   UNL     1      -7.902  19.815  66.120  1.00  0.00    -0.344 A  
HETATM   33  C   UNL     1      -8.653  19.097  67.059  1.00  0.00    -0.309 A  
HETATM   34  C   UNL     1      -9.884  19.705  67.684  1.00  0.00    -0.376 C  
HETATM   35  C   UNL     1      -8.242  17.798  67.410  1.00  0.00    -0.221 A  
HETATM   36  F   UNL     1     -10.123  20.984  67.273  1.00  0.00    -0.560 F  
HETATM   37  F   UNL     1      -9.807  19.763  69.042  1.00  0.00    -0.446 F  
HETATM   38  F   UNL     1     -11.018  19.009  67.400  1.00  0.00    -0.505 F  
ENDBRANCH  28  29
ENDBRANCH  27  28
ENDBRANCH  24  27
ENDBRANCH  23  24
ENDBRANCH  20  22
ENDBRANCH  12  13
ENDBRANCH  11  12
ENDBRANCH   9  10
ENDBRANCH   8   9
ENDBRANCH   7   8
ENDBRANCH   5   7
ENDBRANCH   4   5
ENDBRANCH   2   4
TORSDOF 13
ENDMDL
MODEL       42
REMARK 921   NORMALIZED FREE ENERGY PREDICTED BY IDOCK:   -6.49 KCAL/MOL
REMARK 922        TOTAL FREE ENERGY PREDICTED BY IDOCK:  -13.64 KCAL/MOL
REMARK 923 INTER-LIGAND FREE ENERGY PREDICTED BY IDOCK:  -11.89 KCAL/MOL
REMARK 924 INTRA-LIGAND FREE ENERGY PREDICTED BY IDOCK:   -1.75 KCAL/MOL
REMARK 927      BINDING AFFINITY PREDICTED BY RF-SCORE:    0.00 PKD
ROOT
HETATM    1  C   UNL     1     -13.150  10.974  71.690  1.00  0.00    -0.543 C  
HETATM    2  C   UNL     1     -12.267  10.028  70.884  1.00  0.00    -0.346 C  
HETATM    3  C   UNL     1     -11.698  10.734  69.658  1.00  0.00    -0.395 C  
ENDROOT
BRANCH   2   4
HETATM    4  O   UNL     1     -11.157   9.607  71.697  1.00  0.00    -0.348 OA 
BRANCH   4   5
HETATM    5  C   UNL     1     -11.152   8.282  72.019  1.00  0.00    -0.311 C  
HETATM    6  O   UNL     1     -10.966   7.834  73.143  1.00  0.00    -0.396 OA 
BRANCH   5   7
HETATM    7  C   UNL     1     -11.348   7.443  70.785  1.00  0.00    -0.303 C  
BRANCH   7   8
HETATM    8  C   UNL     1     -10.028   7.324  70.023  1.00  0.00    -0.184 C  
BRANCH   8   9
HETATM    9  C   UNL     1     -10.136   7.713  68.551  1.00  0.00    -0.205 C  
BRANCH   9  10
HETATM   10  C   UNL     1      -8.904   8.409  68.041  1.00  0.00    -0.142 C  
HETATM   11  C   UNL     1      -8.881   9.433  67.173  1.00  0.00    -0.138 C  
BRANCH  11  12
HETATM   12  C   UNL     1     -10.078  10.030  66.487  1.00  0.00    -0.296 C  
BRANCH  12  13
HETATM   13  C   UNL     1      -9.711  11.140  65.492  1.00  0.00    -0.271 C  
HETATM   14  C   UNL     1      -9.127  10.663  64.157  1.00  0.00    -0.222 C  
HETATM   15  O   UNL     1      -9.768   9.479  63.695  1.00  0.00    -0.413 OA 
HETATM   16  C   UNL     1      -9.446  11.797  63.190  1.00  0.00    -0.185 C  
HETATM   17  C   UNL     1     -10.853  12.230  63.591  1.00  0.00    -0.469 C  
HETATM   18  H   UNL     1      -9.406   9.184  62.867  1.00  0.00     0.000 HD 
HETATM   19  O   UNL     1     -11.819  11.415  62.917  1.00  0.00    -0.874 OA 
HETATM   20  C   UNL     1     -10.952  11.998  65.118  1.00  0.00    -0.359 C  
HETATM   21  H   UNL     1     -12.695  11.684  63.167  1.00  0.00     0.000 HD 
BRANCH  20  22
HETATM   22  C   UNL     1     -11.000  13.231  66.003  1.00  0.00    -0.292 C  
HETATM   23  C   UNL     1     -11.803  13.423  67.066  1.00  0.00    -0.443 C  
BRANCH  23  24
HETATM   24  C   UNL     1     -11.902  14.667  67.923  1.00  0.00    -0.320 C  
HETATM   25  H   UNL     1     -11.538  15.150  69.787  1.00  0.00     0.000 HD 
HETATM   26  O   UNL     1     -11.476  14.370  69.249  1.00  0.00    -0.253 OA 
BRANCH  24  27
HETATM   27  C   UNL     1     -11.037  15.797  67.329  1.00  0.00    -0.211 C  
BRANCH  27  28
HETATM   28  O   UNL     1     -10.406  16.567  68.365  1.00  0.00    -0.264 OA 
BRANCH  28  29
HETATM   29  C   UNL     1     -10.014  17.823  67.973  1.00  0.00    -0.333 A  
HETATM   30  C   UNL     1     -10.765  18.656  67.140  1.00  0.00    -0.433 A  
HETATM   31  C   UNL     1     -10.292  19.927  66.803  1.00  0.00    -0.599 A  
HETATM   32  C   UNL     1      -9.072  20.373  67.305  1.00  0.00    -0.500 A  
HETATM   33  C   UNL     1      -8.312  19.560  68.154  1.00  0.00    -0.359 A  
HETATM   34  C   UNL     1      -6.989  20.042  68.697  1.00  0.00    -0.284 C  
HETATM   35  C   UNL     1      -8.800  18.285  68.493  1.00  0.00    -0.322 A  
HETATM   36  F   UNL     1      -6.635  21.278  68.240  1.00  0.00    -0.317 F  
HETATM   37  F   UNL     1      -5.956  19.218  68.366  1.00  0.00    -0.211 F  
HETATM   38  F   UNL     1      -6.979  20.134  70.054  1.00  0.00    -0.354 F  
ENDBRANCH  28  29
ENDBRANCH  27  28
ENDBRANCH  24  27
ENDBRANCH  23  24
ENDBRANCH  20  22
ENDBRANCH  12  13
ENDBRANCH  11  12
ENDBRANCH   9  10
ENDBRANCH   8   9
ENDBRANCH   7   8
ENDBRANCH   5   7
ENDBRANCH   4   5
ENDBRANCH   2   4
TORSDOF 13
ENDMDL
MODEL       43
REMARK 921   NORMALIZED FREE ENERGY PREDICTED BY IDOCK:   -6.47 KCAL/MOL
REMARK 922        TOTAL FREE ENERGY PREDICTED BY IDOCK:  -13.61 KCAL/MOL
REMARK 923 INTER-LIGAND FREE ENERGY PREDICTED BY IDOCK:  -11.12 KCAL/MOL
REMARK 924 INTRA-LIGAND FREE ENERGY PREDICTED BY IDOCK:   -2.49 KCAL/MOL
REMARK 927      BINDING AFFINITY PREDICTED BY RF-SCORE:    0.00 PKD
ROOT
HETATM    1  C   UNL     1     -10.244  19.855  68.416  1.00  0.00    -0.557 C  
HETATM    2  C   UNL     1     -10.655  18.995  67.226  1.00  0.00    -0.470 C  
HETATM    3  C   UNL     1     -10.524  19.777  65.923  1.00  0.00    -0.587 C  
ENDROOT
BRANCH   2   4
HETATM    4  O   UNL     1      -9.780  17.856  67.138  1.00  0.00    -0.273 OA 
BRANCH   4   5
HETATM    5  C   UNL     1     -10.049  16.856  68.026  1.00  0.00    -0.293 C  
HETATM    6  O   UNL     1      -9.332  16.540  68.965  1.00  0.00    -0.253 OA 
BRANCH   5   7
HETATM    7  C   UNL     1     -11.327  16.154  67.650  1.00  0.00    -0.064 C  
BRANCH   7   8
HETATM    8  C   UNL     1     -11.832  15.328  68.833  1.00  0.00    -0.344 C  
BRANCH   8   9
HETATM    9  C   UNL     1     -11.867  13.827  68.558  1.00  0.00    -0.406 C  
BRANCH   9  10
HETATM   10  C   UNL     1     -10.537  13.286  68.110  1.00  0.00    -0.259 C  
HETATM   11  C   UNL     1     -10.271  12.741  66.912  1.00  0.00    -0.241 C  
BRANCH  11  12
HETATM   12  C   UNL     1     -11.272  12.499  65.816  1.00  0.00    -0.356 C  
BRANCH  12  13
HETATM   13  C   UNL     1     -10.938  11.273  64.956  1.00  0.00    -0.226 C  
HETATM   14  C   UNL     1     -10.486  11.576  63.522  1.00  0.00    -0.428 C  
HETATM   15  O   UNL     1      -9.657  12.732  63.464  1.00  0.00    -0.588 OA 
HETATM   16  C   UNL     1      -9.652  10.361  63.134  1.00  0.00    -0.346 C  
HETATM   17  C   UNL     1      -8.868  10.039  64.403  1.00  0.00    -0.213 C  
HETATM   18  H   UNL     1      -9.378  12.920  62.575  1.00  0.00     0.000 HD 
HETATM   19  O   UNL     1      -7.670  10.821  64.441  1.00  0.00    -0.359 OA 
HETATM   20  C   UNL     1      -9.786  10.438  65.584  1.00  0.00    -0.321 C  
HETATM   21  H   UNL     1      -7.182  10.621  65.231  1.00  0.00     0.000 HD 
BRANCH  20  22
HETATM   22  C   UNL     1     -10.374   9.310  66.414  1.00  0.00    -0.238 C  
HETATM   23  C   UNL     1      -9.920   8.045  66.481  1.00  0.00    -0.283 C  
BRANCH  23  24
HETATM   24  C   UNL     1     -10.527   6.897  67.258  1.00  0.00    -0.287 C  
HETATM   25  H   UNL     1     -11.224   5.110  66.856  1.00  0.00     0.000 HD 
HETATM   26  O   UNL     1     -10.843   5.831  66.368  1.00  0.00    -0.233 OA 
BRANCH  24  27
HETATM   27  C   UNL     1      -9.547   6.408  68.344  1.00  0.00    -0.125 C  
BRANCH  27  28
HETATM   28  O   UNL     1      -9.147   7.485  69.207  1.00  0.00    -0.139 OA 
BRANCH  28  29
HETATM   29  C   UNL     1     -10.042   7.766  70.209  1.00  0.00    -0.195 A  
HETATM   30  C   UNL     1     -10.241   6.961  71.333  1.00  0.00    -0.212 A  
HETATM   31  C   UNL     1     -11.167   7.332  72.312  1.00  0.00    -0.305 A  
HETATM   32  C   UNL     1     -11.891   8.514  72.174  1.00  0.00    -0.448 A  
HETATM   33  C   UNL     1     -11.696   9.342  71.063  1.00  0.00    -0.395 A  
HETATM   34  C   UNL     1     -12.480  10.622  70.912  1.00  0.00    -0.397 C  
HETATM   35  C   UNL     1     -10.755   8.963  70.087  1.00  0.00    -0.245 A  
HETATM   36  F   UNL     1     -13.382  10.825  71.916  1.00  0.00    -0.506 F  
HETATM   37  F   UNL     1     -13.201  10.661  69.758  1.00  0.00    -0.189 F  
HETATM   38  F   UNL     1     -11.687  11.728  70.899  1.00  0.00    -0.340 F  
ENDBRANCH  28  29
ENDBRANCH  27  28
ENDBRANCH  24  27
ENDBRANCH  23  24
ENDBRANCH  20  22
ENDBRANCH  12  13
ENDBRANCH  11  12
ENDBRANCH   9  10
ENDBRANCH   8   9
ENDBRANCH   7   8
ENDBRANCH   5   7
ENDBRANCH   4   5
ENDBRANCH   2   4
TORSDOF 13
ENDMDL
MODEL       44
REMARK 921   NORMALIZED FREE ENERGY PREDICTED BY IDOCK:   -6.46 KCAL/MOL
REMARK 922        TOTAL FREE ENERGY PREDICTED BY IDOCK:  -13.59 KCAL/MOL
REMARK 923 INTER-LIGAND FREE ENERGY PREDICTED BY IDOCK:  -10.92 KCAL/MOL
REMARK 924 INTRA-LIGAND FREE ENERGY PREDICTED BY IDOCK:   -2.67 KCAL/MOL
REMARK 927      BINDING AFFINITY PREDICTED BY RF-SCORE:    0.00 PKD
ROOT
HETATM    1  C   UNL     1      -9.981  11.713  63.212  1.00  0.00    -0.442 C  
HETATM    2  C   UNL     1     -11.218  12.591  63.367  1.00  0.00    -0.397 C  
HETATM    3  C   UNL     1     -12.479  11.737  63.456  1.00  0.00    -0.504 C  
ENDROOT
BRANCH   2   4
HETATM    4  O   UNL     1     -11.117  13.344  64.589  1.00  0.00    -0.332 OA 
BRANCH   4   5
HETATM    5  C   UNL     1     -12.120  14.243  64.794  1.00  0.00    -0.446 C  
HETATM    6  O   UNL     1     -12.564  15.005  63.946  1.00  0.00    -0.813 OA 
BRANCH   5   7
HETATM    7  C   UNL     1     -12.566  14.209  66.232  1.00  0.00    -0.297 C  
BRANCH   7   8
HETATM    8  C   UNL     1     -12.094  12.914  66.891  1.00  0.00    -0.313 C  
BRANCH   8   9
HETATM    9  C   UNL     1     -11.011  13.126  67.945  1.00  0.00    -0.271 C  
BRANCH   9  10
HETATM   10  C   UNL     1     -11.572  13.488  69.293  1.00  0.00    -0.369 C  
HETATM   11  C   UNL     1     -12.158  12.642  70.156  1.00  0.00    -0.368 C  
BRANCH  11  12
HETATM   12  C   UNL     1     -12.434  11.185  69.906  1.00  0.00    -0.257 C  
BRANCH  12  13
HETATM   13  C   UNL     1     -11.685  10.257  70.871  1.00  0.00    -0.472 C  
HETATM   14  C   UNL     1     -12.569   9.360  71.745  1.00  0.00    -0.387 C  
HETATM   15  O   UNL     1     -13.700   8.875  71.028  1.00  0.00    -0.574 OA 
HETATM   16  C   UNL     1     -11.670   8.178  72.088  1.00  0.00    -0.418 C  
HETATM   17  C   UNL     1     -10.913   7.910  70.791  1.00  0.00    -0.252 C  
HETATM   18  H   UNL     1     -14.248   8.319  71.570  1.00  0.00     0.000 HD 
HETATM   19  O   UNL     1     -11.686   7.047  69.951  1.00  0.00    -0.553 OA 
HETATM   20  C   UNL     1     -10.741   9.287  70.105  1.00  0.00    -0.269 C  
HETATM   21  H   UNL     1     -11.215   6.880  69.143  1.00  0.00     0.000 HD 
BRANCH  20  22
HETATM   22  C   UNL     1      -9.340   9.870  70.066  1.00  0.00    -0.232 C  
HETATM   23  C   UNL     1      -8.818  10.634  69.089  1.00  0.00    -0.133 C  
BRANCH  23  24
HETATM   24  C   UNL     1      -7.407  11.176  69.009  1.00  0.00    -0.120 C  
HETATM   25  H   UNL     1      -5.671  10.550  68.347  1.00  0.00     0.000 HD 
HETATM   26  O   UNL     1      -6.557  10.210  68.397  1.00  0.00    -0.053 OA 
BRANCH  24  27
HETATM   27  C   UNL     1      -7.382  12.490  68.202  1.00  0.00    -0.110 C  
BRANCH  27  28
HETATM   28  O   UNL     1      -7.149  13.621  69.057  1.00  0.00    -0.110 OA 
BRANCH  28  29
HETATM   29  C   UNL     1      -7.370  14.835  68.457  1.00  0.00    -0.118 A  
HETATM   30  C   UNL     1      -6.469  15.460  67.592  1.00  0.00    -0.190 A  
HETATM   31  C   UNL     1      -6.784  16.693  67.015  1.00  0.00    -0.242 A  
HETATM   32  C   UNL     1      -8.004  17.303  67.296  1.00  0.00    -0.207 A  
HETATM   33  C   UNL     1      -8.928  16.686  68.148  1.00  0.00    -0.210 A  
HETATM   34  C   UNL     1     -10.250  17.347  68.454  1.00  0.00    -0.362 C  
HETATM   35  C   UNL     1      -8.604  15.441  68.717  1.00  0.00    -0.190 A  
HETATM   36  F   UNL     1     -10.394  18.568  67.863  1.00  0.00    -0.338 F  
HETATM   37  F   UNL     1     -10.433  17.559  69.786  1.00  0.00    -0.236 F  
HETATM   38  F   UNL     1     -11.315  16.609  68.039  1.00  0.00    -0.334 F  
ENDBRANCH  28  29
ENDBRANCH  27  28
ENDBRANCH  24  27
ENDBRANCH  23  24
ENDBRANCH  20  22
ENDBRANCH  12  13
ENDBRANCH  11  12
ENDBRANCH   9  10
ENDBRANCH   8   9
ENDBRANCH   7   8
ENDBRANCH   5   7
ENDBRANCH   4   5
ENDBRANCH   2   4
TORSDOF 13
ENDMDL
MODEL       45
REMARK 921   NORMALIZED FREE ENERGY PREDICTED BY IDOCK:   -6.45 KCAL/MOL
REMARK 922        TOTAL FREE ENERGY PREDICTED BY IDOCK:  -13.58 KCAL/MOL
REMARK 923 INTER-LIGAND FREE ENERGY PREDICTED BY IDOCK:  -10.03 KCAL/MOL
REMARK 924 INTRA-LIGAND FREE ENERGY PREDICTED BY IDOCK:   -3.54 KCAL/MOL
REMARK 927      BINDING AFFINITY PREDICTED BY RF-SCORE:    0.00 PKD
ROOT
HETATM    1  C   UNL     1     -12.122  12.107  63.513  1.00  0.00    -0.649 C  
HETATM    2  C   UNL     1     -10.690  12.193  64.028  1.00  0.00    -0.384 C  
HETATM    3  C   UNL     1      -9.749  11.378  63.147  1.00  0.00    -0.413 C  
ENDROOT
BRANCH   2   4
HETATM    4  O   UNL     1     -10.250  13.563  63.982  1.00  0.00    -0.274 OA 
BRANCH   4   5
HETATM    5  C   UNL     1     -10.794  14.373  64.934  1.00  0.00    -0.416 C  
HETATM    6  O   UNL     1     -11.287  15.473  64.721  1.00  0.00    -0.410 OA 
BRANCH   5   7
HETATM    7  C   UNL     1     -10.649  13.748  66.296  1.00  0.00    -0.289 C  
BRANCH   7   8
HETATM    8  C   UNL     1     -11.925  13.972  67.108  1.00  0.00    -0.465 C  
BRANCH   8   9
HETATM    9  C   UNL     1     -11.964  13.183  68.413  1.00  0.00    -0.324 C  
BRANCH   9  10
HETATM   10  C   UNL     1     -11.579  11.740  68.233  1.00  0.00    -0.373 C  
HETATM   11  C   UNL     1     -11.719  10.767  69.148  1.00  0.00    -0.368 C  
BRANCH  11  12
HETATM   12  C   UNL     1     -12.216  10.950  70.555  1.00  0.00    -0.459 C  
BRANCH  12  13
HETATM   13  C   UNL     1     -11.896   9.758  71.467  1.00  0.00    -0.476 C  
HETATM   14  C   UNL     1     -13.104   8.929  71.919  1.00  0.00    -0.386 C  
HETATM   15  O   UNL     1     -14.066   8.790  70.879  1.00  0.00    -0.599 OA 
HETATM   16  C   UNL     1     -12.516   7.556  72.223  1.00  0.00    -0.149 C  
HETATM   17  C   UNL     1     -11.493   7.345  71.110  1.00  0.00    -0.279 C  
HETATM   18  H   UNL     1     -14.815   8.276  71.160  1.00  0.00     0.000 HD 
HETATM   19  O   UNL     1     -12.140   6.788  69.961  1.00  0.00    -0.650 OA 
HETATM   20  C   UNL     1     -10.941   8.750  70.765  1.00  0.00    -0.294 C  
HETATM   21  H   UNL     1     -11.504   6.657  69.268  1.00  0.00     0.000 HD 
BRANCH  20  22
HETATM   22  C   UNL     1      -9.508   9.048  71.167  1.00  0.00    -0.348 C  
HETATM   23  C   UNL     1      -8.525   8.146  71.350  1.00  0.00    -0.154 C  
BRANCH  23  24
HETATM   24  C   UNL     1      -7.107   8.421  71.804  1.00  0.00    -0.091 C  
HETATM   25  H   UNL     1      -5.411   7.441  71.864  1.00  0.00     0.000 HD 
HETATM   26  O   UNL     1      -6.301   7.269  71.579  1.00  0.00    -0.037 OA 
BRANCH  24  27
HETATM   27  C   UNL     1      -6.526   9.632  71.046  1.00  0.00    -0.050 C  
BRANCH  27  28
HETATM   28  O   UNL     1      -6.146   9.273  69.708  1.00  0.00    -0.037 OA 
BRANCH  28  29
HETATM   29  C   UNL     1      -6.906   9.863  68.729  1.00  0.00    -0.054 A  
HETATM   30  C   UNL     1      -6.729  11.175  68.281  1.00  0.00    -0.059 A  
HETATM   31  C   UNL     1      -7.543  11.689  67.269  1.00  0.00    -0.147 A  
HETATM   32  C   UNL     1      -8.530  10.893  66.694  1.00  0.00    -0.151 A  
HETATM   33  C   UNL     1      -8.714   9.571  67.118  1.00  0.00    -0.137 A  
HETATM   34  C   UNL     1      -9.784   8.708  66.498  1.00  0.00    -0.255 C  
HETATM   35  C   UNL     1      -7.884   9.060  68.133  1.00  0.00    -0.100 A  
HETATM   36  F   UNL     1     -10.532   9.362  65.563  1.00  0.00    -0.230 F  
HETATM   37  F   UNL     1     -10.673   8.236  67.416  1.00  0.00    -0.331 F  
HETATM   38  F   UNL     1      -9.278   7.614  65.867  1.00  0.00    -0.196 F  
ENDBRANCH  28  29
ENDBRANCH  27  28
ENDBRANCH  24  27
ENDBRANCH  23  24
ENDBRANCH  20  22
ENDBRANCH  12  13
ENDBRANCH  11  12
ENDBRANCH   9  10
ENDBRANCH   8   9
ENDBRANCH   7   8
ENDBRANCH   5   7
ENDBRANCH   4   5
ENDBRANCH   2   4
TORSDOF 13
ENDMDL
MODEL       46
REMARK 921   NORMALIZED FREE ENERGY PREDICTED BY IDOCK:   -6.45 KCAL/MOL
REMARK 922        TOTAL FREE ENERGY PREDICTED BY IDOCK:  -13.58 KCAL/MOL
REMARK 923 INTER-LIGAND FREE ENERGY PREDICTED BY IDOCK:  -11.00 KCAL/MOL
REMARK 924 INTRA-LIGAND FREE ENERGY PREDICTED BY IDOCK:   -2.57 KCAL/MOL
REMARK 927      BINDING AFFINITY PREDICTED BY RF-SCORE:    0.00 PKD
ROOT
HETATM    1  C   UNL     1     -11.410  14.965  67.704  1.00  0.00    -0.348 C  
HETATM    2  C   UNL     1     -11.389  15.189  66.196  1.00  0.00    -0.220 C  
HETATM    3  C   UNL     1     -10.114  15.914  65.775  1.00  0.00    -0.389 C  
ENDROOT
BRANCH   2   4
HETATM    4  O   UNL     1     -11.405  13.916  65.526  1.00  0.00    -0.302 OA 
BRANCH   4   5
HETATM    5  C   UNL     1     -11.963  13.929  64.282  1.00  0.00    -0.444 C  
HETATM    6  O   UNL     1     -12.708  14.801  63.856  1.00  0.00    -0.794 OA 
BRANCH   5   7
HETATM    7  C   UNL     1     -11.582  12.684  63.526  1.00  0.00    -0.584 C  
BRANCH   7   8
HETATM    8  C   UNL     1     -10.186  12.227  63.949  1.00  0.00    -0.421 C  
BRANCH   8   9
HETATM    9  C   UNL     1      -9.459  11.416  62.881  1.00  0.00    -0.372 C  
BRANCH   9  10
HETATM   10  C   UNL     1      -9.257   9.978  63.277  1.00  0.00    -0.317 C  
HETATM   11  C   UNL     1      -8.705   9.547  64.422  1.00  0.00    -0.235 C  
BRANCH  11  12
HETATM   12  C   UNL     1      -8.114  10.419  65.495  1.00  0.00    -0.156 C  
BRANCH  12  13
HETATM   13  C   UNL     1      -8.793  10.240  66.859  1.00  0.00    -0.141 C  
HETATM   14  C   UNL     1      -8.845  11.493  67.741  1.00  0.00    -0.153 C  
HETATM   15  O   UNL     1      -9.091  12.667  66.974  1.00  0.00    -0.201 OA 
HETATM   16  C   UNL     1     -10.040  11.251  68.655  1.00  0.00    -0.216 C  
HETATM   17  C   UNL     1     -11.074  10.607  67.736  1.00  0.00    -0.321 C  
HETATM   18  H   UNL     1      -9.124  13.444  67.520  1.00  0.00     0.000 HD 
HETATM   19  O   UNL     1     -11.824  11.625  67.065  1.00  0.00    -0.591 OA 
HETATM   20  C   UNL     1     -10.271   9.784  66.700  1.00  0.00    -0.296 C  
HETATM   21  H   UNL     1     -12.468  11.224  66.493  1.00  0.00     0.000 HD 
BRANCH  20  22
HETATM   22  C   UNL     1     -10.349   8.271  66.808  1.00  0.00    -0.361 C  
HETATM   23  C   UNL     1      -9.445   7.464  67.392  1.00  0.00    -0.170 C  
BRANCH  23  24
HETATM   24  C   UNL     1      -9.479   5.952  67.459  1.00  0.00    -0.110 C  
HETATM   25  H   UNL     1      -8.395   4.467  66.781  1.00  0.00     0.000 HD 
HETATM   26  O   UNL     1      -8.373   5.416  66.740  1.00  0.00    -0.108 OA 
BRANCH  24  27
HETATM   27  C   UNL     1      -9.436   5.480  68.926  1.00  0.00    -0.129 C  
BRANCH  27  28
HETATM   28  O   UNL     1     -10.758   5.403  69.486  1.00  0.00    -0.295 OA 
BRANCH  28  29
HETATM   29  C   UNL     1     -10.947   6.193  70.592  1.00  0.00    -0.311 A  
HETATM   30  C   UNL     1     -10.257   6.037  71.797  1.00  0.00    -0.242 A  
HETATM   31  C   UNL     1     -10.506   6.898  72.869  1.00  0.00    -0.271 A  
HETATM   32  C   UNL     1     -11.440   7.924  72.738  1.00  0.00    -0.428 A  
HETATM   33  C   UNL     1     -12.131   8.107  71.534  1.00  0.00    -0.332 A  
HETATM   34  C   UNL     1     -13.143   9.216  71.391  1.00  0.00    -0.304 C  
HETATM   35  C   UNL     1     -11.866   7.239  70.458  1.00  0.00    -0.237 A  
HETATM   36  F   UNL     1     -13.317   9.940  72.534  1.00  0.00    -0.472 F  
HETATM   37  F   UNL     1     -14.380   8.756  71.055  1.00  0.00    -0.393 F  
HETATM   38  F   UNL     1     -12.803  10.119  70.431  1.00  0.00    -0.337 F  
ENDBRANCH  28  29
ENDBRANCH  27  28
ENDBRANCH  24  27
ENDBRANCH  23  24
ENDBRANCH  20  22
ENDBRANCH  12  13
ENDBRANCH  11  12
ENDBRANCH   9  10
ENDBRANCH   8   9
ENDBRANCH   7   8
ENDBRANCH   5   7
ENDBRANCH   4   5
ENDBRANCH   2   4
TORSDOF 13
ENDMDL
MODEL       47
REMARK 921   NORMALIZED FREE ENERGY PREDICTED BY IDOCK:   -6.44 KCAL/MOL
REMARK 922        TOTAL FREE ENERGY PREDICTED BY IDOCK:  -13.55 KCAL/MOL
REMARK 923 INTER-LIGAND FREE ENERGY PREDICTED BY IDOCK:  -11.71 KCAL/MOL
REMARK 924 INTRA-LIGAND FREE ENERGY PREDICTED BY IDOCK:   -1.85 KCAL/MOL
REMARK 927      BINDING AFFINITY PREDICTED BY RF-SCORE:    0.00 PKD
ROOT
HETATM    1  C   UNL     1     -13.812   9.180  72.552  1.00  0.00    -0.485 C  
HETATM    2  C   UNL     1     -12.768   9.016  71.453  1.00  0.00    -0.304 C  
HETATM    3  C   UNL     1     -12.273  10.376  70.971  1.00  0.00    -0.498 C  
ENDROOT
BRANCH   2   4
HETATM    4  O   UNL     1     -11.634   8.302  71.977  1.00  0.00    -0.294 OA 
BRANCH   4   5
HETATM    5  C   UNL     1     -11.656   6.956  71.766  1.00  0.00    -0.286 C  
HETATM    6  O   UNL     1     -11.340   6.111  72.593  1.00  0.00    -0.268 OA 
BRANCH   5   7
HETATM    7  C   UNL     1     -12.067   6.656  70.349  1.00  0.00    -0.251 C  
BRANCH   7   8
HETATM    8  C   UNL     1     -10.889   6.053  69.584  1.00  0.00    -0.439 C  
BRANCH   8   9
HETATM    9  C   UNL     1     -10.405   6.922  68.427  1.00  0.00    -0.213 C  
BRANCH   9  10
HETATM   10  C   UNL     1      -9.868   8.251  68.882  1.00  0.00    -0.183 C  
HETATM   11  C   UNL     1      -9.892   9.394  68.177  1.00  0.00    -0.183 C  
BRANCH  11  12
HETATM   12  C   UNL     1     -10.391   9.545  66.766  1.00  0.00    -0.298 C  
BRANCH  12  13
HETATM   13  C   UNL     1      -9.373  10.218  65.837  1.00  0.00    -0.226 C  
HETATM   14  C   UNL     1      -8.313   9.288  65.233  1.00  0.00    -0.145 C  
HETATM   15  O   UNL     1      -8.861   8.021  64.887  1.00  0.00    -0.389 OA 
HETATM   16  C   UNL     1      -7.886   9.998  63.954  1.00  0.00    -0.150 C  
HETATM   17  C   UNL     1      -9.192  10.555  63.395  1.00  0.00    -0.276 C  
HETATM   18  H   UNL     1      -8.204   7.445  64.512  1.00  0.00     0.000 HD 
HETATM   19  O   UNL     1      -9.839   9.558  62.597  1.00  0.00    -0.417 OA 
HETATM   20  C   UNL     1     -10.073  10.891  64.622  1.00  0.00    -0.391 C  
HETATM   21  H   UNL     1     -10.652   9.904  62.249  1.00  0.00     0.000 HD 
BRANCH  20  22
HETATM   22  C   UNL     1     -10.308  12.361  64.924  1.00  0.00    -0.319 C  
HETATM   23  C   UNL     1     -11.369  13.096  64.544  1.00  0.00    -0.383 C  
BRANCH  23  24
HETATM   24  C   UNL     1     -11.590  14.573  64.788  1.00  0.00    -0.413 C  
HETATM   25  H   UNL     1     -12.795  15.967  64.118  1.00  0.00     0.000 HD 
HETATM   26  O   UNL     1     -12.656  15.040  63.965  1.00  0.00    -0.817 OA 
BRANCH  24  27
HETATM   27  C   UNL     1     -11.917  14.828  66.273  1.00  0.00    -0.159 C  
BRANCH  27  28
HETATM   28  O   UNL     1     -10.729  14.788  67.080  1.00  0.00    -0.287 OA 
BRANCH  28  29
HETATM   29  C   UNL     1      -9.892  15.861  66.904  1.00  0.00    -0.243 A  
HETATM   30  C   UNL     1      -8.603  15.773  66.370  1.00  0.00    -0.346 A  
HETATM   31  C   UNL     1      -7.825  16.923  66.214  1.00  0.00    -0.346 A  
HETATM   32  C   UNL     1      -8.334  18.166  66.583  1.00  0.00    -0.283 A  
HETATM   33  C   UNL     1      -9.628  18.277  67.106  1.00  0.00    -0.281 A  
HETATM   34  C   UNL     1     -10.179  19.623  67.507  1.00  0.00    -0.432 C  
HETATM   35  C   UNL     1     -10.406  17.115  67.251  1.00  0.00    -0.320 A  
HETATM   36  F   UNL     1      -9.288  20.643  67.347  1.00  0.00    -0.486 F  
HETATM   37  F   UNL     1     -10.555  19.665  68.815  1.00  0.00    -0.440 F  
HETATM   38  F   UNL     1     -11.279  19.978  66.788  1.00  0.00    -0.455 F  
ENDBRANCH  28  29
ENDBRANCH  27  28
ENDBRANCH  24  27
ENDBRANCH  23  24
ENDBRANCH  20  22
ENDBRANCH  12  13
ENDBRANCH  11  12
ENDBRANCH   9  10
ENDBRANCH   8   9
ENDBRANCH   7   8
ENDBRANCH   5   7
ENDBRANCH   4   5
ENDBRANCH   2   4
TORSDOF 13
ENDMDL
MODEL       48
REMARK 921   NORMALIZED FREE ENERGY PREDICTED BY IDOCK:   -6.43 KCAL/MOL
REMARK 922        TOTAL FREE ENERGY PREDICTED BY IDOCK:  -13.55 KCAL/MOL
REMARK 923 INTER-LIGAND FREE ENERGY PREDICTED BY IDOCK:  -11.32 KCAL/MOL
REMARK 924 INTRA-LIGAND FREE ENERGY PREDICTED BY IDOCK:   -2.23 KCAL/MOL
REMARK 927      BINDING AFFINITY PREDICTED BY RF-SCORE:    0.00 PKD
ROOT
HETATM    1  C   UNL     1      -8.045   2.923  66.245  1.00  0.00    -0.083 C  
HETATM    2  C   UNL     1      -8.409   4.094  67.151  1.00  0.00    -0.100 C  
HETATM    3  C   UNL     1      -7.162   4.675  67.810  1.00  0.00    -0.066 C  
ENDROOT
BRANCH   2   4
HETATM    4  O   UNL     1      -9.009   5.137  66.363  1.00  0.00    -0.120 OA 
BRANCH   4   5
HETATM    5  C   UNL     1     -10.371   5.182  66.411  1.00  0.00    -0.288 C  
HETATM    6  O   UNL     1     -11.120   4.689  65.578  1.00  0.00    -0.200 OA 
BRANCH   5   7
HETATM    7  C   UNL     1     -10.825   5.976  67.607  1.00  0.00    -0.386 C  
BRANCH   7   8
HETATM    8  C   UNL     1     -10.033   7.281  67.694  1.00  0.00    -0.207 C  
BRANCH   8   9
HETATM    9  C   UNL     1      -9.184   7.397  68.956  1.00  0.00    -0.146 C  
BRANCH   9  10
HETATM   10  C   UNL     1      -8.924   8.824  69.355  1.00  0.00    -0.145 C  
HETATM   11  C   UNL     1      -9.350   9.418  70.481  1.00  0.00    -0.319 C  
BRANCH  11  12
HETATM   12  C   UNL     1     -10.235   8.792  71.523  1.00  0.00    -0.371 C  
BRANCH  12  13
HETATM   13  C   UNL     1     -11.678   8.587  71.043  1.00  0.00    -0.310 C  
HETATM   14  C   UNL     1     -12.321   7.252  71.436  1.00  0.00    -0.368 C  
HETATM   15  O   UNL     1     -11.947   6.853  72.750  1.00  0.00    -0.498 OA 
HETATM   16  C   UNL     1     -13.817   7.546  71.426  1.00  0.00    -0.439 C  
HETATM   17  C   UNL     1     -13.915   8.943  72.032  1.00  0.00    -0.437 C  
HETATM   18  H   UNL     1     -12.346   6.025  72.994  1.00  0.00     0.000 HD 
HETATM   19  O   UNL     1     -13.968   8.846  73.459  1.00  0.00    -1.160 OA 
HETATM   20  C   UNL     1     -12.624   9.684  71.608  1.00  0.00    -0.493 C  
HETATM   21  H   UNL     1     -14.029   9.716  73.837  1.00  0.00     0.000 HD 
BRANCH  20  22
HETATM   22  C   UNL     1     -12.770  10.800  70.589  1.00  0.00    -0.417 C  
HETATM   23  C   UNL     1     -11.956  11.862  70.444  1.00  0.00    -0.400 C  
BRANCH  23  24
HETATM   24  C   UNL     1     -12.119  13.011  69.472  1.00  0.00    -0.230 C  
HETATM   25  H   UNL     1     -12.823  14.840  69.526  1.00  0.00     0.000 HD 
HETATM   26  O   UNL     1     -12.720  14.119  70.136  1.00  0.00    -0.320 OA 
BRANCH  24  27
HETATM   27  C   UNL     1     -10.750  13.420  68.892  1.00  0.00    -0.190 C  
BRANCH  27  28
HETATM   28  O   UNL     1      -9.933  12.268  68.626  1.00  0.00    -0.200 OA 
BRANCH  28  29
HETATM   29  C   UNL     1      -9.993  11.822  67.329  1.00  0.00    -0.192 A  
HETATM   30  C   UNL     1      -9.191  10.803  66.811  1.00  0.00    -0.174 A  
HETATM   31  C   UNL     1      -9.330  10.404  65.479  1.00  0.00    -0.244 A  
HETATM   32  C   UNL     1     -10.278  11.017  64.663  1.00  0.00    -0.392 A  
HETATM   33  C   UNL     1     -11.102  12.030  65.167  1.00  0.00    -0.369 A  
HETATM   34  C   UNL     1     -12.128  12.695  64.283  1.00  0.00    -0.426 C  
HETATM   35  C   UNL     1     -10.959  12.418  66.512  1.00  0.00    -0.312 A  
HETATM   36  F   UNL     1     -12.112  12.239  62.997  1.00  0.00    -0.483 F  
HETATM   37  F   UNL     1     -11.950  14.043  64.198  1.00  0.00    -0.425 F  
HETATM   38  F   UNL     1     -13.402  12.510  64.724  1.00  0.00    -0.410 F  
ENDBRANCH  28  29
ENDBRANCH  27  28
ENDBRANCH  24  27
ENDBRANCH  23  24
ENDBRANCH  20  22
ENDBRANCH  12  13
ENDBRANCH  11  12
ENDBRANCH   9  10
ENDBRANCH   8   9
ENDBRANCH   7   8
ENDBRANCH   5   7
ENDBRANCH   4   5
ENDBRANCH   2   4
TORSDOF 13
ENDMDL
MODEL       49
REMARK 921   NORMALIZED FREE ENERGY PREDICTED BY IDOCK:   -6.43 KCAL/MOL
REMARK 922        TOTAL FREE ENERGY PREDICTED BY IDOCK:  -13.53 KCAL/MOL
REMARK 923 INTER-LIGAND FREE ENERGY PREDICTED BY IDOCK:  -11.92 KCAL/MOL
REMARK 924 INTRA-LIGAND FREE ENERGY PREDICTED BY IDOCK:   -1.61 KCAL/MOL
REMARK 927      BINDING AFFINITY PREDICTED BY RF-SCORE:    0.00 PKD
ROOT
HETATM    1  C   UNL     1      -8.834   6.240  73.351  1.00  0.00    -0.127 C  
HETATM    2  C   UNL     1     -10.309   6.073  73.003  1.00  0.00    -0.204 C  
HETATM    3  C   UNL     1     -10.934   4.950  73.826  1.00  0.00    -0.361 C  
ENDROOT
BRANCH   2   4
HETATM    4  O   UNL     1     -11.013   7.287  73.322  1.00  0.00    -0.352 OA 
BRANCH   4   5
HETATM    5  C   UNL     1     -11.654   7.872  72.271  1.00  0.00    -0.350 C  
HETATM    6  O   UNL     1     -12.730   7.509  71.816  1.00  0.00    -0.322 OA 
BRANCH   5   7
HETATM    7  C   UNL     1     -10.821   8.992  71.709  1.00  0.00    -0.437 C  
BRANCH   7   8
HETATM    8  C   UNL     1     -11.651   9.811  70.719  1.00  0.00    -0.417 C  
BRANCH   8   9
HETATM    9  C   UNL     1     -10.836  10.847  69.951  1.00  0.00    -0.205 C  
BRANCH   9  10
HETATM   10  C   UNL     1      -9.589  10.271  69.339  1.00  0.00    -0.237 C  
HETATM   11  C   UNL     1      -9.384  10.048  68.031  1.00  0.00    -0.139 C  
BRANCH  11  12
HETATM   12  C   UNL     1     -10.392  10.260  66.935  1.00  0.00    -0.298 C  
BRANCH  12  13
HETATM   13  C   UNL     1     -10.349  11.675  66.344  1.00  0.00    -0.266 C  
HETATM   14  C   UNL     1     -10.176  11.750  64.822  1.00  0.00    -0.282 C  
HETATM   15  O   UNL     1     -10.906  10.724  64.158  1.00  0.00    -0.402 OA 
HETATM   16  C   UNL     1     -10.782  13.097  64.448  1.00  0.00    -0.426 C  
HETATM   17  C   UNL     1     -12.015  13.200  65.340  1.00  0.00    -0.406 C  
HETATM   18  H   UNL     1     -10.799  10.771  63.214  1.00  0.00     0.000 HD 
HETATM   19  O   UNL     1     -13.123  12.553  64.706  1.00  0.00    -0.853 OA 
HETATM   20  C   UNL     1     -11.658  12.457  66.650  1.00  0.00    -0.447 C  
HETATM   21  H   UNL     1     -13.891  12.616  65.262  1.00  0.00     0.000 HD 
BRANCH  20  22
HETATM   22  C   UNL     1     -11.462  13.304  67.895  1.00  0.00    -0.341 C  
HETATM   23  C   UNL     1     -12.138  14.423  68.215  1.00  0.00    -0.260 C  
BRANCH  23  24
HETATM   24  C   UNL     1     -11.917  15.309  69.422  1.00  0.00    -0.315 C  
HETATM   25  H   UNL     1     -11.432  15.064  71.305  1.00  0.00     0.000 HD 
HETATM   26  O   UNL     1     -11.570  14.507  70.548  1.00  0.00    -0.275 OA 
BRANCH  24  27
HETATM   27  C   UNL     1     -10.800  16.333  69.137  1.00  0.00    -0.314 C  
BRANCH  27  28
HETATM   28  O   UNL     1     -10.892  16.844  67.797  1.00  0.00    -0.345 OA 
BRANCH  28  29
HETATM   29  C   UNL     1     -10.226  18.027  67.599  1.00  0.00    -0.368 A  
HETATM   30  C   UNL     1     -10.771  19.135  66.945  1.00  0.00    -0.515 A  
HETATM   31  C   UNL     1     -10.023  20.306  66.800  1.00  0.00    -0.587 A  
HETATM   32  C   UNL     1      -8.730  20.377  67.313  1.00  0.00    -0.429 A  
HETATM   33  C   UNL     1      -8.172  19.283  67.985  1.00  0.00    -0.346 A  
HETATM   34  C   UNL     1      -6.771  19.358  68.540  1.00  0.00    -0.284 C  
HETATM   35  C   UNL     1      -8.937  18.111  68.133  1.00  0.00    -0.298 A  
HETATM   36  F   UNL     1      -6.146  20.542  68.276  1.00  0.00    -0.272 F  
HETATM   37  F   UNL     1      -5.955  18.391  68.036  1.00  0.00    -0.169 F  
HETATM   38  F   UNL     1      -6.733  19.215  69.893  1.00  0.00    -0.272 F  
ENDBRANCH  28  29
ENDBRANCH  27  28
ENDBRANCH  24  27
ENDBRANCH  23  24
ENDBRANCH  20  22
ENDBRANCH  12  13
ENDBRANCH  11  12
ENDBRANCH   9  10
ENDBRANCH   8   9
ENDBRANCH   7   8
ENDBRANCH   5   7
ENDBRANCH   4   5
ENDBRANCH   2   4
TORSDOF 13
ENDMDL
MODEL       50
REMARK 921   NORMALIZED FREE ENERGY PREDICTED BY IDOCK:   -6.42 KCAL/MOL
REMARK 922        TOTAL FREE ENERGY PREDICTED BY IDOCK:  -13.51 KCAL/MOL
REMARK 923 INTER-LIGAND FREE ENERGY PREDICTED BY IDOCK:  -10.30 KCAL/MOL
REMARK 924 INTRA-LIGAND FREE ENERGY PREDICTED BY IDOCK:   -3.21 KCAL/MOL
REMARK 927      BINDING AFFINITY PREDICTED BY RF-SCORE:    0.00 PKD
ROOT
HETATM    1  C   UNL     1     -12.429  12.098  63.623  1.00  0.00    -0.658 C  
HETATM    2  C   UNL     1     -11.173  12.089  64.488  1.00  0.00    -0.332 C  
HETATM    3  C   UNL     1     -10.328  10.851  64.202  1.00  0.00    -0.432 C  
ENDROOT
BRANCH   2   4
HETATM    4  O   UNL     1     -10.372  13.242  64.175  1.00  0.00    -0.407 OA 
BRANCH   4   5
HETATM    5  C   UNL     1     -10.612  14.336  64.952  1.00  0.00    -0.431 C  
HETATM    6  O   UNL     1     -11.204  15.343  64.584  1.00  0.00    -0.407 OA 
BRANCH   5   7
HETATM    7  C   UNL     1      -9.994  14.156  66.313  1.00  0.00    -0.315 C  
BRANCH   7   8
HETATM    8  C   UNL     1     -10.957  14.654  67.390  1.00  0.00    -0.309 C  
BRANCH   8   9
HETATM    9  C   UNL     1     -11.194  13.645  68.510  1.00  0.00    -0.310 C  
BRANCH   9  10
HETATM   10  C   UNL     1     -11.869  12.389  68.029  1.00  0.00    -0.376 C  
HETATM   11  C   UNL     1     -11.779  11.178  68.601  1.00  0.00    -0.389 C  
BRANCH  11  12
HETATM   12  C   UNL     1     -10.924  10.828  69.787  1.00  0.00    -0.314 C  
BRANCH  12  13
HETATM   13  C   UNL     1      -9.740   9.920  69.429  1.00  0.00    -0.228 C  
HETATM   14  C   UNL     1      -9.948   8.426  69.704  1.00  0.00    -0.193 C  
HETATM   15  O   UNL     1     -11.277   8.014  69.401  1.00  0.00    -0.438 OA 
HETATM   16  C   UNL     1      -8.994   7.737  68.735  1.00  0.00    -0.141 C  
HETATM   17  C   UNL     1      -9.113   8.564  67.459  1.00  0.00    -0.134 C  
HETATM   18  H   UNL     1     -11.405   7.088  69.571  1.00  0.00     0.000 HD 
HETATM   19  O   UNL     1     -10.213   8.089  66.677  1.00  0.00    -0.341 OA 
HETATM   20  C   UNL     1      -9.390  10.017  67.917  1.00  0.00    -0.151 C  
HETATM   21  H   UNL     1     -10.287   8.604  65.882  1.00  0.00     0.000 HD 
BRANCH  20  22
HETATM   22  C   UNL     1      -8.274  11.029  67.721  1.00  0.00    -0.117 C  
HETATM   23  C   UNL     1      -7.838  11.924  68.626  1.00  0.00    -0.104 C  
BRANCH  23  24
HETATM   24  C   UNL     1      -6.767  12.975  68.428  1.00  0.00    -0.093 C  
HETATM   25  H   UNL     1      -5.611  13.579  66.965  1.00  0.00     0.000 HD 
HETATM   26  O   UNL     1      -6.283  12.919  67.089  1.00  0.00    -0.281 OA 
BRANCH  24  27
HETATM   27  C   UNL     1      -7.331  14.378  68.729  1.00  0.00    -0.131 C  
BRANCH  27  28
HETATM   28  O   UNL     1      -6.592  15.396  68.033  1.00  0.00    -0.121 OA 
BRANCH  28  29
HETATM   29  C   UNL     1      -7.044  16.672  68.256  1.00  0.00    -0.160 A  
HETATM   30  C   UNL     1      -6.347  17.635  68.990  1.00  0.00    -0.223 A  
HETATM   31  C   UNL     1      -6.879  18.917  69.156  1.00  0.00    -0.327 A  
HETATM   32  C   UNL     1      -8.106  19.243  68.582  1.00  0.00    -0.405 A  
HETATM   33  C   UNL     1      -8.813  18.297  67.830  1.00  0.00    -0.278 A  
HETATM   34  C   UNL     1     -10.142  18.648  67.209  1.00  0.00    -0.354 C  
HETATM   35  C   UNL     1      -8.265  17.012  67.662  1.00  0.00    -0.193 A  
HETATM   36  F   UNL     1     -10.557  19.915  67.500  1.00  0.00    -0.516 F  
HETATM   37  F   UNL     1     -11.147  17.828  67.624  1.00  0.00    -0.344 F  
HETATM   38  F   UNL     1     -10.127  18.568  65.851  1.00  0.00    -0.345 F  
ENDBRANCH  28  29
ENDBRANCH  27  28
ENDBRANCH  24  27
ENDBRANCH  23  24
ENDBRANCH  20  22
ENDBRANCH  12  13
ENDBRANCH  11  12
ENDBRANCH   9  10
ENDBRANCH   8   9
ENDBRANCH   7   8
ENDBRANCH   5   7
ENDBRANCH   4   5
ENDBRANCH   2   4
TORSDOF 13
ENDMDL
MODEL       51
REMARK 921   NORMALIZED FREE ENERGY PREDICTED BY IDOCK:   -6.41 KCAL/MOL
REMARK 922        TOTAL FREE ENERGY PREDICTED BY IDOCK:  -13.51 KCAL/MOL
REMARK 923 INTER-LIGAND FREE ENERGY PREDICTED BY IDOCK:  -11.04 KCAL/MOL
REMARK 924 INTRA-LIGAND FREE ENERGY PREDICTED BY IDOCK:   -2.47 KCAL/MOL
REMARK 927      BINDING AFFINITY PREDICTED BY RF-SCORE:    0.00 PKD
ROOT
HETATM    1  C   UNL     1     -10.572   5.022  66.258  1.00  0.00    -0.332 C  
HETATM    2  C   UNL     1     -10.693   6.347  67.002  1.00  0.00    -0.363 C  
HETATM    3  C   UNL     1     -11.027   6.114  68.472  1.00  0.00    -0.404 C  
ENDROOT
BRANCH   2   4
HETATM    4  O   UNL     1      -9.432   7.039  66.948  1.00  0.00    -0.147 OA 
BRANCH   4   5
HETATM    5  C   UNL     1      -9.524   8.399  66.927  1.00  0.00    -0.185 C  
HETATM    6  O   UNL     1     -10.243   9.042  66.174  1.00  0.00    -0.267 OA 
BRANCH   5   7
HETATM    7  C   UNL     1      -8.569   9.002  67.922  1.00  0.00    -0.125 C  
BRANCH   7   8
HETATM    8  C   UNL     1      -7.610   7.929  68.437  1.00  0.00    -0.108 C  
BRANCH   8   9
HETATM    9  C   UNL     1      -7.305   8.048  69.928  1.00  0.00    -0.066 C  
BRANCH   9  10
HETATM   10  C   UNL     1      -8.097   7.079  70.763  1.00  0.00    -0.113 C  
HETATM   11  C   UNL     1      -9.247   7.346  71.401  1.00  0.00    -0.148 C  
BRANCH  11  12
HETATM   12  C   UNL     1      -9.925   8.687  71.466  1.00  0.00    -0.344 C  
BRANCH  12  13
HETATM   13  C   UNL     1     -11.335   8.679  70.861  1.00  0.00    -0.314 C  
HETATM   14  C   UNL     1     -12.404   7.956  71.688  1.00  0.00    -0.315 C  
HETATM   15  O   UNL     1     -12.232   8.179  73.084  1.00  0.00    -0.645 OA 
HETATM   16  C   UNL     1     -13.711   8.606  71.251  1.00  0.00    -0.203 C  
HETATM   17  C   UNL     1     -13.353  10.083  71.116  1.00  0.00    -0.305 C  
HETATM   18  H   UNL     1     -12.895   7.730  73.596  1.00  0.00     0.000 HD 
HETATM   19  O   UNL     1     -13.484  10.729  72.386  1.00  0.00    -0.599 OA 
HETATM   20  C   UNL     1     -11.873  10.124  70.662  1.00  0.00    -0.431 C  
HETATM   21  H   UNL     1     -13.261  11.649  72.302  1.00  0.00     0.000 HD 
BRANCH  20  22
HETATM   22  C   UNL     1     -11.599  10.574  69.238  1.00  0.00    -0.308 C  
HETATM   23  C   UNL     1     -11.259  11.815  68.842  1.00  0.00    -0.311 C  
BRANCH  23  24
HETATM   24  C   UNL     1     -11.038  12.292  67.423  1.00  0.00    -0.282 C  
HETATM   25  H   UNL     1     -12.142  12.991  65.962  1.00  0.00     0.000 HD 
HETATM   26  O   UNL     1     -12.281  12.691  66.853  1.00  0.00    -0.489 OA 
BRANCH  24  27
HETATM   27  C   UNL     1     -10.043  13.470  67.403  1.00  0.00    -0.237 C  
BRANCH  27  28
HETATM   28  O   UNL     1     -10.497  14.519  66.533  1.00  0.00    -0.277 OA 
BRANCH  28  29
HETATM   29  C   UNL     1      -9.688  15.628  66.517  1.00  0.00    -0.266 A  
HETATM   30  C   UNL     1      -8.292  15.582  66.535  1.00  0.00    -0.234 A  
HETATM   31  C   UNL     1      -7.547  16.763  66.504  1.00  0.00    -0.334 A  
HETATM   32  C   UNL     1      -8.195  17.995  66.446  1.00  0.00    -0.285 A  
HETATM   33  C   UNL     1      -9.593  18.063  66.412  1.00  0.00    -0.301 A  
HETATM   34  C   UNL     1     -10.296  19.396  66.351  1.00  0.00    -0.483 C  
HETATM   35  C   UNL     1     -10.333  16.866  66.436  1.00  0.00    -0.302 A  
HETATM   36  F   UNL     1      -9.441  20.460  66.380  1.00  0.00    -0.441 F  
HETATM   37  F   UNL     1     -11.152  19.585  67.393  1.00  0.00    -0.573 F  
HETATM   38  F   UNL     1     -11.037  19.550  65.221  1.00  0.00    -0.504 F  
ENDBRANCH  28  29
ENDBRANCH  27  28
ENDBRANCH  24  27
ENDBRANCH  23  24
ENDBRANCH  20  22
ENDBRANCH  12  13
ENDBRANCH  11  12
ENDBRANCH   9  10
ENDBRANCH   8   9
ENDBRANCH   7   8
ENDBRANCH   5   7
ENDBRANCH   4   5
ENDBRANCH   2   4
TORSDOF 13
ENDMDL
MODEL       52
REMARK 921   NORMALIZED FREE ENERGY PREDICTED BY IDOCK:   -6.41 KCAL/MOL
REMARK 922        TOTAL FREE ENERGY PREDICTED BY IDOCK:  -13.51 KCAL/MOL
REMARK 923 INTER-LIGAND FREE ENERGY PREDICTED BY IDOCK:  -10.66 KCAL/MOL
REMARK 924 INTRA-LIGAND FREE ENERGY PREDICTED BY IDOCK:   -2.85 KCAL/MOL
REMARK 927      BINDING AFFINITY PREDICTED BY RF-SCORE:    0.00 PKD
ROOT
HETATM    1  C   UNL     1     -14.062   8.135  72.000  1.00  0.00    -0.446 C  
HETATM    2  C   UNL     1     -12.812   8.864  71.520  1.00  0.00    -0.334 C  
HETATM    3  C   UNL     1     -13.038  10.372  71.506  1.00  0.00    -0.532 C  
ENDROOT
BRANCH   2   4
HETATM    4  O   UNL     1     -11.727   8.596  72.427  1.00  0.00    -0.368 OA 
BRANCH   4   5
HETATM    5  C   UNL     1     -10.944   7.534  72.087  1.00  0.00    -0.250 C  
HETATM    6  O   UNL     1     -10.632   6.622  72.841  1.00  0.00    -0.217 OA 
BRANCH   5   7
HETATM    7  C   UNL     1     -10.465   7.671  70.666  1.00  0.00    -0.217 C  
BRANCH   7   8
HETATM    8  C   UNL     1      -9.517   6.522  70.324  1.00  0.00    -0.169 C  
BRANCH   8   9
HETATM    9  C   UNL     1      -9.433   6.225  68.830  1.00  0.00    -0.130 C  
BRANCH   9  10
HETATM   10  C   UNL     1     -10.722   6.504  68.107  1.00  0.00    -0.347 C  
HETATM   11  C   UNL     1     -10.869   7.303  67.038  1.00  0.00    -0.350 C  
BRANCH  11  12
HETATM   12  C   UNL     1      -9.785   8.133  66.407  1.00  0.00    -0.275 C  
BRANCH  12  13
HETATM   13  C   UNL     1      -9.809   9.599  66.860  1.00  0.00    -0.257 C  
HETATM   14  C   UNL     1      -8.932   9.930  68.073  1.00  0.00    -0.121 C  
HETATM   15  O   UNL     1      -7.700   9.216  68.043  1.00  0.00    -0.091 OA 
HETATM   16  C   UNL     1      -8.635  11.417  67.918  1.00  0.00    -0.140 C  
HETATM   17  C   UNL     1      -8.408  11.587  66.419  1.00  0.00    -0.118 C  
HETATM   18  H   UNL     1      -7.157   9.421  68.795  1.00  0.00     0.000 HD 
HETATM   19  O   UNL     1      -7.041  11.305  66.104  1.00  0.00    -0.331 OA 
HETATM   20  C   UNL     1      -9.326  10.549  65.728  1.00  0.00    -0.229 C  
HETATM   21  H   UNL     1      -6.899  11.410  65.170  1.00  0.00     0.000 HD 
BRANCH  20  22
HETATM   22  C   UNL     1     -10.527  11.085  64.969  1.00  0.00    -0.344 C  
HETATM   23  C   UNL     1     -10.540  12.140  64.133  1.00  0.00    -0.403 C  
BRANCH  23  24
HETATM   24  C   UNL     1     -11.739  12.720  63.415  1.00  0.00    -0.488 C  
HETATM   25  H   UNL     1     -13.552  12.133  62.955  1.00  0.00     0.000 HD 
HETATM   26  O   UNL     1     -12.799  11.769  63.406  1.00  0.00    -0.632 OA 
BRANCH  24  27
HETATM   27  C   UNL     1     -12.199  14.020  64.104  1.00  0.00    -0.396 C  
BRANCH  27  28
HETATM   28  O   UNL     1     -12.908  13.740  65.322  1.00  0.00    -0.681 OA 
BRANCH  28  29
HETATM   29  C   UNL     1     -12.203  14.029  66.464  1.00  0.00    -0.451 A  
HETATM   30  C   UNL     1     -12.239  13.256  67.627  1.00  0.00    -0.181 A  
HETATM   31  C   UNL     1     -11.477  13.620  68.739  1.00  0.00    -0.346 A  
HETATM   32  C   UNL     1     -10.668  14.753  68.691  1.00  0.00    -0.253 A  
HETATM   33  C   UNL     1     -10.606  15.533  67.530  1.00  0.00    -0.297 A  
HETATM   34  C   UNL     1      -9.732  16.761  67.476  1.00  0.00    -0.252 C  
HETATM   35  C   UNL     1     -11.372  15.153  66.412  1.00  0.00    -0.225 A  
HETATM   36  F   UNL     1      -9.089  17.020  68.652  1.00  0.00    -0.239 F  
HETATM   37  F   UNL     1     -10.434  17.891  67.185  1.00  0.00    -0.333 F  
HETATM   38  F   UNL     1      -8.754  16.672  66.534  1.00  0.00    -0.219 F  
ENDBRANCH  28  29
ENDBRANCH  27  28
ENDBRANCH  24  27
ENDBRANCH  23  24
ENDBRANCH  20  22
ENDBRANCH  12  13
ENDBRANCH  11  12
ENDBRANCH   9  10
ENDBRANCH   8   9
ENDBRANCH   7   8
ENDBRANCH   5   7
ENDBRANCH   4   5
ENDBRANCH   2   4
TORSDOF 13
ENDMDL
MODEL       53
REMARK 921   NORMALIZED FREE ENERGY PREDICTED BY IDOCK:   -6.41 KCAL/MOL
REMARK 922        TOTAL FREE ENERGY PREDICTED BY IDOCK:  -13.51 KCAL/MOL
REMARK 923 INTER-LIGAND FREE ENERGY PREDICTED BY IDOCK:  -11.84 KCAL/MOL
REMARK 924 INTRA-LIGAND FREE ENERGY PREDICTED BY IDOCK:   -1.67 KCAL/MOL
REMARK 927      BINDING AFFINITY PREDICTED BY RF-SCORE:    0.00 PKD
ROOT
HETATM    1  C   UNL     1     -11.115   3.617  73.299  1.00  0.00    -0.252 C  
HETATM    2  C   UNL     1     -10.411   4.861  72.769  1.00  0.00    -0.205 C  
HETATM    3  C   UNL     1     -10.082   4.705  71.287  1.00  0.00    -0.245 C  
ENDROOT
BRANCH   2   4
HETATM    4  O   UNL     1     -11.287   5.995  72.901  1.00  0.00    -0.256 OA 
BRANCH   4   5
HETATM    5  C   UNL     1     -10.669   7.160  73.247  1.00  0.00    -0.361 C  
HETATM    6  O   UNL     1      -9.758   7.258  74.057  1.00  0.00    -0.280 OA 
BRANCH   5   7
HETATM    7  C   UNL     1     -11.308   8.322  72.533  1.00  0.00    -0.455 C  
BRANCH   7   8
HETATM    8  C   UNL     1     -12.654   7.894  71.947  1.00  0.00    -0.348 C  
BRANCH   8   9
HETATM    9  C   UNL     1     -13.632   9.050  71.757  1.00  0.00    -0.468 C  
BRANCH   9  10
HETATM   10  C   UNL     1     -12.973  10.397  71.885  1.00  0.00    -0.555 C  
HETATM   11  C   UNL     1     -12.410  11.096  70.887  1.00  0.00    -0.500 C  
BRANCH  11  12
HETATM   12  C   UNL     1     -12.261  10.632  69.464  1.00  0.00    -0.230 C  
BRANCH  12  13
HETATM   13  C   UNL     1     -11.085  11.295  68.735  1.00  0.00    -0.288 C  
HETATM   14  C   UNL     1      -9.690  10.857  69.198  1.00  0.00    -0.122 C  
HETATM   15  O   UNL     1      -9.647   9.466  69.498  1.00  0.00    -0.163 OA 
HETATM   16  C   UNL     1      -8.801  11.121  67.989  1.00  0.00    -0.142 C  
HETATM   17  C   UNL     1      -9.663  10.693  66.805  1.00  0.00    -0.185 C  
HETATM   18  H   UNL     1      -8.782   9.195  69.785  1.00  0.00     0.000 HD 
HETATM   19  O   UNL     1      -9.511   9.287  66.581  1.00  0.00    -0.166 OA 
HETATM   20  C   UNL     1     -11.126  10.999  67.209  1.00  0.00    -0.359 C  
HETATM   21  H   UNL     1     -10.048   9.020  65.844  1.00  0.00     0.000 HD 
BRANCH  20  22
HETATM   22  C   UNL     1     -11.816  12.145  66.491  1.00  0.00    -0.322 C  
HETATM   23  C   UNL     1     -11.327  12.850  65.453  1.00  0.00    -0.336 C  
BRANCH  23  24
HETATM   24  C   UNL     1     -11.977  14.029  64.763  1.00  0.00    -0.417 C  
HETATM   25  H   UNL     1     -13.684  14.985  64.872  1.00  0.00     0.000 HD 
HETATM   26  O   UNL     1     -13.276  14.245  65.306  1.00  0.00    -0.704 OA 
BRANCH  24  27
HETATM   27  C   UNL     1     -11.113  15.295  64.938  1.00  0.00    -0.424 C  
BRANCH  27  28
HETATM   28  O   UNL     1      -9.869  14.989  65.590  1.00  0.00    -0.329 OA 
BRANCH  28  29
HETATM   29  C   UNL     1      -9.206  16.086  66.081  1.00  0.00    -0.352 A  
HETATM   30  C   UNL     1      -7.871  16.078  66.492  1.00  0.00    -0.226 A  
HETATM   31  C   UNL     1      -7.273  17.248  66.968  1.00  0.00    -0.218 A  
HETATM   32  C   UNL     1      -8.005  18.432  67.026  1.00  0.00    -0.238 A  
HETATM   33  C   UNL     1      -9.339  18.464  66.604  1.00  0.00    -0.305 A  
HETATM   34  C   UNL     1     -10.133  19.746  66.668  1.00  0.00    -0.461 C  
HETATM   35  C   UNL     1      -9.929  17.283  66.119  1.00  0.00    -0.288 A  
HETATM   36  F   UNL     1      -9.434  20.789  67.203  1.00  0.00    -0.535 F  
HETATM   37  F   UNL     1     -11.256  19.628  67.429  1.00  0.00    -0.554 F  
HETATM   38  F   UNL     1     -10.549  20.169  65.444  1.00  0.00    -0.546 F  
ENDBRANCH  28  29
ENDBRANCH  27  28
ENDBRANCH  24  27
ENDBRANCH  23  24
ENDBRANCH  20  22
ENDBRANCH  12  13
ENDBRANCH  11  12
ENDBRANCH   9  10
ENDBRANCH   8   9
ENDBRANCH   7   8
ENDBRANCH   5   7
ENDBRANCH   4   5
ENDBRANCH   2   4
TORSDOF 13
ENDMDL
MODEL       54
REMARK 921   NORMALIZED FREE ENERGY PREDICTED BY IDOCK:   -6.37 KCAL/MOL
REMARK 922        TOTAL FREE ENERGY PREDICTED BY IDOCK:  -13.43 KCAL/MOL
REMARK 923 INTER-LIGAND FREE ENERGY PREDICTED BY IDOCK:  -10.86 KCAL/MOL
REMARK 924 INTRA-LIGAND FREE ENERGY PREDICTED BY IDOCK:   -2.57 KCAL/MOL
REMARK 927      BINDING AFFINITY PREDICTED BY RF-SCORE:    0.00 PKD
ROOT
HETATM    1  C   UNL     1     -10.176  20.325  68.274  1.00  0.00    -0.373 C  
HETATM    2  C   UNL     1     -10.107  19.111  67.354  1.00  0.00    -0.379 C  
HETATM    3  C   UNL     1     -10.780  19.408  66.018  1.00  0.00    -0.512 C  
ENDROOT
BRANCH   2   4
HETATM    4  O   UNL     1      -8.729  18.796  67.085  1.00  0.00    -0.269 OA 
BRANCH   4   5
HETATM    5  C   UNL     1      -7.957  18.604  68.193  1.00  0.00    -0.289 C  
HETATM    6  O   UNL     1      -7.079  19.365  68.576  1.00  0.00    -0.287 OA 
BRANCH   5   7
HETATM    7  C   UNL     1      -8.299  17.291  68.846  1.00  0.00    -0.174 C  
BRANCH   7   8
HETATM    8  C   UNL     1      -7.945  16.137  67.908  1.00  0.00    -0.150 C  
BRANCH   8   9
HETATM    9  C   UNL     1      -8.198  14.760  68.514  1.00  0.00    -0.153 C  
BRANCH   9  10
HETATM   10  C   UNL     1      -8.048  13.647  67.513  1.00  0.00    -0.190 C  
HETATM   11  C   UNL     1      -9.042  13.076  66.815  1.00  0.00    -0.212 C  
BRANCH  11  12
HETATM   12  C   UNL     1     -10.507  13.387  66.958  1.00  0.00    -0.257 C  
BRANCH  12  13
HETATM   13  C   UNL     1     -11.371  12.721  65.878  1.00  0.00    -0.363 C  
HETATM   14  C   UNL     1     -11.852  13.647  64.755  1.00  0.00    -0.387 C  
HETATM   15  O   UNL     1     -10.851  14.588  64.382  1.00  0.00    -0.614 OA 
HETATM   16  C   UNL     1     -12.094  12.705  63.581  1.00  0.00    -0.632 C  
HETATM   17  C   UNL     1     -10.934  11.719  63.662  1.00  0.00    -0.439 C  
HETATM   18  H   UNL     1     -11.150  15.161  63.685  1.00  0.00     0.000 HD 
HETATM   19  O   UNL     1      -9.799  12.251  62.971  1.00  0.00    -0.464 OA 
HETATM   20  C   UNL     1     -10.603  11.571  65.167  1.00  0.00    -0.350 C  
HETATM   21  H   UNL     1      -9.076  11.637  63.022  1.00  0.00     0.000 HD 
BRANCH  20  22
HETATM   22  C   UNL     1     -10.952  10.248  65.826  1.00  0.00     0.361 C  
HETATM   23  C   UNL     1     -10.119   9.463  66.534  1.00  0.00    -0.332 C  
BRANCH  23  24
HETATM   24  C   UNL     1     -10.435   8.116  67.148  1.00  0.00    -0.326 C  
HETATM   25  H   UNL     1      -9.577   6.357  67.253  1.00  0.00     0.000 HD 
HETATM   26  O   UNL     1      -9.378   7.203  66.868  1.00  0.00    -0.142 OA 
BRANCH  24  27
HETATM   27  C   UNL     1     -10.627   8.254  68.672  1.00  0.00    -0.108 C  
BRANCH  27  28
HETATM   28  O   UNL     1     -10.228   9.556  69.130  1.00  0.00    -0.186 OA 
BRANCH  28  29
HETATM   29  C   UNL     1     -11.127  10.154  69.978  1.00  0.00    -0.308 A  
HETATM   30  C   UNL     1     -11.839   9.479  70.972  1.00  0.00    -0.408 A  
HETATM   31  C   UNL     1     -12.725  10.173  71.799  1.00  0.00    -0.534 A  
HETATM   32  C   UNL     1     -12.898  11.546  71.641  1.00  0.00    -0.475 A  
HETATM   33  C   UNL     1     -12.183  12.244  70.660  1.00  0.00    -0.378 A  
HETATM   34  C   UNL     1     -12.370  13.731  70.487  1.00  0.00    -0.359 C  
HETATM   35  C   UNL     1     -11.286  11.537  69.838  1.00  0.00    -0.267 A  
HETATM   36  F   UNL     1     -13.305  14.260  71.329  1.00  0.00    -0.372 F  
HETATM   37  F   UNL     1     -12.775  14.064  69.231  1.00  0.00    -0.286 F  
HETATM   38  F   UNL     1     -11.228  14.435  70.715  1.00  0.00    -0.248 F  
ENDBRANCH  28  29
ENDBRANCH  27  28
ENDBRANCH  24  27
ENDBRANCH  23  24
ENDBRANCH  20  22
ENDBRANCH  12  13
ENDBRANCH  11  12
ENDBRANCH   9  10
ENDBRANCH   8   9
ENDBRANCH   7   8
ENDBRANCH   5   7
ENDBRANCH   4   5
ENDBRANCH   2   4
TORSDOF 13
ENDMDL
MODEL       55
REMARK 921   NORMALIZED FREE ENERGY PREDICTED BY IDOCK:   -6.36 KCAL/MOL
REMARK 922        TOTAL FREE ENERGY PREDICTED BY IDOCK:  -13.41 KCAL/MOL
REMARK 923 INTER-LIGAND FREE ENERGY PREDICTED BY IDOCK:  -11.35 KCAL/MOL
REMARK 924 INTRA-LIGAND FREE ENERGY PREDICTED BY IDOCK:   -2.07 KCAL/MOL
REMARK 927      BINDING AFFINITY PREDICTED BY RF-SCORE:    0.00 PKD
ROOT
HETATM    1  C   UNL     1     -13.319  15.879  73.157  1.00  0.00    -0.681 C  
HETATM    2  C   UNL     1     -12.867  14.785  72.195  1.00  0.00    -0.331 C  
HETATM    3  C   UNL     1     -13.777  13.566  72.296  1.00  0.00    -0.700 C  
ENDROOT
BRANCH   2   4
HETATM    4  O   UNL     1     -12.948  15.277  70.845  1.00  0.00    -0.410 OA 
BRANCH   4   5
HETATM    5  C   UNL     1     -11.771  15.264  70.158  1.00  0.00    -0.312 C  
HETATM    6  O   UNL     1     -10.708  15.702  70.576  1.00  0.00    -0.320 OA 
BRANCH   5   7
HETATM    7  C   UNL     1     -11.976  14.686  68.782  1.00  0.00    -0.301 C  
BRANCH   7   8
HETATM    8  C   UNL     1     -10.789  15.042  67.887  1.00  0.00    -0.280 C  
BRANCH   8   9
HETATM    9  C   UNL     1     -11.161  15.202  66.416  1.00  0.00    -0.312 C  
BRANCH   9  10
HETATM   10  C   UNL     1     -12.253  14.261  65.986  1.00  0.00    -0.422 C  
HETATM   11  C   UNL     1     -12.117  13.236  65.129  1.00  0.00    -0.452 C  
BRANCH  11  12
HETATM   12  C   UNL     1     -10.865  12.880  64.376  1.00  0.00    -0.404 C  
BRANCH  12  13
HETATM   13  C   UNL     1     -10.422  11.428  64.598  1.00  0.00    -0.373 C  
HETATM   14  C   UNL     1      -9.631  10.796  63.446  1.00  0.00    -0.338 C  
HETATM   15  O   UNL     1      -8.736  11.728  62.847  1.00  0.00    -0.636 OA 
HETATM   16  C   UNL     1      -8.812   9.701  64.119  1.00  0.00    -0.257 C  
HETATM   17  C   UNL     1      -8.368  10.336  65.433  1.00  0.00    -0.162 C  
HETATM   18  H   UNL     1      -8.246  11.336  62.134  1.00  0.00     0.000 HD 
HETATM   19  O   UNL     1      -7.161  11.078  65.226  1.00  0.00    -0.355 OA 
HETATM   20  C   UNL     1      -9.506  11.300  65.848  1.00  0.00    -0.247 C  
HETATM   21  H   UNL     1      -6.885  11.475  66.044  1.00  0.00     0.000 HD 
BRANCH  20  22
HETATM   22  C   UNL     1     -10.344  10.903  67.050  1.00  0.00    -0.276 C  
HETATM   23  C   UNL     1     -10.405  11.547  68.231  1.00  0.00    -0.211 C  
BRANCH  23  24
HETATM   24  C   UNL     1     -11.190  11.133  69.457  1.00  0.00    -0.277 C  
HETATM   25  H   UNL     1     -12.994  10.470  69.841  1.00  0.00     0.000 HD 
HETATM   26  O   UNL     1     -12.501  10.729  69.072  1.00  0.00    -0.379 OA 
BRANCH  24  27
HETATM   27  C   UNL     1     -10.474   9.980  70.188  1.00  0.00    -0.284 C  
BRANCH  27  28
HETATM   28  O   UNL     1     -11.418   9.106  70.829  1.00  0.00    -0.267 OA 
BRANCH  28  29
HETATM   29  C   UNL     1     -11.053   7.783  70.825  1.00  0.00    -0.257 A  
HETATM   30  C   UNL     1     -11.032   6.978  69.683  1.00  0.00    -0.268 A  
HETATM   31  C   UNL     1     -10.633   5.642  69.770  1.00  0.00    -0.400 A  
HETATM   32  C   UNL     1     -10.245   5.108  70.997  1.00  0.00    -0.295 A  
HETATM   33  C   UNL     1     -10.244   5.902  72.149  1.00  0.00    -0.231 A  
HETATM   34  C   UNL     1      -9.825   5.324  73.479  1.00  0.00    -0.161 C  
HETATM   35  C   UNL     1     -10.640   7.248  72.049  1.00  0.00    -0.236 A  
HETATM   36  F   UNL     1      -9.514   3.997  73.418  1.00  0.00    -0.111 F  
HETATM   37  F   UNL     1     -10.798   5.430  74.425  1.00  0.00    -0.283 F  
HETATM   38  F   UNL     1      -8.726   5.937  73.997  1.00  0.00    -0.119 F  
ENDBRANCH  28  29
ENDBRANCH  27  28
ENDBRANCH  24  27
ENDBRANCH  23  24
ENDBRANCH  20  22
ENDBRANCH  12  13
ENDBRANCH  11  12
ENDBRANCH   9  10
ENDBRANCH   8   9
ENDBRANCH   7   8
ENDBRANCH   5   7
ENDBRANCH   4   5
ENDBRANCH   2   4
TORSDOF 13
ENDMDL
MODEL       56
REMARK 921   NORMALIZED FREE ENERGY PREDICTED BY IDOCK:   -6.34 KCAL/MOL
REMARK 922        TOTAL FREE ENERGY PREDICTED BY IDOCK:  -13.37 KCAL/MOL
REMARK 923 INTER-LIGAND FREE ENERGY PREDICTED BY IDOCK:  -11.93 KCAL/MOL
REMARK 924 INTRA-LIGAND FREE ENERGY PREDICTED BY IDOCK:   -1.44 KCAL/MOL
REMARK 927      BINDING AFFINITY PREDICTED BY RF-SCORE:    0.00 PKD
ROOT
HETATM    1  C   UNL     1     -13.867  13.780  72.132  1.00  0.00    -0.649 C  
HETATM    2  C   UNL     1     -14.041  15.295  72.136  1.00  0.00    -0.560 C  
HETATM    3  C   UNL     1     -13.282  15.923  73.300  1.00  0.00    -0.698 C  
ENDROOT
BRANCH   2   4
HETATM    4  O   UNL     1     -13.499  15.839  70.920  1.00  0.00    -0.568 OA 
BRANCH   4   5
HETATM    5  C   UNL     1     -12.203  15.499  70.667  1.00  0.00    -0.402 C  
HETATM    6  O   UNL     1     -11.313  15.454  71.505  1.00  0.00    -0.377 OA 
BRANCH   5   7
HETATM    7  C   UNL     1     -12.008  15.244  69.196  1.00  0.00    -0.308 C  
BRANCH   7   8
HETATM    8  C   UNL     1     -11.353  13.878  68.989  1.00  0.00    -0.324 C  
BRANCH   8   9
HETATM    9  C   UNL     1     -12.119  12.729  69.640  1.00  0.00    -0.286 C  
BRANCH   9  10
HETATM   10  C   UNL     1     -11.862  11.406  68.972  1.00  0.00    -0.415 C  
HETATM   11  C   UNL     1     -11.594  10.248  69.596  1.00  0.00    -0.267 C  
BRANCH  11  12
HETATM   12  C   UNL     1     -11.422  10.068  71.079  1.00  0.00    -0.463 C  
BRANCH  12  13
HETATM   13  C   UNL     1     -10.492   8.903  71.440  1.00  0.00    -0.375 C  
HETATM   14  C   UNL     1     -11.017   7.949  72.519  1.00  0.00    -0.350 C  
HETATM   15  O   UNL     1     -12.417   7.725  72.388  1.00  0.00    -0.501 OA 
HETATM   16  C   UNL     1     -10.288   6.640  72.239  1.00  0.00    -0.219 C  
HETATM   17  C   UNL     1     -10.276   6.550  70.716  1.00  0.00    -0.187 C  
HETATM   18  H   UNL     1     -12.742   7.133  73.057  1.00  0.00     0.000 HD 
HETATM   19  O   UNL     1     -11.490   5.944  70.260  1.00  0.00    -0.272 OA 
HETATM   20  C   UNL     1     -10.198   8.009  70.203  1.00  0.00    -0.203 C  
HETATM   21  H   UNL     1     -11.483   5.888  69.311  1.00  0.00     0.000 HD 
BRANCH  20  22
HETATM   22  C   UNL     1      -8.894   8.446  69.560  1.00  0.00    -0.145 C  
HETATM   23  C   UNL     1      -8.669   8.618  68.244  1.00  0.00    -0.142 C  
BRANCH  23  24
HETATM   24  C   UNL     1      -7.361   8.998  67.584  1.00  0.00    -0.084 C  
HETATM   25  H   UNL     1      -5.967   8.092  66.547  1.00  0.00     0.000 HD 
HETATM   26  O   UNL     1      -6.788   7.853  66.961  1.00  0.00    -0.069 OA 
BRANCH  24  27
HETATM   27  C   UNL     1      -7.592  10.110  66.540  1.00  0.00    -0.109 C  
BRANCH  27  28
HETATM   28  O   UNL     1      -8.778  10.865  66.838  1.00  0.00    -0.139 OA 
BRANCH  28  29
HETATM   29  C   UNL     1      -9.471  11.284  65.731  1.00  0.00    -0.227 A  
HETATM   30  C   UNL     1      -9.431  10.645  64.489  1.00  0.00    -0.313 A  
HETATM   31  C   UNL     1     -10.182  11.136  63.418  1.00  0.00    -0.435 A  
HETATM   32  C   UNL     1     -10.983  12.263  63.586  1.00  0.00    -0.532 A  
HETATM   33  C   UNL     1     -11.049  12.910  64.826  1.00  0.00    -0.337 A  
HETATM   34  C   UNL     1     -11.915  14.132  65.009  1.00  0.00    -0.408 C  
HETATM   35  C   UNL     1     -10.295  12.402  65.900  1.00  0.00    -0.282 A  
HETATM   36  F   UNL     1     -12.546  14.524  63.864  1.00  0.00    -0.459 F  
HETATM   37  F   UNL     1     -11.207  15.217  65.429  1.00  0.00    -0.329 F  
HETATM   38  F   UNL     1     -12.900  13.946  65.928  1.00  0.00    -0.499 F  
ENDBRANCH  28  29
ENDBRANCH  27  28
ENDBRANCH  24  27
ENDBRANCH  23  24
ENDBRANCH  20  22
ENDBRANCH  12  13
ENDBRANCH  11  12
ENDBRANCH   9  10
ENDBRANCH   8   9
ENDBRANCH   7   8
ENDBRANCH   5   7
ENDBRANCH   4   5
ENDBRANCH   2   4
TORSDOF 13
ENDMDL
MODEL       57
REMARK 921   NORMALIZED FREE ENERGY PREDICTED BY IDOCK:   -6.33 KCAL/MOL
REMARK 922        TOTAL FREE ENERGY PREDICTED BY IDOCK:  -13.36 KCAL/MOL
REMARK 923 INTER-LIGAND FREE ENERGY PREDICTED BY IDOCK:  -10.85 KCAL/MOL
REMARK 924 INTRA-LIGAND FREE ENERGY PREDICTED BY IDOCK:   -2.51 KCAL/MOL
REMARK 927      BINDING AFFINITY PREDICTED BY RF-SCORE:    0.00 PKD
ROOT
HETATM    1  C   UNL     1     -12.820   9.826  71.539  1.00  0.00    -0.502 C  
HETATM    2  C   UNL     1     -12.960   8.341  71.853  1.00  0.00    -0.347 C  
HETATM    3  C   UNL     1     -14.394   7.873  71.627  1.00  0.00    -0.595 C  
ENDROOT
BRANCH   2   4
HETATM    4  O   UNL     1     -12.112   7.587  70.968  1.00  0.00    -0.308 OA 
BRANCH   4   5
HETATM    5  C   UNL     1     -10.878   7.292  71.466  1.00  0.00    -0.224 C  
HETATM    6  O   UNL     1     -10.665   6.795  72.564  1.00  0.00    -0.213 OA 
BRANCH   5   7
HETATM    7  C   UNL     1      -9.808   7.722  70.498  1.00  0.00    -0.182 C  
BRANCH   7   8
HETATM    8  C   UNL     1      -9.289   9.108  70.879  1.00  0.00    -0.335 C  
BRANCH   8   9
HETATM    9  C   UNL     1      -8.917   9.972  69.678  1.00  0.00    -0.221 C  
BRANCH   9  10
HETATM   10  C   UNL     1     -10.066  10.805  69.181  1.00  0.00    -0.224 C  
HETATM   11  C   UNL     1     -10.692  10.662  68.002  1.00  0.00    -0.275 C  
BRANCH  11  12
HETATM   12  C   UNL     1     -10.313   9.690  66.920  1.00  0.00    -0.307 C  
BRANCH  12  13
HETATM   13  C   UNL     1      -9.286  10.260  65.932  1.00  0.00    -0.226 C  
HETATM   14  C   UNL     1      -7.854   9.736  66.092  1.00  0.00    -0.107 C  
HETATM   15  O   UNL     1      -7.833   8.350  66.417  1.00  0.00    -0.095 OA 
HETATM   16  C   UNL     1      -7.238   9.919  64.710  1.00  0.00    -0.136 C  
HETATM   17  C   UNL     1      -8.364   9.532  63.757  1.00  0.00    -0.176 C  
HETATM   18  H   UNL     1      -6.945   8.025  66.516  1.00  0.00     0.000 HD 
HETATM   19  O   UNL     1      -8.353   8.116  63.547  1.00  0.00    -0.346 OA 
HETATM   20  C   UNL     1      -9.680   9.944  64.461  1.00  0.00    -0.223 C  
HETATM   21  H   UNL     1      -9.055   7.875  62.954  1.00  0.00     0.000 HD 
BRANCH  20  22
HETATM   22  C   UNL     1     -10.438  11.122  63.876  1.00  0.00    -0.445 C  
HETATM   23  C   UNL     1     -10.942  12.168  64.558  1.00  0.00    -0.361 C  
BRANCH  23  24
HETATM   24  C   UNL     1     -11.747  13.320  63.999  1.00  0.00    -0.430 C  
HETATM   25  H   UNL     1     -13.455  13.550  63.065  1.00  0.00     0.000 HD 
HETATM   26  O   UNL     1     -12.950  12.826  63.417  1.00  0.00    -0.595 OA 
BRANCH  24  27
HETATM   27  C   UNL     1     -12.076  14.335  65.113  1.00  0.00    -0.410 C  
BRANCH  27  28
HETATM   28  O   UNL     1     -12.241  13.679  66.381  1.00  0.00    -0.425 OA 
BRANCH  28  29
HETATM   29  C   UNL     1     -11.729  14.376  67.446  1.00  0.00    -0.397 A  
HETATM   30  C   UNL     1     -11.808  13.951  68.775  1.00  0.00    -0.396 A  
HETATM   31  C   UNL     1     -11.246  14.721  69.796  1.00  0.00    -0.306 A  
HETATM   32  C   UNL     1     -10.594  15.914  69.493  1.00  0.00    -0.282 A  
HETATM   33  C   UNL     1     -10.491  16.350  68.166  1.00  0.00    -0.302 A  
HETATM   34  C   UNL     1      -9.786  17.643  67.837  1.00  0.00    -0.300 C  
HETATM   35  C   UNL     1     -11.053  15.564  67.145  1.00  0.00    -0.256 A  
HETATM   36  F   UNL     1      -9.336  18.310  68.938  1.00  0.00    -0.310 F  
HETATM   37  F   UNL     1     -10.590  18.523  67.177  1.00  0.00    -0.378 F  
HETATM   38  F   UNL     1      -8.696  17.462  67.044  1.00  0.00    -0.213 F  
ENDBRANCH  28  29
ENDBRANCH  27  28
ENDBRANCH  24  27
ENDBRANCH  23  24
ENDBRANCH  20  22
ENDBRANCH  12  13
ENDBRANCH  11  12
ENDBRANCH   9  10
ENDBRANCH   8   9
ENDBRANCH   7   8
ENDBRANCH   5   7
ENDBRANCH   4   5
ENDBRANCH   2   4
TORSDOF 13
ENDMDL
MODEL       58
REMARK 921   NORMALIZED FREE ENERGY PREDICTED BY IDOCK:   -6.32 KCAL/MOL
REMARK 922        TOTAL FREE ENERGY PREDICTED BY IDOCK:  -13.34 KCAL/MOL
REMARK 923 INTER-LIGAND FREE ENERGY PREDICTED BY IDOCK:  -10.61 KCAL/MOL
REMARK 924 INTRA-LIGAND FREE ENERGY PREDICTED BY IDOCK:   -2.73 KCAL/MOL
REMARK 927      BINDING AFFINITY PREDICTED BY RF-SCORE:    0.00 PKD
ROOT
HETATM    1  C   UNL     1      -5.679   2.487  68.866  1.00  0.00    -0.022 C  
HETATM    2  C   UNL     1      -6.845   3.126  69.612  1.00  0.00    -0.034 C  
HETATM    3  C   UNL     1      -6.348   3.906  70.825  1.00  0.00    -0.022 C  
ENDROOT
BRANCH   2   4
HETATM    4  O   UNL     1      -7.513   4.057  68.742  1.00  0.00    -0.054 OA 
BRANCH   4   5
HETATM    5  C   UNL     1      -8.810   3.749  68.458  1.00  0.00    -0.112 C  
HETATM    6  O   UNL     1      -9.248   3.517  67.340  1.00  0.00    -0.163 OA 
BRANCH   5   7
HETATM    7  C   UNL     1      -9.643   3.793  69.712  1.00  0.00    -0.253 C  
BRANCH   7   8
HETATM    8  C   UNL     1     -10.164   5.213  69.939  1.00  0.00    -0.361 C  
BRANCH   8   9
HETATM    9  C   UNL     1      -9.290   6.040  70.877  1.00  0.00    -0.175 C  
BRANCH   9  10
HETATM   10  C   UNL     1      -8.926   7.382  70.303  1.00  0.00    -0.147 C  
HETATM   11  C   UNL     1      -9.405   8.569  70.708  1.00  0.00    -0.206 C  
BRANCH  11  12
HETATM   12  C   UNL     1     -10.456   8.777  71.763  1.00  0.00    -0.417 C  
BRANCH  12  13
HETATM   13  C   UNL     1     -11.883   8.775  71.199  1.00  0.00    -0.345 C  
HETATM   14  C   UNL     1     -12.631   7.441  71.301  1.00  0.00    -0.340 C  
HETATM   15  O   UNL     1     -12.350   6.771  72.526  1.00  0.00    -0.502 OA 
HETATM   16  C   UNL     1     -14.102   7.841  71.293  1.00  0.00    -0.365 C  
HETATM   17  C   UNL     1     -14.139   9.099  72.155  1.00  0.00    -0.346 C  
HETATM   18  H   UNL     1     -12.814   5.944  72.588  1.00  0.00     0.000 HD 
HETATM   19  O   UNL     1     -14.270   8.735  73.533  1.00  0.00    -1.110 OA 
HETATM   20  C   UNL     1     -12.782   9.811  71.932  1.00  0.00    -0.501 C  
HETATM   21  H   UNL     1     -14.293   9.519  74.070  1.00  0.00     0.000 HD 
BRANCH  20  22
HETATM   22  C   UNL     1     -12.804  11.109  71.145  1.00  0.00    -0.473 C  
HETATM   23  C   UNL     1     -12.960  12.347  71.648  1.00  0.00    -0.409 C  
BRANCH  23  24
HETATM   24  C   UNL     1     -13.039  13.645  70.873  1.00  0.00    -0.114 C  
HETATM   25  H   UNL     1     -13.184  15.554  71.292  1.00  0.00     0.000 HD 
HETATM   26  O   UNL     1     -13.134  14.739  71.779  1.00  0.00    -0.304 OA 
BRANCH  24  27
HETATM   27  C   UNL     1     -11.798  13.808  69.972  1.00  0.00    -0.307 C  
BRANCH  27  28
HETATM   28  O   UNL     1     -12.149  14.385  68.704  1.00  0.00    -0.311 OA 
BRANCH  28  29
HETATM   29  C   UNL     1     -11.889  13.576  67.626  1.00  0.00    -0.363 A  
HETATM   30  C   UNL     1     -12.112  13.942  66.296  1.00  0.00    -0.484 A  
HETATM   31  C   UNL     1     -11.805  13.057  65.260  1.00  0.00    -0.413 A  
HETATM   32  C   UNL     1     -11.267  11.805  65.548  1.00  0.00    -0.316 A  
HETATM   33  C   UNL     1     -11.022  11.424  66.873  1.00  0.00    -0.355 A  
HETATM   34  C   UNL     1     -10.440  10.068  67.187  1.00  0.00    -0.244 C  
HETATM   35  C   UNL     1     -11.327  12.326  67.909  1.00  0.00    -0.356 A  
HETATM   36  F   UNL     1     -10.243   9.295  66.080  1.00  0.00    -0.364 F  
HETATM   37  F   UNL     1     -11.239   9.333  68.010  1.00  0.00    -0.189 F  
HETATM   38  F   UNL     1      -9.230  10.143  67.804  1.00  0.00    -0.135 F  
ENDBRANCH  28  29
ENDBRANCH  27  28
ENDBRANCH  24  27
ENDBRANCH  23  24
ENDBRANCH  20  22
ENDBRANCH  12  13
ENDBRANCH  11  12
ENDBRANCH   9  10
ENDBRANCH   8   9
ENDBRANCH   7   8
ENDBRANCH   5   7
ENDBRANCH   4   5
ENDBRANCH   2   4
TORSDOF 13
ENDMDL
MODEL       59
REMARK 921   NORMALIZED FREE ENERGY PREDICTED BY IDOCK:   -6.32 KCAL/MOL
REMARK 922        TOTAL FREE ENERGY PREDICTED BY IDOCK:  -13.34 KCAL/MOL
REMARK 923 INTER-LIGAND FREE ENERGY PREDICTED BY IDOCK:  -11.01 KCAL/MOL
REMARK 924 INTRA-LIGAND FREE ENERGY PREDICTED BY IDOCK:   -2.33 KCAL/MOL
REMARK 927      BINDING AFFINITY PREDICTED BY RF-SCORE:    0.00 PKD
ROOT
HETATM    1  C   UNL     1     -12.150  14.949  64.299  1.00  0.00    -0.373 C  
HETATM    2  C   UNL     1     -11.673  13.818  65.204  1.00  0.00    -0.343 C  
HETATM    3  C   UNL     1     -11.799  14.212  66.672  1.00  0.00    -0.447 C  
ENDROOT
BRANCH   2   4
HETATM    4  O   UNL     1     -12.500  12.660  64.992  1.00  0.00    -0.494 OA 
BRANCH   4   5
HETATM    5  C   UNL     1     -12.321  12.038  63.793  1.00  0.00    -0.496 C  
HETATM    6  O   UNL     1     -13.163  11.964  62.908  1.00  0.00    -0.358 OA 
BRANCH   5   7
HETATM    7  C   UNL     1     -10.958  11.402  63.732  1.00  0.00    -0.448 C  
BRANCH   7   8
HETATM    8  C   UNL     1     -10.618  10.775  65.084  1.00  0.00    -0.239 C  
BRANCH   8   9
HETATM    9  C   UNL     1      -9.625   9.619  64.989  1.00  0.00    -0.284 C  
BRANCH   9  10
HETATM   10  C   UNL     1      -8.989   9.287  66.310  1.00  0.00    -0.193 C  
HETATM   11  C   UNL     1      -9.429   8.372  67.189  1.00  0.00    -0.209 C  
BRANCH  11  12
HETATM   12  C   UNL     1     -10.688   7.560  67.054  1.00  0.00    -0.367 C  
BRANCH  12  13
HETATM   13  C   UNL     1     -10.585   6.177  67.712  1.00  0.00    -0.338 C  
HETATM   14  C   UNL     1     -10.244   5.020  66.765  1.00  0.00    -0.248 C  
HETATM   15  O   UNL     1      -9.295   5.409  65.778  1.00  0.00    -0.172 OA 
HETATM   16  C   UNL     1      -9.599   3.979  67.674  1.00  0.00    -0.210 C  
HETATM   17  C   UNL     1      -8.739   4.809  68.622  1.00  0.00    -0.097 C  
HETATM   18  H   UNL     1      -9.083   4.691  65.192  1.00  0.00     0.000 HD 
HETATM   19  O   UNL     1      -7.459   5.047  68.027  1.00  0.00    -0.074 OA 
HETATM   20  C   UNL     1      -9.484   6.153  68.809  1.00  0.00    -0.128 C  
HETATM   21  H   UNL     1      -6.923   5.564  68.617  1.00  0.00     0.000 HD 
BRANCH  20  22
HETATM   22  C   UNL     1     -10.116   6.410  70.166  1.00  0.00    -0.209 C  
HETATM   23  C   UNL     1     -11.431   6.404  70.449  1.00  0.00    -0.458 C  
BRANCH  23  24
HETATM   24  C   UNL     1     -12.080   6.713  71.781  1.00  0.00    -0.353 C  
HETATM   25  H   UNL     1     -11.486   7.003  73.626  1.00  0.00     0.000 HD 
HETATM   26  O   UNL     1     -11.079   6.809  72.790  1.00  0.00    -0.256 OA 
BRANCH  24  27
HETATM   27  C   UNL     1     -12.875   8.032  71.697  1.00  0.00    -0.329 C  
BRANCH  27  28
HETATM   28  O   UNL     1     -12.075   9.149  72.120  1.00  0.00    -0.362 OA 
BRANCH  28  29
HETATM   29  C   UNL     1     -12.054  10.194  71.231  1.00  0.00    -0.394 A  
HETATM   30  C   UNL     1     -11.608  10.095  69.911  1.00  0.00    -0.290 A  
HETATM   31  C   UNL     1     -11.635  11.211  69.071  1.00  0.00    -0.392 A  
HETATM   32  C   UNL     1     -12.115  12.430  69.545  1.00  0.00    -0.250 A  
HETATM   33  C   UNL     1     -12.581  12.547  70.860  1.00  0.00    -0.331 A  
HETATM   34  C   UNL     1     -13.101  13.866  71.376  1.00  0.00    -0.340 C  
HETATM   35  C   UNL     1     -12.557  11.414  71.695  1.00  0.00    -0.338 A  
HETATM   36  F   UNL     1     -13.016  14.875  70.461  1.00  0.00    -0.379 F  
HETATM   37  F   UNL     1     -12.420  14.305  72.471  1.00  0.00    -0.364 F  
HETATM   38  F   UNL     1     -14.410  13.810  71.742  1.00  0.00    -0.450 F  
ENDBRANCH  28  29
ENDBRANCH  27  28
ENDBRANCH  24  27
ENDBRANCH  23  24
ENDBRANCH  20  22
ENDBRANCH  12  13
ENDBRANCH  11  12
ENDBRANCH   9  10
ENDBRANCH   8   9
ENDBRANCH   7   8
ENDBRANCH   5   7
ENDBRANCH   4   5
ENDBRANCH   2   4
TORSDOF 13
ENDMDL
MODEL       60
REMARK 921   NORMALIZED FREE ENERGY PREDICTED BY IDOCK:   -6.32 KCAL/MOL
REMARK 922        TOTAL FREE ENERGY PREDICTED BY IDOCK:  -13.34 KCAL/MOL
REMARK 923 INTER-LIGAND FREE ENERGY PREDICTED BY IDOCK:  -10.56 KCAL/MOL
REMARK 924 INTRA-LIGAND FREE ENERGY PREDICTED BY IDOCK:   -2.78 KCAL/MOL
REMARK 927      BINDING AFFINITY PREDICTED BY RF-SCORE:    0.00 PKD
ROOT
HETATM    1  C   UNL     1     -11.978   6.347  72.031  1.00  0.00    -0.375 C  
HETATM    2  C   UNL     1     -11.004   5.837  73.086  1.00  0.00    -0.271 C  
HETATM    3  C   UNL     1     -11.245   4.358  73.374  1.00  0.00    -0.386 C  
ENDROOT
BRANCH   2   4
HETATM    4  O   UNL     1      -9.658   5.969  72.594  1.00  0.00    -0.150 OA 
BRANCH   4   5
HETATM    5  C   UNL     1      -9.112   7.209  72.743  1.00  0.00    -0.138 C  
HETATM    6  O   UNL     1      -9.001   7.804  73.806  1.00  0.00    -0.243 OA 
BRANCH   5   7
HETATM    7  C   UNL     1      -8.718   7.770  71.402  1.00  0.00    -0.142 C  
BRANCH   7   8
HETATM    8  C   UNL     1      -8.482   6.630  70.412  1.00  0.00    -0.135 C  
BRANCH   8   9
HETATM    9  C   UNL     1      -9.415   6.668  69.205  1.00  0.00    -0.136 C  
BRANCH   9  10
HETATM   10  C   UNL     1     -10.291   7.891  69.184  1.00  0.00    -0.225 C  
HETATM   11  C   UNL     1     -10.659   8.578  68.091  1.00  0.00    -0.181 C  
BRANCH  11  12
HETATM   12  C   UNL     1     -10.201   8.302  66.685  1.00  0.00    -0.333 C  
BRANCH  12  13
HETATM   13  C   UNL     1      -9.375   9.448  66.086  1.00  0.00    -0.262 C  
HETATM   14  C   UNL     1      -8.251   9.023  65.133  1.00  0.00    -0.145 C  
HETATM   15  O   UNL     1      -8.641   7.925  64.315  1.00  0.00    -0.378 OA 
HETATM   16  C   UNL     1      -8.043  10.242  64.242  1.00  0.00    -0.143 C  
HETATM   17  C   UNL     1      -9.459  10.750  63.986  1.00  0.00    -0.272 C  
HETATM   18  H   UNL     1      -7.944   7.662  63.724  1.00  0.00     0.000 HD 
HETATM   19  O   UNL     1     -10.024  10.058  62.868  1.00  0.00    -0.500 OA 
HETATM   20  C   UNL     1     -10.268  10.421  65.265  1.00  0.00    -0.332 C  
HETATM   21  H   UNL     1     -10.906  10.374  62.709  1.00  0.00     0.000 HD 
BRANCH  20  22
HETATM   22  C   UNL     1     -10.682  11.589  66.141  1.00  0.00    -0.324 C  
HETATM   23  C   UNL     1     -10.884  12.858  65.740  1.00  0.00    -0.292 C  
BRANCH  23  24
HETATM   24  C   UNL     1     -11.242  14.044  66.609  1.00  0.00    -0.323 C  
HETATM   25  H   UNL     1     -12.852  15.087  67.013  1.00  0.00     0.000 HD 
HETATM   26  O   UNL     1     -12.628  14.342  66.467  1.00  0.00    -0.360 OA 
BRANCH  24  27
HETATM   27  C   UNL     1     -10.913  13.745  68.086  1.00  0.00    -0.246 C  
BRANCH  27  28
HETATM   28  O   UNL     1     -11.604  14.648  68.965  1.00  0.00    -0.268 OA 
BRANCH  28  29
HETATM   29  C   UNL     1     -12.237  14.035  70.017  1.00  0.00    -0.352 A  
HETATM   30  C   UNL     1     -13.100  14.686  70.902  1.00  0.00    -0.416 A  
HETATM   31  C   UNL     1     -13.713  13.978  71.939  1.00  0.00    -0.532 A  
HETATM   32  C   UNL     1     -13.472  12.615  72.090  1.00  0.00    -0.561 A  
HETATM   33  C   UNL     1     -12.623  11.940  71.205  1.00  0.00    -0.390 A  
HETATM   34  C   UNL     1     -12.361  10.463  71.368  1.00  0.00    -0.397 C  
HETATM   35  C   UNL     1     -12.018  12.661  70.159  1.00  0.00    -0.375 A  
HETATM   36  F   UNL     1     -12.985   9.920  72.454  1.00  0.00    -0.460 F  
HETATM   37  F   UNL     1     -11.038  10.181  71.525  1.00  0.00    -0.356 F  
HETATM   38  F   UNL     1     -12.779   9.733  70.299  1.00  0.00    -0.164 F  
ENDBRANCH  28  29
ENDBRANCH  27  28
ENDBRANCH  24  27
ENDBRANCH  23  24
ENDBRANCH  20  22
ENDBRANCH  12  13
ENDBRANCH  11  12
ENDBRANCH   9  10
ENDBRANCH   8   9
ENDBRANCH   7   8
ENDBRANCH   5   7
ENDBRANCH   4   5
ENDBRANCH   2   4
TORSDOF 13
ENDMDL
MODEL       61
REMARK 921   NORMALIZED FREE ENERGY PREDICTED BY IDOCK:   -6.31 KCAL/MOL
REMARK 922        TOTAL FREE ENERGY PREDICTED BY IDOCK:  -13.33 KCAL/MOL
REMARK 923 INTER-LIGAND FREE ENERGY PREDICTED BY IDOCK:  -10.47 KCAL/MOL
REMARK 924 INTRA-LIGAND FREE ENERGY PREDICTED BY IDOCK:   -2.86 KCAL/MOL
REMARK 927      BINDING AFFINITY PREDICTED BY RF-SCORE:    0.00 PKD
ROOT
HETATM    1  C   UNL     1      -8.021  16.682  66.249  1.00  0.00    -0.340 C  
HETATM    2  C   UNL     1      -9.478  16.288  66.465  1.00  0.00    -0.264 C  
HETATM    3  C   UNL     1      -9.939  16.672  67.867  1.00  0.00    -0.254 C  
ENDROOT
BRANCH   2   4
HETATM    4  O   UNL     1     -10.307  16.999  65.527  1.00  0.00    -0.585 OA 
BRANCH   4   5
HETATM    5  C   UNL     1     -11.156  16.216  64.803  1.00  0.00    -0.333 C  
HETATM    6  O   UNL     1     -11.688  16.543  63.751  1.00  0.00    -1.086 OA 
BRANCH   5   7
HETATM    7  C   UNL     1     -11.397  14.911  65.514  1.00  0.00    -0.339 C  
BRANCH   7   8
HETATM    8  C   UNL     1     -12.584  14.185  64.881  1.00  0.00    -0.362 C  
BRANCH   8   9
HETATM    9  C   UNL     1     -12.587  12.681  65.137  1.00  0.00    -0.459 C  
BRANCH   9  10
HETATM   10  C   UNL     1     -12.188  11.883  63.926  1.00  0.00    -0.497 C  
HETATM   11  C   UNL     1     -10.930  11.635  63.526  1.00  0.00    -0.485 C  
BRANCH  11  12
HETATM   12  C   UNL     1      -9.682  12.174  64.168  1.00  0.00    -0.089 C  
BRANCH  12  13
HETATM   13  C   UNL     1      -9.246  11.372  65.402  1.00  0.00    -0.167 C  
HETATM   14  C   UNL     1      -8.336  10.170  65.120  1.00  0.00    -0.161 C  
HETATM   15  O   UNL     1      -7.397  10.450  64.088  1.00  0.00    -0.284 OA 
HETATM   16  C   UNL     1      -7.576   9.970  66.426  1.00  0.00    -0.104 C  
HETATM   17  C   UNL     1      -7.273  11.392  66.891  1.00  0.00    -0.144 C  
HETATM   18  H   UNL     1      -6.833   9.705  63.914  1.00  0.00     0.000 HD 
HETATM   19  O   UNL     1      -6.061  11.849  66.283  1.00  0.00    -0.487 OA 
HETATM   20  C   UNL     1      -8.459  12.261  66.406  1.00  0.00     0.096 C  
HETATM   21  H   UNL     1      -5.873  12.735  66.571  1.00  0.00     0.000 HD 
BRANCH  20  22
HETATM   22  C   UNL     1      -9.409  12.789  67.466  1.00  0.00    -0.189 C  
HETATM   23  C   UNL     1     -10.209  12.054  68.261  1.00  0.00    -0.207 C  
BRANCH  23  24
HETATM   24  C   UNL     1     -11.201  12.566  69.282  1.00  0.00    -0.194 C  
HETATM   25  H   UNL     1     -12.784  13.722  69.282  1.00  0.00     0.000 HD 
HETATM   26  O   UNL     1     -12.161  13.400  68.641  1.00  0.00    -0.298 OA 
BRANCH  24  27
HETATM   27  C   UNL     1     -11.907  11.387  69.982  1.00  0.00    -0.359 C  
BRANCH  27  28
HETATM   28  O   UNL     1     -10.968  10.574  70.705  1.00  0.00    -0.237 OA 
BRANCH  28  29
HETATM   29  C   UNL     1     -11.161   9.224  70.556  1.00  0.00    -0.265 A  
HETATM   30  C   UNL     1     -11.966   8.448  71.395  1.00  0.00    -0.337 A  
HETATM   31  C   UNL     1     -12.116   7.079  71.160  1.00  0.00    -0.412 A  
HETATM   32  C   UNL     1     -11.468   6.481  70.081  1.00  0.00    -0.477 A  
HETATM   33  C   UNL     1     -10.669   7.243  69.221  1.00  0.00    -0.212 A  
HETATM   34  C   UNL     1      -9.965   6.596  68.054  1.00  0.00    -0.142 C  
HETATM   35  C   UNL     1     -10.531   8.623  69.462  1.00  0.00    -0.222 A  
HETATM   36  F   UNL     1     -10.162   5.248  67.983  1.00  0.00    -0.194 F  
HETATM   37  F   UNL     1      -8.615   6.769  68.095  1.00  0.00    -0.119 F  
HETATM   38  F   UNL     1     -10.372   7.092  66.853  1.00  0.00    -0.258 F  
ENDBRANCH  28  29
ENDBRANCH  27  28
ENDBRANCH  24  27
ENDBRANCH  23  24
ENDBRANCH  20  22
ENDBRANCH  12  13
ENDBRANCH  11  12
ENDBRANCH   9  10
ENDBRANCH   8   9
ENDBRANCH   7   8
ENDBRANCH   5   7
ENDBRANCH   4   5
ENDBRANCH   2   4
TORSDOF 13
ENDMDL
MODEL       62
REMARK 921   NORMALIZED FREE ENERGY PREDICTED BY IDOCK:   -6.30 KCAL/MOL
REMARK 922        TOTAL FREE ENERGY PREDICTED BY IDOCK:  -13.32 KCAL/MOL
REMARK 923 INTER-LIGAND FREE ENERGY PREDICTED BY IDOCK:   -9.62 KCAL/MOL
REMARK 924 INTRA-LIGAND FREE ENERGY PREDICTED BY IDOCK:   -3.69 KCAL/MOL
REMARK 927      BINDING AFFINITY PREDICTED BY RF-SCORE:    0.00 PKD
ROOT
HETATM    1  C   UNL     1      -6.417   5.791  67.809  1.00  0.00    -0.047 C  
HETATM    2  C   UNL     1      -7.682   5.690  66.965  1.00  0.00    -0.101 C  
HETATM    3  C   UNL     1      -7.356   5.193  65.560  1.00  0.00    -0.073 C  
ENDROOT
BRANCH   2   4
HETATM    4  O   UNL     1      -8.578   4.737  67.565  1.00  0.00    -0.104 OA 
BRANCH   4   5
HETATM    5  C   UNL     1      -9.902   5.047  67.458  1.00  0.00    -0.165 C  
HETATM    6  O   UNL     1     -10.589   4.857  66.463  1.00  0.00    -0.280 OA 
BRANCH   5   7
HETATM    7  C   UNL     1     -10.386   5.711  68.719  1.00  0.00    -0.288 C  
BRANCH   7   8
HETATM    8  C   UNL     1      -9.763   5.029  69.937  1.00  0.00    -0.266 C  
BRANCH   8   9
HETATM    9  C   UNL     1      -9.122   6.004  70.921  1.00  0.00    -0.161 C  
BRANCH   9  10
HETATM   10  C   UNL     1      -8.751   7.315  70.283  1.00  0.00    -0.147 C  
HETATM   11  C   UNL     1      -9.238   8.520  70.619  1.00  0.00    -0.189 C  
BRANCH  11  12
HETATM   12  C   UNL     1     -10.307   8.781  71.644  1.00  0.00    -0.391 C  
BRANCH  12  13
HETATM   13  C   UNL     1     -11.727   8.623  71.086  1.00  0.00    -0.334 C  
HETATM   14  C   UNL     1     -12.424   7.299  71.421  1.00  0.00    -0.383 C  
HETATM   15  O   UNL     1     -12.130   6.870  72.747  1.00  0.00    -0.485 OA 
HETATM   16  C   UNL     1     -13.909   7.633  71.338  1.00  0.00    -0.413 C  
HETATM   17  C   UNL     1     -14.003   9.022  71.963  1.00  0.00    -0.410 C  
HETATM   18  H   UNL     1     -12.562   6.049  72.954  1.00  0.00     0.000 HD 
HETATM   19  O   UNL     1     -14.133   8.904  73.383  1.00  0.00    -1.256 OA 
HETATM   20  C   UNL     1     -12.673   9.736  71.620  1.00  0.00    -0.517 C  
HETATM   21  H   UNL     1     -14.192   9.769  73.772  1.00  0.00     0.000 HD 
BRANCH  20  22
HETATM   22  C   UNL     1     -12.736  10.871  70.614  1.00  0.00    -0.396 C  
HETATM   23  C   UNL     1     -11.808  11.828  70.428  1.00  0.00    -0.362 C  
BRANCH  23  24
HETATM   24  C   UNL     1     -11.882  12.998  69.470  1.00  0.00    -0.323 C  
HETATM   25  H   UNL     1     -10.829  14.608  69.098  1.00  0.00     0.000 HD 
HETATM   26  O   UNL     1     -10.782  13.874  69.699  1.00  0.00    -0.026 OA 
BRANCH  24  27
HETATM   27  C   UNL     1     -11.866  12.497  68.012  1.00  0.00    -0.325 C  
BRANCH  27  28
HETATM   28  O   UNL     1     -10.528  12.466  67.487  1.00  0.00    -0.212 OA 
BRANCH  28  29
HETATM   29  C   UNL     1     -10.107  11.220  67.093  1.00  0.00    -0.192 A  
HETATM   30  C   UNL     1     -10.697  10.024  67.509  1.00  0.00    -0.339 A  
HETATM   31  C   UNL     1     -10.209   8.799  67.045  1.00  0.00    -0.351 A  
HETATM   32  C   UNL     1      -9.136   8.766  66.158  1.00  0.00    -0.251 A  
HETATM   33  C   UNL     1      -8.541   9.955  65.717  1.00  0.00    -0.151 A  
HETATM   34  C   UNL     1      -7.378   9.920  64.757  1.00  0.00    -0.136 C  
HETATM   35  C   UNL     1      -9.045  11.183  66.184  1.00  0.00    -0.214 A  
HETATM   36  F   UNL     1      -6.979   8.656  64.435  1.00  0.00    -0.078 F  
HETATM   37  F   UNL     1      -6.271  10.539  65.254  1.00  0.00    -0.109 F  
HETATM   38  F   UNL     1      -7.653  10.533  63.574  1.00  0.00    -0.145 F  
ENDBRANCH  28  29
ENDBRANCH  27  28
ENDBRANCH  24  27
ENDBRANCH  23  24
ENDBRANCH  20  22
ENDBRANCH  12  13
ENDBRANCH  11  12
ENDBRANCH   9  10
ENDBRANCH   8   9
ENDBRANCH   7   8
ENDBRANCH   5   7
ENDBRANCH   4   5
ENDBRANCH   2   4
TORSDOF 13
ENDMDL
MODEL       63
REMARK 921   NORMALIZED FREE ENERGY PREDICTED BY IDOCK:   -6.29 KCAL/MOL
REMARK 922        TOTAL FREE ENERGY PREDICTED BY IDOCK:  -13.29 KCAL/MOL
REMARK 923 INTER-LIGAND FREE ENERGY PREDICTED BY IDOCK:  -10.45 KCAL/MOL
REMARK 924 INTRA-LIGAND FREE ENERGY PREDICTED BY IDOCK:   -2.84 KCAL/MOL
REMARK 927      BINDING AFFINITY PREDICTED BY RF-SCORE:    0.00 PKD
ROOT
HETATM    1  C   UNL     1      -5.171  10.179  68.011  1.00  0.00    -0.035 C  
HETATM    2  C   UNL     1      -6.395   9.270  67.986  1.00  0.00    -0.054 C  
HETATM    3  C   UNL     1      -6.142   8.049  67.107  1.00  0.00    -0.054 C  
ENDROOT
BRANCH   2   4
HETATM    4  O   UNL     1      -6.663   8.797  69.318  1.00  0.00    -0.048 OA 
BRANCH   4   5
HETATM    5  C   UNL     1      -7.230   9.716  70.150  1.00  0.00    -0.128 C  
HETATM    6  O   UNL     1      -6.656  10.273  71.076  1.00  0.00    -0.337 OA 
BRANCH   5   7
HETATM    7  C   UNL     1      -8.683   9.905  69.805  1.00  0.00    -0.229 C  
BRANCH   7   8
HETATM    8  C   UNL     1      -9.423   8.572  69.923  1.00  0.00    -0.163 C  
BRANCH   8   9
HETATM    9  C   UNL     1     -10.524   8.392  68.882  1.00  0.00    -0.208 C  
BRANCH   9  10
HETATM   10  C   UNL     1     -10.004   8.433  67.471  1.00  0.00    -0.259 C  
HETATM   11  C   UNL     1     -10.144   9.453  66.609  1.00  0.00    -0.332 C  
BRANCH  11  12
HETATM   12  C   UNL     1     -10.915  10.719  66.865  1.00  0.00    -0.255 C  
BRANCH  12  13
HETATM   13  C   UNL     1     -10.407  11.910  66.042  1.00  0.00    -0.268 C  
HETATM   14  C   UNL     1     -10.313  11.674  64.529  1.00  0.00    -0.300 C  
HETATM   15  O   UNL     1     -11.401  10.891  64.049  1.00  0.00    -0.218 OA 
HETATM   16  C   UNL     1     -10.420  13.072  63.932  1.00  0.00    -0.241 C  
HETATM   17  C   UNL     1     -11.479  13.755  64.793  1.00  0.00    -0.356 C  
HETATM   18  H   UNL     1     -11.342  10.746  63.112  1.00  0.00     0.000 HD 
HETATM   19  O   UNL     1     -12.782  13.460  64.279  1.00  0.00    -0.644 OA 
HETATM   20  C   UNL     1     -11.330  13.150  66.211  1.00  0.00    -0.348 C  
HETATM   21  H   UNL     1     -13.441  13.885  64.816  1.00  0.00     0.000 HD 
BRANCH  20  22
HETATM   22  C   UNL     1     -10.768  14.055  67.293  1.00  0.00    -0.278 C  
HETATM   23  C   UNL     1     -10.625  15.391  67.224  1.00  0.00    -0.294 C  
BRANCH  23  24
HETATM   24  C   UNL     1     -10.015  16.300  68.270  1.00  0.00    -0.236 C  
HETATM   25  H   UNL     1     -10.071  18.208  68.713  1.00  0.00     0.000 HD 
HETATM   26  O   UNL     1     -10.454  17.638  68.056  1.00  0.00    -0.366 OA 
BRANCH  24  27
HETATM   27  C   UNL     1     -10.414  15.831  69.684  1.00  0.00    -0.289 C  
BRANCH  27  28
HETATM   28  O   UNL     1     -11.794  16.125  69.959  1.00  0.00    -0.278 OA 
BRANCH  28  29
HETATM   29  C   UNL     1     -12.416  15.204  70.764  1.00  0.00    -0.372 A  
HETATM   30  C   UNL     1     -13.283  15.532  71.809  1.00  0.00    -0.567 A  
HETATM   31  C   UNL     1     -13.884  14.526  72.569  1.00  0.00    -0.555 A  
HETATM   32  C   UNL     1     -13.626  13.187  72.283  1.00  0.00    -0.677 A  
HETATM   33  C   UNL     1     -12.772  12.837  71.230  1.00  0.00    -0.364 A  
HETATM   34  C   UNL     1     -12.491  11.387  70.920  1.00  0.00    -0.379 C  
HETATM   35  C   UNL     1     -12.179  13.858  70.465  1.00  0.00    -0.443 A  
HETATM   36  F   UNL     1     -13.104  10.521  71.778  1.00  0.00    -0.456 F  
HETATM   37  F   UNL     1     -11.165  11.087  70.980  1.00  0.00    -0.153 F  
HETATM   38  F   UNL     1     -12.904  11.026  69.675  1.00  0.00    -0.265 F  
ENDBRANCH  28  29
ENDBRANCH  27  28
ENDBRANCH  24  27
ENDBRANCH  23  24
ENDBRANCH  20  22
ENDBRANCH  12  13
ENDBRANCH  11  12
ENDBRANCH   9  10
ENDBRANCH   8   9
ENDBRANCH   7   8
ENDBRANCH   5   7
ENDBRANCH   4   5
ENDBRANCH   2   4
TORSDOF 13
ENDMDL
MODEL       64
REMARK 921   NORMALIZED FREE ENERGY PREDICTED BY IDOCK:   -6.27 KCAL/MOL
REMARK 922        TOTAL FREE ENERGY PREDICTED BY IDOCK:  -13.26 KCAL/MOL
REMARK 923 INTER-LIGAND FREE ENERGY PREDICTED BY IDOCK:  -11.36 KCAL/MOL
REMARK 924 INTRA-LIGAND FREE ENERGY PREDICTED BY IDOCK:   -1.90 KCAL/MOL
REMARK 927      BINDING AFFINITY PREDICTED BY RF-SCORE:    0.00 PKD
ROOT
HETATM    1  C   UNL     1      -8.082  19.258  66.418  1.00  0.00    -0.327 C  
HETATM    2  C   UNL     1      -9.500  18.884  66.836  1.00  0.00    -0.317 C  
HETATM    3  C   UNL     1     -10.133  20.003  67.657  1.00  0.00    -0.562 C  
ENDROOT
BRANCH   2   4
HETATM    4  O   UNL     1     -10.308  18.697  65.661  1.00  0.00    -0.572 OA 
BRANCH   4   5
HETATM    5  C   UNL     1     -10.754  17.424  65.467  1.00  0.00    -0.078 C  
HETATM    6  O   UNL     1     -11.132  16.967  64.397  1.00  0.00    -1.128 OA 
BRANCH   5   7
HETATM    7  C   UNL     1     -10.774  16.674  66.773  1.00  0.00    -0.133 C  
BRANCH   7   8
HETATM    8  C   UNL     1     -10.639  15.173  66.511  1.00  0.00    -0.304 C  
BRANCH   8   9
HETATM    9  C   UNL     1     -11.926  14.393  66.761  1.00  0.00    -0.423 C  
BRANCH   9  10
HETATM   10  C   UNL     1     -12.599  13.956  65.488  1.00  0.00    -0.560 C  
HETATM   11  C   UNL     1     -12.006  13.335  64.456  1.00  0.00    -0.449 C  
BRANCH  11  12
HETATM   12  C   UNL     1     -10.538  13.025  64.344  1.00  0.00    -0.429 C  
BRANCH  12  13
HETATM   13  C   UNL     1     -10.182  11.613  64.830  1.00  0.00    -0.321 C  
HETATM   14  C   UNL     1      -9.737  10.633  63.739  1.00  0.00    -0.327 C  
HETATM   15  O   UNL     1      -8.929  11.270  62.755  1.00  0.00    -0.406 OA 
HETATM   16  C   UNL     1      -8.882   9.615  64.485  1.00  0.00    -0.257 C  
HETATM   17  C   UNL     1      -8.092  10.464  65.477  1.00  0.00    -0.156 C  
HETATM   18  H   UNL     1      -8.653  10.662  62.079  1.00  0.00     0.000 HD 
HETATM   19  O   UNL     1      -6.907  10.964  64.847  1.00  0.00    -0.350 OA 
HETATM   20  C   UNL     1      -9.016  11.646  65.858  1.00  0.00    -0.111 C  
HETATM   21  H   UNL     1      -6.416  11.493  65.465  1.00  0.00     0.000 HD 
BRANCH  20  22
HETATM   22  C   UNL     1      -9.584  11.653  67.266  1.00  0.00    -0.182 C  
HETATM   23  C   UNL     1     -10.648  10.954  67.704  1.00  0.00    -0.263 C  
BRANCH  23  24
HETATM   24  C   UNL     1     -11.259  10.993  69.087  1.00  0.00    -0.255 C  
HETATM   25  H   UNL     1     -13.041  10.755  69.870  1.00  0.00     0.000 HD 
HETATM   26  O   UNL     1     -12.657  10.730  69.001  1.00  0.00    -0.303 OA 
BRANCH  24  27
HETATM   27  C   UNL     1     -10.580   9.955  70.003  1.00  0.00    -0.288 C  
BRANCH  27  28
HETATM   28  O   UNL     1     -11.521   8.968  70.457  1.00  0.00    -0.259 OA 
BRANCH  28  29
HETATM   29  C   UNL     1     -11.075   7.674  70.351  1.00  0.00    -0.258 A  
HETATM   30  C   UNL     1     -10.585   7.105  69.173  1.00  0.00    -0.227 A  
HETATM   31  C   UNL     1     -10.139   5.782  69.162  1.00  0.00    -0.257 A  
HETATM   32  C   UNL     1     -10.173   5.024  70.330  1.00  0.00    -0.328 A  
HETATM   33  C   UNL     1     -10.646   5.580  71.524  1.00  0.00    -0.302 A  
HETATM   34  C   UNL     1     -10.685   4.759  72.790  1.00  0.00    -0.217 C  
HETATM   35  C   UNL     1     -11.085   6.916  71.527  1.00  0.00    -0.276 A  
HETATM   36  F   UNL     1     -10.269   3.472  72.613  1.00  0.00    -0.202 F  
HETATM   37  F   UNL     1     -11.937   4.671  73.319  1.00  0.00    -0.391 F  
HETATM   38  F   UNL     1      -9.895   5.270  73.773  1.00  0.00    -0.143 F  
ENDBRANCH  28  29
ENDBRANCH  27  28
ENDBRANCH  24  27
ENDBRANCH  23  24
ENDBRANCH  20  22
ENDBRANCH  12  13
ENDBRANCH  11  12
ENDBRANCH   9  10
ENDBRANCH   8   9
ENDBRANCH   7   8
ENDBRANCH   5   7
ENDBRANCH   4   5
ENDBRANCH   2   4
TORSDOF 13
ENDMDL
MODEL       65
REMARK 921   NORMALIZED FREE ENERGY PREDICTED BY IDOCK:   -6.27 KCAL/MOL
REMARK 922        TOTAL FREE ENERGY PREDICTED BY IDOCK:  -13.25 KCAL/MOL
REMARK 923 INTER-LIGAND FREE ENERGY PREDICTED BY IDOCK:  -11.73 KCAL/MOL
REMARK 924 INTRA-LIGAND FREE ENERGY PREDICTED BY IDOCK:   -1.52 KCAL/MOL
REMARK 927      BINDING AFFINITY PREDICTED BY RF-SCORE:    0.00 PKD
ROOT
HETATM    1  C   UNL     1      -6.729  21.027  67.377  1.00  0.00    -0.446 C  
HETATM    2  C   UNL     1      -7.672  19.846  67.579  1.00  0.00    -0.287 C  
HETATM    3  C   UNL     1      -7.254  19.023  68.793  1.00  0.00    -0.358 C  
ENDROOT
BRANCH   2   4
HETATM    4  O   UNL     1      -9.002  20.337  67.824  1.00  0.00    -0.311 OA 
BRANCH   4   5
HETATM    5  C   UNL     1      -9.938  19.936  66.918  1.00  0.00    -0.435 C  
HETATM    6  O   UNL     1     -10.039  20.365  65.777  1.00  0.00    -0.313 OA 
BRANCH   5   7
HETATM    7  C   UNL     1     -10.871  18.931  67.540  1.00  0.00    -0.440 C  
BRANCH   7   8
HETATM    8  C   UNL     1     -10.568  17.535  66.996  1.00  0.00    -0.245 C  
BRANCH   8   9
HETATM    9  C   UNL     1     -10.173  16.532  68.076  1.00  0.00    -0.271 C  
BRANCH   9  10
HETATM   10  C   UNL     1     -11.263  15.538  68.374  1.00  0.00    -0.341 C  
HETATM   11  C   UNL     1     -11.447  14.361  67.756  1.00  0.00    -0.360 C  
BRANCH  11  12
HETATM   12  C   UNL     1     -10.644  13.845  66.593  1.00  0.00    -0.274 C  
BRANCH  12  13
HETATM   13  C   UNL     1     -11.385  12.779  65.776  1.00  0.00    -0.357 C  
HETATM   14  C   UNL     1     -12.273  13.313  64.645  1.00  0.00    -0.407 C  
HETATM   15  O   UNL     1     -11.675  14.424  63.986  1.00  0.00    -0.644 OA 
HETATM   16  C   UNL     1     -12.354  12.152  63.661  1.00  0.00    -0.673 C  
HETATM   17  C   UNL     1     -10.941  11.575  63.663  1.00  0.00    -0.404 C  
HETATM   18  H   UNL     1     -12.225  14.755  63.285  1.00  0.00     0.000 HD 
HETATM   19  O   UNL     1     -10.130  12.285  62.722  1.00  0.00    -0.366 OA 
HETATM   20  C   UNL     1     -10.392  11.796  65.094  1.00  0.00    -0.323 C  
HETATM   21  H   UNL     1      -9.250  11.927  62.723  1.00  0.00     0.000 HD 
BRANCH  20  22
HETATM   22  C   UNL     1     -10.219  10.565  65.966  1.00  0.00    -0.310 C  
HETATM   23  C   UNL     1      -9.681   9.390  65.593  1.00  0.00    -0.336 C  
BRANCH  23  24
HETATM   24  C   UNL     1      -9.553   8.137  66.432  1.00  0.00    -0.216 C  
HETATM   25  H   UNL     1      -8.305   7.434  67.770  1.00  0.00     0.000 HD 
HETATM   26  O   UNL     1      -8.386   8.221  67.243  1.00  0.00    -0.122 OA 
BRANCH  24  27
HETATM   27  C   UNL     1     -10.802   7.956  67.318  1.00  0.00    -0.119 C  
BRANCH  27  28
HETATM   28  O   UNL     1     -10.972   6.581  67.702  1.00  0.00    -0.304 OA 
BRANCH  28  29
HETATM   29  C   UNL     1     -10.747   6.337  69.034  1.00  0.00    -0.302 A  
HETATM   30  C   UNL     1     -10.159   5.171  69.530  1.00  0.00    -0.316 A  
HETATM   31  C   UNL     1      -9.956   5.013  70.904  1.00  0.00    -0.286 A  
HETATM   32  C   UNL     1     -10.333   6.023  71.786  1.00  0.00    -0.259 A  
HETATM   33  C   UNL     1     -10.910   7.206  71.307  1.00  0.00    -0.254 A  
HETATM   34  C   UNL     1     -11.320   8.300  72.261  1.00  0.00    -0.378 C  
HETATM   35  C   UNL     1     -11.102   7.358  69.922  1.00  0.00    -0.208 A  
HETATM   36  F   UNL     1     -11.110   7.982  73.572  1.00  0.00    -0.321 F  
HETATM   37  F   UNL     1     -12.643   8.609  72.166  1.00  0.00    -0.342 F  
HETATM   38  F   UNL     1     -10.645   9.463  72.051  1.00  0.00    -0.399 F  
ENDBRANCH  28  29
ENDBRANCH  27  28
ENDBRANCH  24  27
ENDBRANCH  23  24
ENDBRANCH  20  22
ENDBRANCH  12  13
ENDBRANCH  11  12
ENDBRANCH   9  10
ENDBRANCH   8   9
ENDBRANCH   7   8
ENDBRANCH   5   7
ENDBRANCH   4   5
ENDBRANCH   2   4
TORSDOF 13
ENDMDL
MODEL       66
REMARK 921   NORMALIZED FREE ENERGY PREDICTED BY IDOCK:   -6.26 KCAL/MOL
REMARK 922        TOTAL FREE ENERGY PREDICTED BY IDOCK:  -13.24 KCAL/MOL
REMARK 923 INTER-LIGAND FREE ENERGY PREDICTED BY IDOCK:  -10.85 KCAL/MOL
REMARK 924 INTRA-LIGAND FREE ENERGY PREDICTED BY IDOCK:   -2.38 KCAL/MOL
REMARK 927      BINDING AFFINITY PREDICTED BY RF-SCORE:    0.00 PKD
ROOT
HETATM    1  C   UNL     1     -12.497  11.850  63.510  1.00  0.00    -0.609 C  
HETATM    2  C   UNL     1     -11.072  12.070  64.006  1.00  0.00    -0.386 C  
HETATM    3  C   UNL     1     -10.816  13.550  64.274  1.00  0.00    -0.340 C  
ENDROOT
BRANCH   2   4
HETATM    4  O   UNL     1     -10.887  11.367  65.248  1.00  0.00    -0.284 OA 
BRANCH   4   5
HETATM    5  C   UNL     1     -10.118  10.245  65.163  1.00  0.00    -0.285 C  
HETATM    6  O   UNL     1      -9.525   9.874  64.158  1.00  0.00    -0.280 OA 
BRANCH   5   7
HETATM    7  C   UNL     1     -10.148   9.491  66.466  1.00  0.00    -0.326 C  
BRANCH   7   8
HETATM    8  C   UNL     1      -9.000   8.483  66.509  1.00  0.00    -0.194 C  
BRANCH   8   9
HETATM    9  C   UNL     1      -9.277   7.281  67.407  1.00  0.00    -0.140 C  
BRANCH   9  10
HETATM   10  C   UNL     1     -10.739   6.937  67.486  1.00  0.00    -0.368 C  
HETATM   11  C   UNL     1     -11.366   6.397  68.543  1.00  0.00    -0.187 C  
BRANCH  11  12
HETATM   12  C   UNL     1     -10.710   5.962  69.825  1.00  0.00    -0.411 C  
BRANCH  12  13
HETATM   13  C   UNL     1     -11.089   6.842  71.023  1.00  0.00    -0.305 C  
HETATM   14  C   UNL     1     -11.062   6.145  72.389  1.00  0.00    -0.275 C  
HETATM   15  O   UNL     1      -9.975   5.232  72.493  1.00  0.00    -0.163 OA 
HETATM   16  C   UNL     1     -10.838   7.282  73.378  1.00  0.00    -0.370 C  
HETATM   17  C   UNL     1      -9.828   8.182  72.674  1.00  0.00    -0.294 C  
HETATM   18  H   UNL     1      -9.959   4.800  73.340  1.00  0.00     0.000 HD 
HETATM   19  O   UNL     1      -8.500   7.719  72.942  1.00  0.00    -0.127 OA 
HETATM   20  C   UNL     1     -10.127   8.057  71.160  1.00  0.00    -0.221 C  
HETATM   21  H   UNL     1      -7.871   8.279  72.502  1.00  0.00     0.000 HD 
BRANCH  20  22
HETATM   22  C   UNL     1     -10.738   9.265  70.473  1.00  0.00    -0.313 C  
HETATM   23  C   UNL     1     -11.696  10.069  70.971  1.00  0.00    -0.479 C  
BRANCH  23  24
HETATM   24  C   UNL     1     -12.354  11.242  70.277  1.00  0.00    -0.307 C  
HETATM   25  H   UNL     1     -13.285  12.881  70.815  1.00  0.00     0.000 HD 
HETATM   26  O   UNL     1     -12.871  12.145  71.250  1.00  0.00    -0.358 OA 
BRANCH  24  27
HETATM   27  C   UNL     1     -11.339  11.966  69.369  1.00  0.00    -0.261 C  
BRANCH  27  28
HETATM   28  O   UNL     1     -11.996  12.902  68.498  1.00  0.00    -0.309 OA 
BRANCH  28  29
HETATM   29  C   UNL     1     -11.544  14.192  68.614  1.00  0.00    -0.317 A  
HETATM   30  C   UNL     1     -11.500  14.905  69.815  1.00  0.00    -0.328 A  
HETATM   31  C   UNL     1     -11.010  16.213  69.841  1.00  0.00    -0.362 A  
HETATM   32  C   UNL     1     -10.555  16.811  68.668  1.00  0.00    -0.353 A  
HETATM   33  C   UNL     1     -10.577  16.109  67.457  1.00  0.00    -0.314 A  
HETATM   34  C   UNL     1     -10.085  16.757  66.186  1.00  0.00    -0.345 C  
HETATM   35  C   UNL     1     -11.064  14.790  67.444  1.00  0.00    -0.327 A  
HETATM   36  F   UNL     1      -9.688  18.051  66.357  1.00  0.00    -0.292 F  
HETATM   37  F   UNL     1     -11.038  16.790  65.214  1.00  0.00    -0.295 F  
HETATM   38  F   UNL     1      -9.017  16.111  65.645  1.00  0.00    -0.329 F  
ENDBRANCH  28  29
ENDBRANCH  27  28
ENDBRANCH  24  27
ENDBRANCH  23  24
ENDBRANCH  20  22
ENDBRANCH  12  13
ENDBRANCH  11  12
ENDBRANCH   9  10
ENDBRANCH   8   9
ENDBRANCH   7   8
ENDBRANCH   5   7
ENDBRANCH   4   5
ENDBRANCH   2   4
TORSDOF 13
ENDMDL
MODEL       67
REMARK 921   NORMALIZED FREE ENERGY PREDICTED BY IDOCK:   -6.25 KCAL/MOL
REMARK 922        TOTAL FREE ENERGY PREDICTED BY IDOCK:  -13.22 KCAL/MOL
REMARK 923 INTER-LIGAND FREE ENERGY PREDICTED BY IDOCK:  -11.00 KCAL/MOL
REMARK 924 INTRA-LIGAND FREE ENERGY PREDICTED BY IDOCK:   -2.21 KCAL/MOL
REMARK 927      BINDING AFFINITY PREDICTED BY RF-SCORE:    0.00 PKD
ROOT
HETATM    1  C   UNL     1     -14.295  15.193  71.580  1.00  0.00    -0.685 C  
HETATM    2  C   UNL     1     -12.944  14.778  71.009  1.00  0.00    -0.363 C  
HETATM    3  C   UNL     1     -11.938  15.920  71.117  1.00  0.00    -0.472 C  
ENDROOT
BRANCH   2   4
HETATM    4  O   UNL     1     -12.426  13.671  71.769  1.00  0.00    -0.240 OA 
BRANCH   4   5
HETATM    5  C   UNL     1     -12.465  12.468  71.130  1.00  0.00    -0.223 C  
HETATM    6  O   UNL     1     -11.980  12.242  70.029  1.00  0.00    -0.327 OA 
BRANCH   5   7
HETATM    7  C   UNL     1     -13.242  11.469  71.944  1.00  0.00    -0.479 C  
BRANCH   7   8
HETATM    8  C   UNL     1     -13.123  10.081  71.315  1.00  0.00    -0.493 C  
BRANCH   8   9
HETATM    9  C   UNL     1     -13.911   9.005  72.057  1.00  0.00    -0.501 C  
BRANCH   9  10
HETATM   10  C   UNL     1     -13.582   7.614  71.588  1.00  0.00    -0.431 C  
HETATM   11  C   UNL     1     -12.423   6.967  71.792  1.00  0.00    -0.397 C  
BRANCH  11  12
HETATM   12  C   UNL     1     -11.205   7.538  72.462  1.00  0.00    -0.381 C  
BRANCH  12  13
HETATM   13  C   UNL     1      -9.941   7.440  71.598  1.00  0.00    -0.193 C  
HETATM   14  C   UNL     1      -8.958   6.330  71.989  1.00  0.00    -0.142 C  
HETATM   15  O   UNL     1      -9.636   5.145  72.394  1.00  0.00    -0.146 OA 
HETATM   16  C   UNL     1      -8.199   6.038  70.700  1.00  0.00    -0.120 C  
HETATM   17  C   UNL     1      -9.275   6.114  69.621  1.00  0.00    -0.143 C  
HETATM   18  H   UNL     1      -9.027   4.456  72.636  1.00  0.00     0.000 HD 
HETATM   19  O   UNL     1      -9.924   4.844  69.498  1.00  0.00    -0.200 OA 
HETATM   20  C   UNL     1     -10.294   7.174  70.107  1.00  0.00    -0.218 C  
HETATM   21  H   UNL     1     -10.595   4.892  68.826  1.00  0.00     0.000 HD 
BRANCH  20  22
HETATM   22  C   UNL     1     -10.333   8.492  69.354  1.00  0.00    -0.218 C  
HETATM   23  C   UNL     1      -9.466   8.899  68.409  1.00  0.00    -0.147 C  
BRANCH  23  24
HETATM   24  C   UNL     1      -9.458  10.231  67.690  1.00  0.00    -0.151 C  
HETATM   25  H   UNL     1      -8.191  11.264  66.609  1.00  0.00     0.000 HD 
HETATM   26  O   UNL     1      -8.196  10.428  67.060  1.00  0.00    -0.121 OA 
BRANCH  24  27
HETATM   27  C   UNL     1     -10.587  10.280  66.640  1.00  0.00    -0.162 C  
BRANCH  27  28
HETATM   28  O   UNL     1     -11.583  11.254  66.993  1.00  0.00    -0.496 OA 
BRANCH  28  29
HETATM   29  C   UNL     1     -11.554  12.391  66.225  1.00  0.00    -0.393 A  
HETATM   30  C   UNL     1     -11.995  12.456  64.901  1.00  0.00    -0.458 A  
HETATM   31  C   UNL     1     -11.941  13.663  64.198  1.00  0.00    -0.488 A  
HETATM   32  C   UNL     1     -11.453  14.811  64.819  1.00  0.00    -0.410 A  
HETATM   33  C   UNL     1     -11.021  14.770  66.150  1.00  0.00    -0.332 A  
HETATM   34  C   UNL     1     -10.492  16.012  66.823  1.00  0.00    -0.308 C  
HETATM   35  C   UNL     1     -11.088  13.552  66.851  1.00  0.00    -0.309 A  
HETATM   36  F   UNL     1     -10.450  17.098  65.998  1.00  0.00    -0.322 F  
HETATM   37  F   UNL     1      -9.222  15.855  67.289  1.00  0.00    -0.197 F  
HETATM   38  F   UNL     1     -11.242  16.391  67.893  1.00  0.00    -0.336 F  
ENDBRANCH  28  29
ENDBRANCH  27  28
ENDBRANCH  24  27
ENDBRANCH  23  24
ENDBRANCH  20  22
ENDBRANCH  12  13
ENDBRANCH  11  12
ENDBRANCH   9  10
ENDBRANCH   8   9
ENDBRANCH   7   8
ENDBRANCH   5   7
ENDBRANCH   4   5
ENDBRANCH   2   4
TORSDOF 13
ENDMDL
MODEL       68
REMARK 921   NORMALIZED FREE ENERGY PREDICTED BY IDOCK:   -6.24 KCAL/MOL
REMARK 922        TOTAL FREE ENERGY PREDICTED BY IDOCK:  -13.21 KCAL/MOL
REMARK 923 INTER-LIGAND FREE ENERGY PREDICTED BY IDOCK:  -10.88 KCAL/MOL
REMARK 924 INTRA-LIGAND FREE ENERGY PREDICTED BY IDOCK:   -2.33 KCAL/MOL
REMARK 927      BINDING AFFINITY PREDICTED BY RF-SCORE:    0.00 PKD
ROOT
HETATM    1  C   UNL     1      -9.996  10.109  65.134  1.00  0.00    -0.379 C  
HETATM    2  C   UNL     1     -10.066  11.071  63.954  1.00  0.00    -0.356 C  
HETATM    3  C   UNL     1      -9.484  10.429  62.698  1.00  0.00    -0.324 C  
ENDROOT
BRANCH   2   4
HETATM    4  O   UNL     1     -11.442  11.389  63.681  1.00  0.00    -0.364 OA 
BRANCH   4   5
HETATM    5  C   UNL     1     -11.951  12.417  64.418  1.00  0.00    -0.407 C  
HETATM    6  O   UNL     1     -13.108  12.496  64.806  1.00  0.00    -0.853 OA 
BRANCH   5   7
HETATM    7  C   UNL     1     -10.900  13.473  64.636  1.00  0.00    -0.416 C  
BRANCH   7   8
HETATM    8  C   UNL     1     -11.450  14.571  65.547  1.00  0.00    -0.343 C  
BRANCH   8   9
HETATM    9  C   UNL     1     -11.159  15.982  65.045  1.00  0.00    -0.345 C  
BRANCH   9  10
HETATM   10  C   UNL     1     -10.607  16.881  66.118  1.00  0.00    -0.195 C  
HETATM   11  C   UNL     1      -9.359  16.843  66.612  1.00  0.00    -0.278 C  
BRANCH  11  12
HETATM   12  C   UNL     1      -8.298  15.843  66.242  1.00  0.00    -0.235 C  
BRANCH  12  13
HETATM   13  C   UNL     1      -7.926  14.905  67.397  1.00  0.00    -0.223 C  
HETATM   14  C   UNL     1      -6.437  14.559  67.513  1.00  0.00    -0.045 C  
HETATM   15  O   UNL     1      -5.611  15.680  67.214  1.00  0.00    -0.332 OA 
HETATM   16  C   UNL     1      -6.255  14.202  68.984  1.00  0.00    -0.094 C  
HETATM   17  C   UNL     1      -7.125  15.220  69.715  1.00  0.00    -0.154 C  
HETATM   18  H   UNL     1      -4.688  15.465  67.286  1.00  0.00     0.000 HD 
HETATM   19  O   UNL     1      -6.378  16.420  69.939  1.00  0.00    -0.204 OA 
HETATM   20  C   UNL     1      -8.317  15.517  68.772  1.00  0.00    -0.187 C  
HETATM   21  H   UNL     1      -6.920  17.054  70.393  1.00  0.00     0.000 HD 
BRANCH  20  22
HETATM   22  C   UNL     1      -9.678  14.991  69.191  1.00  0.00    -0.212 C  
HETATM   23  C   UNL     1     -10.470  15.498  70.155  1.00  0.00    -0.317 C  
BRANCH  23  24
HETATM   24  C   UNL     1     -11.802  14.952  70.623  1.00  0.00    -0.301 C  
HETATM   25  H   UNL     1     -13.642  15.610  70.774  1.00  0.00     0.000 HD 
HETATM   26  O   UNL     1     -12.805  15.953  70.480  1.00  0.00    -0.422 OA 
BRANCH  24  27
HETATM   27  C   UNL     1     -12.183  13.699  69.809  1.00  0.00    -0.291 C  
BRANCH  27  28
HETATM   28  O   UNL     1     -12.476  12.588  70.672  1.00  0.00    -0.319 OA 
BRANCH  28  29
HETATM   29  C   UNL     1     -11.843  11.422  70.322  1.00  0.00    -0.350 A  
HETATM   30  C   UNL     1     -10.922  11.310  69.277  1.00  0.00    -0.297 A  
HETATM   31  C   UNL     1     -10.316  10.082  68.999  1.00  0.00    -0.223 A  
HETATM   32  C   UNL     1     -10.621   8.963  69.770  1.00  0.00    -0.230 A  
HETATM   33  C   UNL     1     -11.530   9.057  70.831  1.00  0.00    -0.347 A  
HETATM   34  C   UNL     1     -11.862   7.845  71.666  1.00  0.00    -0.288 C  
HETATM   35  C   UNL     1     -12.128  10.300  71.107  1.00  0.00    -0.494 A  
HETATM   36  F   UNL     1     -11.235   6.709  71.245  1.00  0.00    -0.271 F  
HETATM   37  F   UNL     1     -13.192   7.555  71.661  1.00  0.00    -0.340 F  
HETATM   38  F   UNL     1     -11.515   7.995  72.974  1.00  0.00    -0.446 F  
ENDBRANCH  28  29
ENDBRANCH  27  28
ENDBRANCH  24  27
ENDBRANCH  23  24
ENDBRANCH  20  22
ENDBRANCH  12  13
ENDBRANCH  11  12
ENDBRANCH   9  10
ENDBRANCH   8   9
ENDBRANCH   7   8
ENDBRANCH   5   7
ENDBRANCH   4   5
ENDBRANCH   2   4
TORSDOF 13
ENDMDL
MODEL       69
REMARK 921   NORMALIZED FREE ENERGY PREDICTED BY IDOCK:   -6.24 KCAL/MOL
REMARK 922        TOTAL FREE ENERGY PREDICTED BY IDOCK:  -13.21 KCAL/MOL
REMARK 923 INTER-LIGAND FREE ENERGY PREDICTED BY IDOCK:  -11.33 KCAL/MOL
REMARK 924 INTRA-LIGAND FREE ENERGY PREDICTED BY IDOCK:   -1.87 KCAL/MOL
REMARK 927      BINDING AFFINITY PREDICTED BY RF-SCORE:    0.00 PKD
ROOT
HETATM    1  C   UNL     1      -6.601   5.133  67.290  1.00  0.00    -0.053 C  
HETATM    2  C   UNL     1      -7.791   4.771  66.409  1.00  0.00    -0.099 C  
HETATM    3  C   UNL     1      -7.422   3.657  65.433  1.00  0.00    -0.077 C  
ENDROOT
BRANCH   2   4
HETATM    4  O   UNL     1      -8.864   4.284  67.235  1.00  0.00    -0.107 OA 
BRANCH   4   5
HETATM    5  C   UNL     1     -10.059   4.916  67.054  1.00  0.00    -0.205 C  
HETATM    6  O   UNL     1     -10.770   4.803  66.065  1.00  0.00    -0.319 OA 
BRANCH   5   7
HETATM    7  C   UNL     1     -10.354   5.820  68.222  1.00  0.00    -0.265 C  
BRANCH   7   8
HETATM    8  C   UNL     1     -10.309   5.019  69.523  1.00  0.00    -0.231 C  
BRANCH   8   9
HETATM    9  C   UNL     1      -9.223   5.484  70.489  1.00  0.00    -0.179 C  
BRANCH   9  10
HETATM   10  C   UNL     1      -8.668   6.837  70.133  1.00  0.00    -0.141 C  
HETATM   11  C   UNL     1      -9.009   8.003  70.704  1.00  0.00    -0.148 C  
BRANCH  11  12
HETATM   12  C   UNL     1     -10.069   8.190  71.754  1.00  0.00    -0.267 C  
BRANCH  12  13
HETATM   13  C   UNL     1     -11.480   8.326  71.167  1.00  0.00    -0.307 C  
HETATM   14  C   UNL     1     -12.424   7.148  71.439  1.00  0.00    -0.388 C  
HETATM   15  O   UNL     1     -12.248   6.624  72.751  1.00  0.00    -0.461 OA 
HETATM   16  C   UNL     1     -13.816   7.763  71.346  1.00  0.00    -0.384 C  
HETATM   17  C   UNL     1     -13.659   9.121  72.023  1.00  0.00    -0.459 C  
HETATM   18  H   UNL     1     -12.833   5.894  72.919  1.00  0.00     0.000 HD 
HETATM   19  O   UNL     1     -13.842   8.980  73.435  1.00  0.00    -1.173 OA 
HETATM   20  C   UNL     1     -12.209   9.579  71.729  1.00  0.00    -0.465 C  
HETATM   21  H   UNL     1     -13.744   9.825  73.857  1.00  0.00     0.000 HD 
BRANCH  20  22
HETATM   22  C   UNL     1     -12.032  10.741  70.768  1.00  0.00    -0.464 C  
HETATM   23  C   UNL     1     -11.502  10.683  69.532  1.00  0.00    -0.360 C  
BRANCH  23  24
HETATM   24  C   UNL     1     -11.267  11.839  68.585  1.00  0.00    -0.257 C  
HETATM   25  H   UNL     1     -11.959  12.426  66.847  1.00  0.00     0.000 HD 
HETATM   26  O   UNL     1     -12.106  11.701  67.442  1.00  0.00    -0.605 OA 
BRANCH  24  27
HETATM   27  C   UNL     1     -11.553  13.179  69.293  1.00  0.00    -0.314 C  
BRANCH  27  28
HETATM   28  O   UNL     1     -11.940  14.192  68.350  1.00  0.00    -0.347 OA 
BRANCH  28  29
HETATM   29  C   UNL     1     -10.895  14.937  67.863  1.00  0.00    -0.276 A  
HETATM   30  C   UNL     1      -9.850  14.416  67.096  1.00  0.00    -0.254 A  
HETATM   31  C   UNL     1      -8.833  15.252  66.629  1.00  0.00    -0.328 A  
HETATM   32  C   UNL     1      -8.860  16.614  66.921  1.00  0.00    -0.235 A  
HETATM   33  C   UNL     1      -9.907  17.158  67.675  1.00  0.00    -0.270 A  
HETATM   34  C   UNL     1      -9.937  18.633  67.992  1.00  0.00    -0.351 C  
HETATM   35  C   UNL     1     -10.931  16.309  68.133  1.00  0.00    -0.343 A  
HETATM   36  F   UNL     1      -8.853  19.311  67.517  1.00  0.00    -0.302 F  
HETATM   37  F   UNL     1      -9.967  18.880  69.331  1.00  0.00    -0.365 F  
HETATM   38  F   UNL     1     -11.024  19.262  67.469  1.00  0.00    -0.531 F  
ENDBRANCH  28  29
ENDBRANCH  27  28
ENDBRANCH  24  27
ENDBRANCH  23  24
ENDBRANCH  20  22
ENDBRANCH  12  13
ENDBRANCH  11  12
ENDBRANCH   9  10
ENDBRANCH   8   9
ENDBRANCH   7   8
ENDBRANCH   5   7
ENDBRANCH   4   5
ENDBRANCH   2   4
TORSDOF 13
ENDMDL
MODEL       70
REMARK 921   NORMALIZED FREE ENERGY PREDICTED BY IDOCK:   -6.23 KCAL/MOL
REMARK 922        TOTAL FREE ENERGY PREDICTED BY IDOCK:  -13.19 KCAL/MOL
REMARK 923 INTER-LIGAND FREE ENERGY PREDICTED BY IDOCK:  -11.42 KCAL/MOL
REMARK 924 INTRA-LIGAND FREE ENERGY PREDICTED BY IDOCK:   -1.76 KCAL/MOL
REMARK 927      BINDING AFFINITY PREDICTED BY RF-SCORE:    0.00 PKD
ROOT
HETATM    1  C   UNL     1     -10.555  12.018  63.839  1.00  0.00    -0.447 C  
HETATM    2  C   UNL     1     -10.291  10.784  64.695  1.00  0.00    -0.324 C  
HETATM    3  C   UNL     1      -9.119   9.981  64.137  1.00  0.00    -0.295 C  
ENDROOT
BRANCH   2   4
HETATM    4  O   UNL     1      -9.939  11.196  66.028  1.00  0.00    -0.218 OA 
BRANCH   4   5
HETATM    5  C   UNL     1     -10.617  10.557  67.023  1.00  0.00    -0.253 C  
HETATM    6  O   UNL     1     -11.671  10.940  67.513  1.00  0.00    -0.543 OA 
BRANCH   5   7
HETATM    7  C   UNL     1      -9.853   9.342  67.478  1.00  0.00    -0.220 C  
BRANCH   7   8
HETATM    8  C   UNL     1     -10.633   8.076  67.124  1.00  0.00    -0.367 C  
BRANCH   8   9
HETATM    9  C   UNL     1     -10.770   7.098  68.287  1.00  0.00    -0.202 C  
BRANCH   9  10
HETATM   10  C   UNL     1      -9.697   7.275  69.327  1.00  0.00    -0.161 C  
HETATM   11  C   UNL     1      -9.388   6.399  70.296  1.00  0.00    -0.165 C  
BRANCH  11  12
HETATM   12  C   UNL     1     -10.107   5.109  70.576  1.00  0.00    -0.326 C  
BRANCH  12  13
HETATM   13  C   UNL     1     -10.802   5.091  71.944  1.00  0.00    -0.118 C  
HETATM   14  C   UNL     1     -10.299   4.027  72.926  1.00  0.00    -0.167 C  
HETATM   15  O   UNL     1      -8.887   3.860  72.845  1.00  0.00    -0.097 OA 
HETATM   16  C   UNL     1     -10.641   4.599  74.296  1.00  0.00    -0.328 C  
HETATM   17  C   UNL     1     -10.330   6.086  74.156  1.00  0.00    -0.288 C  
HETATM   18  H   UNL     1      -8.575   3.200  73.454  1.00  0.00     0.000 HD 
HETATM   19  O   UNL     1      -8.944   6.316  74.433  1.00  0.00    -0.134 OA 
HETATM   20  C   UNL     1     -10.633   6.449  72.682  1.00  0.00    -0.250 C  
HETATM   21  H   UNL     1      -8.750   7.242  74.345  1.00  0.00     0.000 HD 
BRANCH  20  22
HETATM   22  C   UNL     1     -11.848   7.321  72.420  1.00  0.00    -0.247 C  
HETATM   23  C   UNL     1     -11.872   8.470  71.721  1.00  0.00    -0.395 C  
BRANCH  23  24
HETATM   24  C   UNL     1     -13.062   9.380  71.499  1.00  0.00    -0.377 C  
HETATM   25  H   UNL     1     -14.702   9.847  72.463  1.00  0.00     0.000 HD 
HETATM   26  O   UNL     1     -13.955   9.277  72.603  1.00  0.00    -0.438 OA 
BRANCH  24  27
HETATM   27  C   UNL     1     -12.596  10.840  71.328  1.00  0.00    -0.426 C  
BRANCH  27  28
HETATM   28  O   UNL     1     -13.337  11.725  72.184  1.00  0.00    -0.497 OA 
BRANCH  28  29
HETATM   29  C   UNL     1     -13.208  13.054  71.867  1.00  0.00    -0.430 A  
HETATM   30  C   UNL     1     -13.622  14.103  72.692  1.00  0.00    -0.618 A  
HETATM   31  C   UNL     1     -13.438  15.429  72.292  1.00  0.00    -0.573 A  
HETATM   32  C   UNL     1     -12.834  15.712  71.070  1.00  0.00    -0.521 A  
HETATM   33  C   UNL     1     -12.398  14.676  70.235  1.00  0.00    -0.406 A  
HETATM   34  C   UNL     1     -11.744  14.982  68.911  1.00  0.00    -0.328 C  
HETATM   35  C   UNL     1     -12.580  13.344  70.651  1.00  0.00    -0.325 A  
HETATM   36  F   UNL     1     -11.682  16.316  68.633  1.00  0.00    -0.364 F  
HETATM   37  F   UNL     1     -12.402  14.418  67.860  1.00  0.00    -0.352 F  
HETATM   38  F   UNL     1     -10.462  14.530  68.839  1.00  0.00    -0.222 F  
ENDBRANCH  28  29
ENDBRANCH  27  28
ENDBRANCH  24  27
ENDBRANCH  23  24
ENDBRANCH  20  22
ENDBRANCH  12  13
ENDBRANCH  11  12
ENDBRANCH   9  10
ENDBRANCH   8   9
ENDBRANCH   7   8
ENDBRANCH   5   7
ENDBRANCH   4   5
ENDBRANCH   2   4
TORSDOF 13
ENDMDL
MODEL       71
REMARK 921   NORMALIZED FREE ENERGY PREDICTED BY IDOCK:   -6.22 KCAL/MOL
REMARK 922        TOTAL FREE ENERGY PREDICTED BY IDOCK:  -13.17 KCAL/MOL
REMARK 923 INTER-LIGAND FREE ENERGY PREDICTED BY IDOCK:  -10.55 KCAL/MOL
REMARK 924 INTRA-LIGAND FREE ENERGY PREDICTED BY IDOCK:   -2.62 KCAL/MOL
REMARK 927      BINDING AFFINITY PREDICTED BY RF-SCORE:    0.00 PKD
ROOT
HETATM    1  C   UNL     1      -6.593  20.687  65.490  1.00  0.00    -0.243 C  
HETATM    2  C   UNL     1      -7.319  19.365  65.715  1.00  0.00    -0.258 C  
HETATM    3  C   UNL     1      -6.322  18.235  65.952  1.00  0.00    -0.285 C  
ENDROOT
BRANCH   2   4
HETATM    4  O   UNL     1      -8.143  19.470  66.890  1.00  0.00    -0.262 OA 
BRANCH   4   5
HETATM    5  C   UNL     1      -9.477  19.296  66.672  1.00  0.00    -0.344 C  
HETATM    6  O   UNL     1     -10.003  19.208  65.571  1.00  0.00    -0.324 OA 
BRANCH   5   7
HETATM    7  C   UNL     1     -10.223  19.286  67.980  1.00  0.00    -0.507 C  
BRANCH   7   8
HETATM    8  C   UNL     1     -10.061  17.927  68.660  1.00  0.00    -0.394 C  
BRANCH   8   9
HETATM    9  C   UNL     1     -10.963  16.842  68.079  1.00  0.00    -0.271 C  
BRANCH   9  10
HETATM   10  C   UNL     1     -10.329  15.478  68.111  1.00  0.00    -0.237 C  
HETATM   11  C   UNL     1     -10.860  14.376  68.663  1.00  0.00    -0.260 C  
BRANCH  11  12
HETATM   12  C   UNL     1     -12.156  14.311  69.421  1.00  0.00    -0.361 C  
BRANCH  12  13
HETATM   13  C   UNL     1     -11.961  14.140  70.934  1.00  0.00    -0.371 C  
HETATM   14  C   UNL     1     -11.510  15.397  71.687  1.00  0.00    -0.423 C  
HETATM   15  O   UNL     1     -12.140  16.569  71.181  1.00  0.00    -0.480 OA 
HETATM   16  C   UNL     1     -11.994  15.165  73.114  1.00  0.00    -0.470 C  
HETATM   17  C   UNL     1     -13.365  14.522  72.931  1.00  0.00    -0.482 C  
HETATM   18  H   UNL     1     -11.861  17.348  71.648  1.00  0.00     0.000 HD 
HETATM   19  O   UNL     1     -14.360  15.541  72.786  1.00  0.00    -0.399 OA 
HETATM   20  C   UNL     1     -13.278  13.691  71.628  1.00  0.00    -0.447 C  
HETATM   21  H   UNL     1     -15.214  15.141  72.672  1.00  0.00     0.000 HD 
BRANCH  20  22
HETATM   22  C   UNL     1     -13.284  12.179  71.770  1.00  0.00    -0.423 C  
HETATM   23  C   UNL     1     -12.328  11.332  71.347  1.00  0.00    -0.308 C  
BRANCH  23  24
HETATM   24  C   UNL     1     -12.346   9.821  71.430  1.00  0.00    -0.388 C  
HETATM   25  H   UNL     1     -13.704   8.408  71.477  1.00  0.00     0.000 HD 
HETATM   26  O   UNL     1     -13.693   9.356  71.424  1.00  0.00    -0.359 OA 
BRANCH  24  27
HETATM   27  C   UNL     1     -11.569   9.210  70.247  1.00  0.00    -0.086 C  
BRANCH  27  28
HETATM   28  O   UNL     1     -10.150   9.326  70.441  1.00  0.00    -0.202 OA 
BRANCH  28  29
HETATM   29  C   UNL     1      -9.511  10.075  69.485  1.00  0.00    -0.226 A  
HETATM   30  C   UNL     1      -8.198  10.540  69.600  1.00  0.00    -0.031 A  
HETATM   31  C   UNL     1      -7.622  11.287  68.568  1.00  0.00    -0.123 A  
HETATM   32  C   UNL     1      -8.353  11.564  67.415  1.00  0.00    -0.148 A  
HETATM   33  C   UNL     1      -9.664  11.094  67.274  1.00  0.00    -0.186 A  
HETATM   34  C   UNL     1     -10.457  11.395  66.026  1.00  0.00    -0.255 C  
HETATM   35  C   UNL     1     -10.232  10.336  68.315  1.00  0.00    -0.184 A  
HETATM   36  F   UNL     1      -9.784  12.176  65.133  1.00  0.00    -0.250 F  
HETATM   37  F   UNL     1     -11.618  12.055  66.291  1.00  0.00    -0.374 F  
HETATM   38  F   UNL     1     -10.809  10.272  65.343  1.00  0.00    -0.185 F  
ENDBRANCH  28  29
ENDBRANCH  27  28
ENDBRANCH  24  27
ENDBRANCH  23  24
ENDBRANCH  20  22
ENDBRANCH  12  13
ENDBRANCH  11  12
ENDBRANCH   9  10
ENDBRANCH   8   9
ENDBRANCH   7   8
ENDBRANCH   5   7
ENDBRANCH   4   5
ENDBRANCH   2   4
TORSDOF 13
ENDMDL
MODEL       72
REMARK 921   NORMALIZED FREE ENERGY PREDICTED BY IDOCK:   -6.20 KCAL/MOL
REMARK 922        TOTAL FREE ENERGY PREDICTED BY IDOCK:  -13.14 KCAL/MOL
REMARK 923 INTER-LIGAND FREE ENERGY PREDICTED BY IDOCK:  -10.51 KCAL/MOL
REMARK 924 INTRA-LIGAND FREE ENERGY PREDICTED BY IDOCK:   -2.62 KCAL/MOL
REMARK 927      BINDING AFFINITY PREDICTED BY RF-SCORE:    0.00 PKD
ROOT
HETATM    1  C   UNL     1     -12.843   6.873  71.686  1.00  0.00    -0.383 C  
HETATM    2  C   UNL     1     -11.425   6.863  72.248  1.00  0.00    -0.275 C  
HETATM    3  C   UNL     1     -10.964   5.436  72.524  1.00  0.00    -0.312 C  
ENDROOT
BRANCH   2   4
HETATM    4  O   UNL     1     -10.526   7.429  71.278  1.00  0.00    -0.208 OA 
BRANCH   4   5
HETATM    5  C   UNL     1      -9.832   8.521  71.707  1.00  0.00    -0.269 C  
HETATM    6  O   UNL     1      -9.392   8.673  72.839  1.00  0.00    -0.241 OA 
BRANCH   5   7
HETATM    7  C   UNL     1      -9.735   9.544  70.607  1.00  0.00    -0.311 C  
BRANCH   7   8
HETATM    8  C   UNL     1     -11.136   9.972  70.170  1.00  0.00    -0.371 C  
BRANCH   8   9
HETATM    9  C   UNL     1     -11.213  10.410  68.710  1.00  0.00    -0.295 C  
BRANCH   9  10
HETATM   10  C   UNL     1     -10.571  11.748  68.469  1.00  0.00    -0.242 C  
HETATM   11  C   UNL     1      -9.419  11.962  67.812  1.00  0.00    -0.184 C  
BRANCH  11  12
HETATM   12  C   UNL     1      -8.512  10.898  67.260  1.00  0.00    -0.125 C  
BRANCH  12  13
HETATM   13  C   UNL     1      -8.379  10.953  65.732  1.00  0.00    -0.133 C  
HETATM   14  C   UNL     1      -7.055  10.428  65.165  1.00  0.00    -0.080 C  
HETATM   15  O   UNL     1      -6.593   9.285  65.877  1.00  0.00    -0.073 OA 
HETATM   16  C   UNL     1      -7.405  10.006  63.743  1.00  0.00    -0.134 C  
HETATM   17  C   UNL     1      -8.781   9.361  63.885  1.00  0.00    -0.202 C  
HETATM   18  H   UNL     1      -5.773   8.959  65.525  1.00  0.00     0.000 HD 
HETATM   19  O   UNL     1      -8.632   7.981  64.233  1.00  0.00    -0.384 OA 
HETATM   20  C   UNL     1      -9.489  10.115  65.037  1.00  0.00    -0.330 C  
HETATM   21  H   UNL     1      -9.489   7.579  64.322  1.00  0.00     0.000 HD 
BRANCH  20  22
HETATM   22  C   UNL     1     -10.647  11.022  64.661  1.00  0.00    -0.369 C  
HETATM   23  C   UNL     1     -10.559  12.231  64.076  1.00  0.00    -0.434 C  
BRANCH  23  24
HETATM   24  C   UNL     1     -11.699  13.171  63.746  1.00  0.00    -0.461 C  
HETATM   25  H   UNL     1     -13.628  13.022  63.433  1.00  0.00     0.000 HD 
HETATM   26  O   UNL     1     -12.913  12.433  63.640  1.00  0.00    -0.758 OA 
BRANCH  24  27
HETATM   27  C   UNL     1     -11.831  14.255  64.834  1.00  0.00    -0.410 C  
BRANCH  27  28
HETATM   28  O   UNL     1     -10.729  15.176  64.787  1.00  0.00    -0.403 OA 
BRANCH  28  29
HETATM   29  C   UNL     1     -10.658  16.024  65.863  1.00  0.00    -0.328 A  
HETATM   30  C   UNL     1     -10.370  17.389  65.771  1.00  0.00    -0.226 A  
HETATM   31  C   UNL     1     -10.330  18.180  66.921  1.00  0.00    -0.386 A  
HETATM   32  C   UNL     1     -10.586  17.613  68.168  1.00  0.00    -0.359 A  
HETATM   33  C   UNL     1     -10.892  16.252  68.280  1.00  0.00    -0.340 A  
HETATM   34  C   UNL     1     -11.168  15.636  69.630  1.00  0.00    -0.310 C  
HETATM   35  C   UNL     1     -10.937  15.465  67.114  1.00  0.00    -0.317 A  
HETATM   36  F   UNL     1     -11.041  16.518  70.663  1.00  0.00    -0.356 F  
HETATM   37  F   UNL     1     -10.323  14.608  69.919  1.00  0.00    -0.168 F  
HETATM   38  F   UNL     1     -12.427  15.130  69.730  1.00  0.00    -0.335 F  
ENDBRANCH  28  29
ENDBRANCH  27  28
ENDBRANCH  24  27
ENDBRANCH  23  24
ENDBRANCH  20  22
ENDBRANCH  12  13
ENDBRANCH  11  12
ENDBRANCH   9  10
ENDBRANCH   8   9
ENDBRANCH   7   8
ENDBRANCH   5   7
ENDBRANCH   4   5
ENDBRANCH   2   4
TORSDOF 13
ENDMDL
MODEL       73
REMARK 921   NORMALIZED FREE ENERGY PREDICTED BY IDOCK:   -6.18 KCAL/MOL
REMARK 922        TOTAL FREE ENERGY PREDICTED BY IDOCK:  -13.10 KCAL/MOL
REMARK 923 INTER-LIGAND FREE ENERGY PREDICTED BY IDOCK:  -10.73 KCAL/MOL
REMARK 924 INTRA-LIGAND FREE ENERGY PREDICTED BY IDOCK:   -2.37 KCAL/MOL
REMARK 927      BINDING AFFINITY PREDICTED BY RF-SCORE:    0.00 PKD
ROOT
HETATM    1  C   UNL     1     -13.931  13.595  72.389  1.00  0.00    -0.651 C  
HETATM    2  C   UNL     1     -13.938  15.119  72.416  1.00  0.00    -0.516 C  
HETATM    3  C   UNL     1     -12.900  15.647  73.401  1.00  0.00    -0.667 C  
ENDROOT
BRANCH   2   4
HETATM    4  O   UNL     1     -13.592  15.619  71.112  1.00  0.00    -0.582 OA 
BRANCH   4   5
HETATM    5  C   UNL     1     -12.454  15.092  70.579  1.00  0.00    -0.371 C  
HETATM    6  O   UNL     1     -12.322  13.932  70.212  1.00  0.00    -0.327 OA 
BRANCH   5   7
HETATM    7  C   UNL     1     -11.359  16.125  70.559  1.00  0.00    -0.392 C  
BRANCH   7   8
HETATM    8  C   UNL     1     -10.533  15.982  69.281  1.00  0.00    -0.257 C  
BRANCH   8   9
HETATM    9  C   UNL     1     -11.231  16.528  68.039  1.00  0.00    -0.202 C  
BRANCH   9  10
HETATM   10  C   UNL     1     -10.598  16.055  66.759  1.00  0.00    -0.297 C  
HETATM   11  C   UNL     1     -10.835  14.882  66.150  1.00  0.00    -0.327 C  
BRANCH  11  12
HETATM   12  C   UNL     1     -11.721  13.785  66.671  1.00  0.00    -0.421 C  
BRANCH  12  13
HETATM   13  C   UNL     1     -10.951  12.503  67.017  1.00  0.00    -0.306 C  
HETATM   14  C   UNL     1     -11.397  11.242  66.267  1.00  0.00     0.018 C  
HETATM   15  O   UNL     1     -11.733  11.525  64.913  1.00  0.00    -0.092 OA 
HETATM   16  C   UNL     1     -10.164  10.347  66.285  1.00  0.00    -0.286 C  
HETATM   17  C   UNL     1      -9.009  11.317  66.051  1.00  0.00    -0.200 C  
HETATM   18  H   UNL     1     -12.010  10.743  64.449  1.00  0.00     0.000 HD 
HETATM   19  O   UNL     1      -8.820  11.511  64.645  1.00  0.00    -0.378 OA 
HETATM   20  C   UNL     1      -9.434  12.653  66.708  1.00  0.00    -0.237 C  
HETATM   21  H   UNL     1      -8.101  12.115  64.500  1.00  0.00     0.000 HD 
BRANCH  20  22
HETATM   22  C   UNL     1      -8.699  13.068  67.970  1.00  0.00    -0.187 C  
HETATM   23  C   UNL     1      -7.768  14.034  68.073  1.00  0.00    -0.149 C  
BRANCH  23  24
HETATM   24  C   UNL     1      -6.987  14.421  69.310  1.00  0.00    -0.129 C  
HETATM   25  H   UNL     1      -5.262  13.953  70.115  1.00  0.00     0.000 HD 
HETATM   26  O   UNL     1      -5.753  13.711  69.338  1.00  0.00    -0.084 OA 
BRANCH  24  27
HETATM   27  C   UNL     1      -6.724  15.941  69.324  1.00  0.00    -0.176 C  
BRANCH  27  28
HETATM   28  O   UNL     1      -6.415  16.427  68.008  1.00  0.00    -0.124 OA 
BRANCH  28  29
HETATM   29  C   UNL     1      -6.617  17.775  67.844  1.00  0.00    -0.189 A  
HETATM   30  C   UNL     1      -5.591  18.707  67.669  1.00  0.00    -0.165 A  
HETATM   31  C   UNL     1      -5.890  20.060  67.496  1.00  0.00    -0.200 A  
HETATM   32  C   UNL     1      -7.216  20.487  67.489  1.00  0.00    -0.368 A  
HETATM   33  C   UNL     1      -8.259  19.567  67.648  1.00  0.00    -0.332 A  
HETATM   34  C   UNL     1      -9.696  20.027  67.642  1.00  0.00    -0.403 C  
HETATM   35  C   UNL     1      -7.947  18.205  67.813  1.00  0.00    -0.238 A  
HETATM   36  F   UNL     1      -9.830  21.380  67.517  1.00  0.00    -0.567 F  
HETATM   37  F   UNL     1     -10.356  19.696  68.786  1.00  0.00    -0.480 F  
HETATM   38  F   UNL     1     -10.417  19.489  66.621  1.00  0.00    -0.445 F  
ENDBRANCH  28  29
ENDBRANCH  27  28
ENDBRANCH  24  27
ENDBRANCH  23  24
ENDBRANCH  20  22
ENDBRANCH  12  13
ENDBRANCH  11  12
ENDBRANCH   9  10
ENDBRANCH   8   9
ENDBRANCH   7   8
ENDBRANCH   5   7
ENDBRANCH   4   5
ENDBRANCH   2   4
TORSDOF 13
ENDMDL
MODEL       74
REMARK 921   NORMALIZED FREE ENERGY PREDICTED BY IDOCK:   -6.16 KCAL/MOL
REMARK 922        TOTAL FREE ENERGY PREDICTED BY IDOCK:  -13.07 KCAL/MOL
REMARK 923 INTER-LIGAND FREE ENERGY PREDICTED BY IDOCK:  -11.15 KCAL/MOL
REMARK 924 INTRA-LIGAND FREE ENERGY PREDICTED BY IDOCK:   -1.92 KCAL/MOL
REMARK 927      BINDING AFFINITY PREDICTED BY RF-SCORE:    0.00 PKD
ROOT
HETATM    1  C   UNL     1     -11.022   3.396  73.789  1.00  0.00    -0.307 C  
HETATM    2  C   UNL     1     -10.237   4.613  73.312  1.00  0.00    -0.169 C  
HETATM    3  C   UNL     1      -9.663   4.374  71.920  1.00  0.00    -0.233 C  
ENDROOT
BRANCH   2   4
HETATM    4  O   UNL     1     -11.120   5.746  73.228  1.00  0.00    -0.263 OA 
BRANCH   4   5
HETATM    5  C   UNL     1     -10.530   6.952  73.461  1.00  0.00    -0.352 C  
HETATM    6  O   UNL     1      -9.662   7.159  74.297  1.00  0.00    -0.263 OA 
BRANCH   5   7
HETATM    7  C   UNL     1     -11.142   8.011  72.582  1.00  0.00    -0.453 C  
BRANCH   7   8
HETATM    8  C   UNL     1     -12.277   7.407  71.755  1.00  0.00    -0.359 C  
BRANCH   8   9
HETATM    9  C   UNL     1     -13.515   8.295  71.678  1.00  0.00    -0.358 C  
BRANCH   9  10
HETATM   10  C   UNL     1     -13.337   9.605  72.395  1.00  0.00    -0.426 C  
HETATM   11  C   UNL     1     -13.096  10.793  71.818  1.00  0.00    -0.573 C  
BRANCH  11  12
HETATM   12  C   UNL     1     -12.880  11.027  70.348  1.00  0.00    -0.221 C  
BRANCH  12  13
HETATM   13  C   UNL     1     -11.411  11.290  69.990  1.00  0.00    -0.359 C  
HETATM   14  C   UNL     1     -10.599  10.055  69.584  1.00  0.00    -0.252 C  
HETATM   15  O   UNL     1     -11.371   9.152  68.798  1.00  0.00    -0.409 OA 
HETATM   16  C   UNL     1      -9.480  10.619  68.716  1.00  0.00    -0.186 C  
HETATM   17  C   UNL     1     -10.171  11.701  67.892  1.00  0.00    -0.189 C  
HETATM   18  H   UNL     1     -10.867   8.386  68.546  1.00  0.00     0.000 HD 
HETATM   19  O   UNL     1     -10.753  11.118  66.721  1.00  0.00    -0.256 OA 
HETATM   20  C   UNL     1     -11.288  12.278  68.795  1.00  0.00    -0.337 C  
HETATM   21  H   UNL     1     -11.184  11.792  66.208  1.00  0.00     0.000 HD 
BRANCH  20  22
HETATM   22  C   UNL     1     -11.092  13.688  69.323  1.00  0.00    -0.241 C  
HETATM   23  C   UNL     1     -12.059  14.539  69.711  1.00  0.00    -0.380 C  
BRANCH  23  24
HETATM   24  C   UNL     1     -11.884  15.966  70.186  1.00  0.00    -0.314 C  
HETATM   25  H   UNL     1     -11.512  16.872  71.884  1.00  0.00     0.000 HD 
HETATM   26  O   UNL     1     -11.622  15.976  71.586  1.00  0.00    -0.439 OA 
BRANCH  24  27
HETATM   27  C   UNL     1     -10.727  16.645  69.425  1.00  0.00    -0.331 C  
BRANCH  27  28
HETATM   28  O   UNL     1     -11.149  17.085  68.123  1.00  0.00    -0.334 OA 
BRANCH  28  29
HETATM   29  C   UNL     1     -10.332  18.032  67.557  1.00  0.00    -0.385 A  
HETATM   30  C   UNL     1     -10.762  19.297  67.148  1.00  0.00    -0.584 A  
HETATM   31  C   UNL     1      -9.856  20.204  66.593  1.00  0.00    -0.588 A  
HETATM   32  C   UNL     1      -8.515  19.853  66.451  1.00  0.00    -0.379 A  
HETATM   33  C   UNL     1      -8.062  18.596  66.869  1.00  0.00    -0.256 A  
HETATM   34  C   UNL     1      -6.610  18.214  66.715  1.00  0.00    -0.185 C  
HETATM   35  C   UNL     1      -8.981  17.693  67.435  1.00  0.00    -0.231 A  
HETATM   36  F   UNL     1      -5.858  19.179  66.109  1.00  0.00    -0.165 F  
HETATM   37  F   UNL     1      -6.441  17.091  65.964  1.00  0.00    -0.222 F  
HETATM   38  F   UNL     1      -6.002  17.966  67.906  1.00  0.00    -0.148 F  
ENDBRANCH  28  29
ENDBRANCH  27  28
ENDBRANCH  24  27
ENDBRANCH  23  24
ENDBRANCH  20  22
ENDBRANCH  12  13
ENDBRANCH  11  12
ENDBRANCH   9  10
ENDBRANCH   8   9
ENDBRANCH   7   8
ENDBRANCH   5   7
ENDBRANCH   4   5
ENDBRANCH   2   4
TORSDOF 13
ENDMDL
MODEL       75
REMARK 921   NORMALIZED FREE ENERGY PREDICTED BY IDOCK:   -6.15 KCAL/MOL
REMARK 922        TOTAL FREE ENERGY PREDICTED BY IDOCK:  -13.04 KCAL/MOL
REMARK 923 INTER-LIGAND FREE ENERGY PREDICTED BY IDOCK:   -9.38 KCAL/MOL
REMARK 924 INTRA-LIGAND FREE ENERGY PREDICTED BY IDOCK:   -3.67 KCAL/MOL
REMARK 927      BINDING AFFINITY PREDICTED BY RF-SCORE:    0.00 PKD
ROOT
HETATM    1  C   UNL     1     -12.658  12.629  64.748  1.00  0.00    -0.530 C  
HETATM    2  C   UNL     1     -11.673  13.308  65.693  1.00  0.00    -0.356 C  
HETATM    3  C   UNL     1     -10.544  13.971  64.910  1.00  0.00    -0.442 C  
ENDROOT
BRANCH   2   4
HETATM    4  O   UNL     1     -12.355  14.341  66.428  1.00  0.00    -0.448 OA 
BRANCH   4   5
HETATM    5  C   UNL     1     -12.007  14.433  67.743  1.00  0.00    -0.333 C  
HETATM    6  O   UNL     1     -11.723  15.473  68.322  1.00  0.00    -0.360 OA 
BRANCH   5   7
HETATM    7  C   UNL     1     -11.964  13.065  68.370  1.00  0.00    -0.309 C  
BRANCH   7   8
HETATM    8  C   UNL     1     -12.059  13.187  69.890  1.00  0.00    -0.357 C  
BRANCH   8   9
HETATM    9  C   UNL     1     -12.088  11.842  70.610  1.00  0.00    -0.389 C  
BRANCH   9  10
HETATM   10  C   UNL     1     -11.764  10.688  69.701  1.00  0.00    -0.368 C  
HETATM   11  C   UNL     1     -11.387   9.460  70.090  1.00  0.00    -0.220 C  
BRANCH  11  12
HETATM   12  C   UNL     1     -11.140   9.026  71.509  1.00  0.00    -0.419 C  
BRANCH  12  13
HETATM   13  C   UNL     1     -10.354   7.712  71.607  1.00  0.00    -0.221 C  
HETATM   14  C   UNL     1      -9.848   7.349  73.009  1.00  0.00    -0.230 C  
HETATM   15  O   UNL     1     -10.796   7.687  74.015  1.00  0.00    -0.408 OA 
HETATM   16  C   UNL     1      -9.704   5.832  72.967  1.00  0.00    -0.164 C  
HETATM   17  C   UNL     1     -10.924   5.374  72.173  1.00  0.00    -0.201 C  
HETATM   18  H   UNL     1     -10.482   7.461  74.884  1.00  0.00     0.000 HD 
HETATM   19  O   UNL     1     -12.041   5.220  73.054  1.00  0.00    -0.528 OA 
HETATM   20  C   UNL     1     -11.217   6.500  71.153  1.00  0.00    -0.353 C  
HETATM   21  H   UNL     1     -12.801   4.935  72.560  1.00  0.00     0.000 HD 
BRANCH  20  22
HETATM   22  C   UNL     1     -10.936   6.200  69.691  1.00  0.00    -0.459 C  
HETATM   23  C   UNL     1     -10.001   5.358  69.213  1.00  0.00    -0.277 C  
BRANCH  23  24
HETATM   24  C   UNL     1      -9.671   5.090  67.760  1.00  0.00    -0.153 C  
HETATM   25  H   UNL     1     -10.638   5.072  66.055  1.00  0.00     0.000 HD 
HETATM   26  O   UNL     1     -10.845   5.240  66.967  1.00  0.00    -0.179 OA 
BRANCH  24  27
HETATM   27  C   UNL     1      -8.574   6.057  67.273  1.00  0.00    -0.106 C  
BRANCH  27  28
HETATM   28  O   UNL     1      -7.706   6.445  68.351  1.00  0.00    -0.101 OA 
BRANCH  28  29
HETATM   29  C   UNL     1      -7.800   7.768  68.701  1.00  0.00    -0.120 A  
HETATM   30  C   UNL     1      -7.426   8.280  69.947  1.00  0.00    -0.065 A  
HETATM   31  C   UNL     1      -7.544   9.646  70.212  1.00  0.00    -0.175 A  
HETATM   32  C   UNL     1      -8.028  10.508  69.231  1.00  0.00    -0.156 A  
HETATM   33  C   UNL     1      -8.394  10.018  67.971  1.00  0.00    -0.117 A  
HETATM   34  C   UNL     1      -8.920  10.951  66.908  1.00  0.00    -0.151 C  
HETATM   35  C   UNL     1      -8.264   8.642  67.712  1.00  0.00    -0.118 A  
HETATM   36  F   UNL     1      -9.029  12.244  67.329  1.00  0.00    -0.162 F  
HETATM   37  F   UNL     1     -10.162  10.600  66.472  1.00  0.00    -0.243 F  
HETATM   38  F   UNL     1      -8.128  10.988  65.802  1.00  0.00    -0.161 F  
ENDBRANCH  28  29
ENDBRANCH  27  28
ENDBRANCH  24  27
ENDBRANCH  23  24
ENDBRANCH  20  22
ENDBRANCH  12  13
ENDBRANCH  11  12
ENDBRANCH   9  10
ENDBRANCH   8   9
ENDBRANCH   7   8
ENDBRANCH   5   7
ENDBRANCH   4   5
ENDBRANCH   2   4
TORSDOF 13
ENDMDL
MODEL       76
REMARK 921   NORMALIZED FREE ENERGY PREDICTED BY IDOCK:   -6.14 KCAL/MOL
REMARK 922        TOTAL FREE ENERGY PREDICTED BY IDOCK:  -13.02 KCAL/MOL
REMARK 923 INTER-LIGAND FREE ENERGY PREDICTED BY IDOCK:  -11.33 KCAL/MOL
REMARK 924 INTRA-LIGAND FREE ENERGY PREDICTED BY IDOCK:   -1.69 KCAL/MOL
REMARK 927      BINDING AFFINITY PREDICTED BY RF-SCORE:    0.00 PKD
ROOT
HETATM    1  C   UNL     1     -12.572  12.100  63.352  1.00  0.00    -0.584 C  
HETATM    2  C   UNL     1     -11.762  12.735  64.478  1.00  0.00    -0.366 C  
HETATM    3  C   UNL     1     -12.449  13.996  64.992  1.00  0.00    -0.446 C  
ENDROOT
BRANCH   2   4
HETATM    4  O   UNL     1     -11.672  11.810  65.577  1.00  0.00    -0.277 OA 
BRANCH   4   5
HETATM    5  C   UNL     1     -10.580  10.995  65.554  1.00  0.00    -0.200 C  
HETATM    6  O   UNL     1      -9.832  10.851  64.596  1.00  0.00    -0.244 OA 
BRANCH   5   7
HETATM    7  C   UNL     1     -10.456  10.250  66.856  1.00  0.00    -0.291 C  
BRANCH   7   8
HETATM    8  C   UNL     1      -9.052   9.658  66.984  1.00  0.00    -0.154 C  
BRANCH   8   9
HETATM    9  C   UNL     1      -9.044   8.146  67.190  1.00  0.00    -0.163 C  
BRANCH   9  10
HETATM   10  C   UNL     1     -10.420   7.582  67.415  1.00  0.00    -0.367 C  
HETATM   11  C   UNL     1     -10.785   6.774  68.424  1.00  0.00    -0.284 C  
BRANCH  11  12
HETATM   12  C   UNL     1      -9.870   6.218  69.479  1.00  0.00    -0.183 C  
BRANCH  12  13
HETATM   13  C   UNL     1     -10.618   5.714  70.720  1.00  0.00    -0.335 C  
HETATM   14  C   UNL     1     -10.270   4.289  71.167  1.00  0.00    -0.017 C  
HETATM   15  O   UNL     1      -8.882   4.012  71.013  1.00  0.00    -0.082 OA 
HETATM   16  C   UNL     1     -10.605   4.277  72.653  1.00  0.00    -0.215 C  
HETATM   17  C   UNL     1     -10.133   5.642  73.142  1.00  0.00    -0.181 C  
HETATM   18  H   UNL     1      -8.667   3.129  71.290  1.00  0.00     0.000 HD 
HETATM   19  O   UNL     1      -8.743   5.579  73.480  1.00  0.00    -0.118 OA 
HETATM   20  C   UNL     1     -10.336   6.615  71.955  1.00  0.00    -0.218 C  
HETATM   21  H   UNL     1      -8.449   6.430  73.784  1.00  0.00     0.000 HD 
BRANCH  20  22
HETATM   22  C   UNL     1     -11.441   7.649  72.089  1.00  0.00    -0.345 C  
HETATM   23  C   UNL     1     -12.681   7.565  71.574  1.00  0.00    -0.391 C  
BRANCH  23  24
HETATM   24  C   UNL     1     -13.774   8.610  71.651  1.00  0.00    -0.384 C  
HETATM   25  H   UNL     1     -14.859   9.442  73.055  1.00  0.00     0.000 HD 
HETATM   26  O   UNL     1     -14.173   8.786  73.007  1.00  0.00    -0.404 OA 
BRANCH  24  27
HETATM   27  C   UNL     1     -13.278   9.947  71.066  1.00  0.00    -0.304 C  
BRANCH  27  28
HETATM   28  O   UNL     1     -13.530  11.035  71.970  1.00  0.00    -0.378 OA 
BRANCH  28  29
HETATM   29  C   UNL     1     -12.975  12.229  71.584  1.00  0.00    -0.311 A  
HETATM   30  C   UNL     1     -12.282  12.422  70.386  1.00  0.00    -0.370 A  
HETATM   31  C   UNL     1     -11.760  13.679  70.068  1.00  0.00    -0.319 A  
HETATM   32  C   UNL     1     -11.936  14.749  70.942  1.00  0.00    -0.384 A  
HETATM   33  C   UNL     1     -12.641  14.580  72.140  1.00  0.00    -0.391 A  
HETATM   34  C   UNL     1     -12.831  15.739  73.088  1.00  0.00    -0.522 C  
HETATM   35  C   UNL     1     -13.169  13.313  72.447  1.00  0.00    -0.539 A  
HETATM   36  F   UNL     1     -12.222  16.886  72.669  1.00  0.00    -0.363 F  
HETATM   37  F   UNL     1     -12.329  15.488  74.328  1.00  0.00    -0.580 F  
HETATM   38  F   UNL     1     -14.141  16.061  73.269  1.00  0.00    -0.617 F  
ENDBRANCH  28  29
ENDBRANCH  27  28
ENDBRANCH  24  27
ENDBRANCH  23  24
ENDBRANCH  20  22
ENDBRANCH  12  13
ENDBRANCH  11  12
ENDBRANCH   9  10
ENDBRANCH   8   9
ENDBRANCH   7   8
ENDBRANCH   5   7
ENDBRANCH   4   5
ENDBRANCH   2   4
TORSDOF 13
ENDMDL
MODEL       77
REMARK 921   NORMALIZED FREE ENERGY PREDICTED BY IDOCK:   -6.12 KCAL/MOL
REMARK 922        TOTAL FREE ENERGY PREDICTED BY IDOCK:  -12.99 KCAL/MOL
REMARK 923 INTER-LIGAND FREE ENERGY PREDICTED BY IDOCK:  -10.55 KCAL/MOL
REMARK 924 INTRA-LIGAND FREE ENERGY PREDICTED BY IDOCK:   -2.45 KCAL/MOL
REMARK 927      BINDING AFFINITY PREDICTED BY RF-SCORE:    0.00 PKD
ROOT
HETATM    1  C   UNL     1     -14.095  15.707  72.594  1.00  0.00    -0.527 C  
HETATM    2  C   UNL     1     -12.773  15.040  72.956  1.00  0.00    -0.456 C  
HETATM    3  C   UNL     1     -12.307  15.481  74.341  1.00  0.00    -0.798 C  
ENDROOT
BRANCH   2   4
HETATM    4  O   UNL     1     -12.954  13.613  72.994  1.00  0.00    -0.346 OA 
BRANCH   4   5
HETATM    5  C   UNL     1     -12.918  12.998  71.778  1.00  0.00    -0.321 C  
HETATM    6  O   UNL     1     -12.494  13.504  70.747  1.00  0.00    -0.351 OA 
BRANCH   5   7
HETATM    7  C   UNL     1     -13.529  11.625  71.868  1.00  0.00    -0.269 C  
BRANCH   7   8
HETATM    8  C   UNL     1     -12.478  10.566  71.535  1.00  0.00    -0.493 C  
BRANCH   8   9
HETATM    9  C   UNL     1     -12.375  10.258  70.044  1.00  0.00    -0.158 C  
BRANCH   9  10
HETATM   10  C   UNL     1     -11.025  10.595  69.472  1.00  0.00    -0.321 C  
HETATM   11  C   UNL     1     -10.795  11.377  68.405  1.00  0.00    -0.248 C  
BRANCH  11  12
HETATM   12  C   UNL     1     -11.848  12.003  67.532  1.00  0.00    -0.275 C  
BRANCH  12  13
HETATM   13  C   UNL     1     -11.582  11.805  66.034  1.00  0.00    -0.206 C  
HETATM   14  C   UNL     1     -12.435  12.664  65.093  1.00  0.00    -0.463 C  
HETATM   15  O   UNL     1     -12.633  13.976  65.611  1.00  0.00    -0.497 OA 
HETATM   16  C   UNL     1     -11.595  12.766  63.825  1.00  0.00    -0.548 C  
HETATM   17  C   UNL     1     -10.170  12.931  64.346  1.00  0.00    -0.318 C  
HETATM   18  H   UNL     1     -13.161  14.508  65.028  1.00  0.00     0.000 HD 
HETATM   19  O   UNL     1      -9.908  14.314  64.602  1.00  0.00    -0.561 OA 
HETATM   20  C   UNL     1     -10.106  12.134  65.672  1.00  0.00    -0.274 C  
HETATM   21  H   UNL     1      -9.021  14.416  64.927  1.00  0.00     0.000 HD 
BRANCH  20  22
HETATM   22  C   UNL     1      -9.288  10.855  65.672  1.00  0.00    -0.236 C  
HETATM   23  C   UNL     1      -9.181   9.974  64.660  1.00  0.00    -0.310 C  
BRANCH  23  24
HETATM   24  C   UNL     1      -8.416   8.668  64.663  1.00  0.00    -0.132 C  
HETATM   25  H   UNL     1      -6.617   8.065  64.173  1.00  0.00     0.000 HD 
HETATM   26  O   UNL     1      -7.097   8.885  64.171  1.00  0.00    -0.089 OA 
BRANCH  24  27
HETATM   27  C   UNL     1      -8.360   8.084  66.089  1.00  0.00    -0.125 C  
BRANCH  27  28
HETATM   28  O   UNL     1      -9.362   7.070  66.275  1.00  0.00    -0.163 OA 
BRANCH  28  29
HETATM   29  C   UNL     1      -9.829   6.970  67.562  1.00  0.00    -0.148 A  
HETATM   30  C   UNL     1     -10.983   6.272  67.926  1.00  0.00    -0.421 A  
HETATM   31  C   UNL     1     -11.377   6.211  69.266  1.00  0.00    -0.361 A  
HETATM   32  C   UNL     1     -10.614   6.841  70.247  1.00  0.00    -0.251 A  
HETATM   33  C   UNL     1      -9.446   7.532  69.904  1.00  0.00    -0.160 A  
HETATM   34  C   UNL     1      -8.619   8.214  70.966  1.00  0.00    -0.137 C  
HETATM   35  C   UNL     1      -9.053   7.579  68.554  1.00  0.00    -0.134 A  
HETATM   36  F   UNL     1      -9.155   8.114  72.216  1.00  0.00    -0.173 F  
HETATM   37  F   UNL     1      -8.470   9.548  70.735  1.00  0.00    -0.212 F  
HETATM   38  F   UNL     1      -7.361   7.705  71.062  1.00  0.00    -0.065 F  
ENDBRANCH  28  29
ENDBRANCH  27  28
ENDBRANCH  24  27
ENDBRANCH  23  24
ENDBRANCH  20  22
ENDBRANCH  12  13
ENDBRANCH  11  12
ENDBRANCH   9  10
ENDBRANCH   8   9
ENDBRANCH   7   8
ENDBRANCH   5   7
ENDBRANCH   4   5
ENDBRANCH   2   4
TORSDOF 13
ENDMDL
MODEL       78
REMARK 921   NORMALIZED FREE ENERGY PREDICTED BY IDOCK:   -6.10 KCAL/MOL
REMARK 922        TOTAL FREE ENERGY PREDICTED BY IDOCK:  -12.96 KCAL/MOL
REMARK 923 INTER-LIGAND FREE ENERGY PREDICTED BY IDOCK:  -10.05 KCAL/MOL
REMARK 924 INTRA-LIGAND FREE ENERGY PREDICTED BY IDOCK:   -2.91 KCAL/MOL
REMARK 927      BINDING AFFINITY PREDICTED BY RF-SCORE:    0.00 PKD
ROOT
HETATM    1  C   UNL     1      -7.533   7.400  65.484  1.00  0.00    -0.088 C  
HETATM    2  C   UNL     1      -8.384   6.155  65.709  1.00  0.00    -0.143 C  
HETATM    3  C   UNL     1      -7.717   4.927  65.098  1.00  0.00    -0.082 C  
ENDROOT
BRANCH   2   4
HETATM    4  O   UNL     1      -8.516   5.919  67.123  1.00  0.00    -0.108 OA 
BRANCH   4   5
HETATM    5  C   UNL     1      -9.696   5.353  67.502  1.00  0.00    -0.137 C  
HETATM    6  O   UNL     1     -10.707   5.309  66.814  1.00  0.00    -0.273 OA 
BRANCH   5   7
HETATM    7  C   UNL     1      -9.599   4.840  68.914  1.00  0.00    -0.229 C  
BRANCH   7   8
HETATM    8  C   UNL     1     -10.621   5.556  69.798  1.00  0.00    -0.388 C  
BRANCH   8   9
HETATM    9  C   UNL     1     -10.310   5.463  71.289  1.00  0.00    -0.296 C  
BRANCH   9  10
HETATM   10  C   UNL     1      -9.465   6.607  71.780  1.00  0.00    -0.151 C  
HETATM   11  C   UNL     1      -9.895   7.643  72.517  1.00  0.00    -0.250 C  
BRANCH  11  12
HETATM   12  C   UNL     1     -11.319   7.899  72.927  1.00  0.00    -0.399 C  
BRANCH  12  13
HETATM   13  C   UNL     1     -12.186   8.444  71.784  1.00  0.00    -0.377 C  
HETATM   14  C   UNL     1     -13.696   8.459  72.050  1.00  0.00    -0.374 C  
HETATM   15  O   UNL     1     -13.990   8.816  73.397  1.00  0.00    -1.132 OA 
HETATM   16  C   UNL     1     -14.220   9.557  71.132  1.00  0.00     0.196 C  
HETATM   17  C   UNL     1     -13.157  10.647  71.226  1.00  0.00    -0.359 C  
HETATM   18  H   UNL     1     -14.926   8.826  73.561  1.00  0.00     0.000 HD 
HETATM   19  O   UNL     1     -13.430  11.490  72.350  1.00  0.00    -0.596 OA 
HETATM   20  C   UNL     1     -11.811   9.913  71.441  1.00  0.00    -0.476 C  
HETATM   21  H   UNL     1     -12.768  12.169  72.409  1.00  0.00     0.000 HD 
BRANCH  20  22
HETATM   22  C   UNL     1     -10.824   9.927  70.287  1.00  0.00    -0.367 C  
HETATM   23  C   UNL     1     -10.874   9.159  69.182  1.00  0.00    -0.131 C  
BRANCH  23  24
HETATM   24  C   UNL     1      -9.869   9.121  68.051  1.00  0.00    -0.168 C  
HETATM   25  H   UNL     1      -9.886   8.690  66.139  1.00  0.00     0.000 HD 
HETATM   26  O   UNL     1     -10.517   8.715  66.849  1.00  0.00    -0.294 OA 
BRANCH  24  27
HETATM   27  C   UNL     1      -9.222  10.508  67.862  1.00  0.00    -0.140 C  
BRANCH  27  28
HETATM   28  O   UNL     1      -9.567  11.072  66.586  1.00  0.00    -0.183 OA 
BRANCH  28  29
HETATM   29  C   UNL     1     -10.367  12.185  66.661  1.00  0.00    -0.208 A  
HETATM   30  C   UNL     1     -11.033  12.749  65.569  1.00  0.00    -0.310 A  
HETATM   31  C   UNL     1     -11.839  13.877  65.741  1.00  0.00    -0.393 A  
HETATM   32  C   UNL     1     -11.989  14.441  67.006  1.00  0.00    -0.424 A  
HETATM   33  C   UNL     1     -11.343  13.883  68.115  1.00  0.00    -0.324 A  
HETATM   34  C   UNL     1     -11.503  14.494  69.485  1.00  0.00    -0.288 C  
HETATM   35  C   UNL     1     -10.540  12.742  67.932  1.00  0.00    -0.232 A  
HETATM   36  F   UNL     1     -12.275  15.620  69.488  1.00  0.00    -0.349 F  
HETATM   37  F   UNL     1     -10.314  14.863  70.036  1.00  0.00    -0.214 F  
HETATM   38  F   UNL     1     -12.085  13.646  70.375  1.00  0.00    -0.358 F  
ENDBRANCH  28  29
ENDBRANCH  27  28
ENDBRANCH  24  27
ENDBRANCH  23  24
ENDBRANCH  20  22
ENDBRANCH  12  13
ENDBRANCH  11  12
ENDBRANCH   9  10
ENDBRANCH   8   9
ENDBRANCH   7   8
ENDBRANCH   5   7
ENDBRANCH   4   5
ENDBRANCH   2   4
TORSDOF 13
ENDMDL
MODEL       79
REMARK 921   NORMALIZED FREE ENERGY PREDICTED BY IDOCK:   -6.09 KCAL/MOL
REMARK 922        TOTAL FREE ENERGY PREDICTED BY IDOCK:  -12.94 KCAL/MOL
REMARK 923 INTER-LIGAND FREE ENERGY PREDICTED BY IDOCK:  -10.63 KCAL/MOL
REMARK 924 INTRA-LIGAND FREE ENERGY PREDICTED BY IDOCK:   -2.31 KCAL/MOL
REMARK 927      BINDING AFFINITY PREDICTED BY RF-SCORE:    0.00 PKD
ROOT
HETATM    1  C   UNL     1      -7.626   7.361  65.257  1.00  0.00    -0.098 C  
HETATM    2  C   UNL     1      -8.417   6.077  65.486  1.00  0.00    -0.151 C  
HETATM    3  C   UNL     1      -7.671   4.875  64.917  1.00  0.00    -0.083 C  
ENDROOT
BRANCH   2   4
HETATM    4  O   UNL     1      -8.573   5.861  66.900  1.00  0.00    -0.112 OA 
BRANCH   4   5
HETATM    5  C   UNL     1      -9.738   5.253  67.263  1.00  0.00    -0.149 C  
HETATM    6  O   UNL     1     -10.738   5.177  66.562  1.00  0.00    -0.300 OA 
BRANCH   5   7
HETATM    7  C   UNL     1      -9.641   4.740  68.675  1.00  0.00    -0.223 C  
BRANCH   7   8
HETATM    8  C   UNL     1     -10.496   5.605  69.602  1.00  0.00    -0.374 C  
BRANCH   8   9
HETATM    9  C   UNL     1     -10.148   5.446  71.079  1.00  0.00    -0.281 C  
BRANCH   9  10
HETATM   10  C   UNL     1      -9.315   6.582  71.606  1.00  0.00    -0.147 C  
HETATM   11  C   UNL     1      -9.752   7.584  72.385  1.00  0.00    -0.208 C  
BRANCH  11  12
HETATM   12  C   UNL     1     -11.176   7.804  72.815  1.00  0.00    -0.456 C  
BRANCH  12  13
HETATM   13  C   UNL     1     -12.060   8.376  71.700  1.00  0.00    -0.359 C  
HETATM   14  C   UNL     1     -13.561   8.429  72.008  1.00  0.00    -0.357 C  
HETATM   15  O   UNL     1     -13.808   8.787  73.364  1.00  0.00    -1.077 OA 
HETATM   16  C   UNL     1     -14.083   9.544  71.109  1.00  0.00     0.083 C  
HETATM   17  C   UNL     1     -12.990  10.606  71.178  1.00  0.00    -0.387 C  
HETATM   18  H   UNL     1     -14.739   8.820  73.555  1.00  0.00     0.000 HD 
HETATM   19  O   UNL     1     -13.210  11.451  72.312  1.00  0.00    -0.599 OA 
HETATM   20  C   UNL     1     -11.658   9.837  71.351  1.00  0.00    -0.452 C  
HETATM   21  H   UNL     1     -12.529  12.112  72.355  1.00  0.00     0.000 HD 
BRANCH  20  22
HETATM   22  C   UNL     1     -10.704   9.831  70.170  1.00  0.00    -0.339 C  
HETATM   23  C   UNL     1     -10.902   9.224  68.985  1.00  0.00    -0.136 C  
BRANCH  23  24
HETATM   24  C   UNL     1      -9.938   9.161  67.820  1.00  0.00    -0.189 C  
HETATM   25  H   UNL     1     -10.004   8.610  65.940  1.00  0.00     0.000 HD 
HETATM   26  O   UNL     1     -10.609   8.650  66.672  1.00  0.00    -0.240 OA 
BRANCH  24  27
HETATM   27  C   UNL     1      -9.367  10.562  67.520  1.00  0.00    -0.149 C  
BRANCH  27  28
HETATM   28  O   UNL     1      -8.814  10.625  66.196  1.00  0.00    -0.156 OA 
BRANCH  28  29
HETATM   29  C   UNL     1      -9.626  11.236  65.274  1.00  0.00    -0.232 A  
HETATM   30  C   UNL     1      -9.784  10.802  63.955  1.00  0.00    -0.367 A  
HETATM   31  C   UNL     1     -10.645  11.479  63.088  1.00  0.00    -0.323 A  
HETATM   32  C   UNL     1     -11.358  12.587  63.538  1.00  0.00    -0.556 A  
HETATM   33  C   UNL     1     -11.227  13.029  64.860  1.00  0.00    -0.329 A  
HETATM   34  C   UNL     1     -11.998  14.230  65.348  1.00  0.00    -0.383 C  
HETATM   35  C   UNL     1     -10.363  12.335  65.727  1.00  0.00    -0.287 A  
HETATM   36  F   UNL     1     -12.755  14.818  64.377  1.00  0.00    -0.459 F  
HETATM   37  F   UNL     1     -11.187  15.214  65.827  1.00  0.00    -0.334 F  
HETATM   38  F   UNL     1     -12.861  13.928  66.356  1.00  0.00    -0.419 F  
ENDBRANCH  28  29
ENDBRANCH  27  28
ENDBRANCH  24  27
ENDBRANCH  23  24
ENDBRANCH  20  22
ENDBRANCH  12  13
ENDBRANCH  11  12
ENDBRANCH   9  10
ENDBRANCH   8   9
ENDBRANCH   7   8
ENDBRANCH   5   7
ENDBRANCH   4   5
ENDBRANCH   2   4
TORSDOF 13
ENDMDL
MODEL       80
REMARK 921   NORMALIZED FREE ENERGY PREDICTED BY IDOCK:   -6.08 KCAL/MOL
REMARK 922        TOTAL FREE ENERGY PREDICTED BY IDOCK:  -12.93 KCAL/MOL
REMARK 923 INTER-LIGAND FREE ENERGY PREDICTED BY IDOCK:  -10.46 KCAL/MOL
REMARK 924 INTRA-LIGAND FREE ENERGY PREDICTED BY IDOCK:   -2.47 KCAL/MOL
REMARK 927      BINDING AFFINITY PREDICTED BY RF-SCORE:    0.00 PKD
ROOT
HETATM    1  C   UNL     1     -12.743  15.234  73.860  1.00  0.00    -0.662 C  
HETATM    2  C   UNL     1     -13.154  14.438  72.627  1.00  0.00    -0.476 C  
HETATM    3  C   UNL     1     -14.353  15.085  71.941  1.00  0.00    -0.677 C  
ENDROOT
BRANCH   2   4
HETATM    4  O   UNL     1     -12.067  14.429  71.683  1.00  0.00    -0.341 OA 
BRANCH   4   5
HETATM    5  C   UNL     1     -11.703  15.657  71.216  1.00  0.00    -0.422 C  
HETATM    6  O   UNL     1     -11.543  16.652  71.909  1.00  0.00    -0.366 OA 
BRANCH   5   7
HETATM    7  C   UNL     1     -11.583  15.629  69.715  1.00  0.00    -0.360 C  
BRANCH   7   8
HETATM    8  C   UNL     1     -10.491  16.600  69.264  1.00  0.00    -0.333 C  
BRANCH   8   9
HETATM    9  C   UNL     1     -10.891  17.451  68.062  1.00  0.00    -0.281 C  
BRANCH   9  10
HETATM   10  C   UNL     1     -10.429  18.878  68.179  1.00  0.00    -0.387 C  
HETATM   11  C   UNL     1      -9.489  19.466  67.422  1.00  0.00    -0.397 C  
BRANCH  11  12
HETATM   12  C   UNL     1      -8.662  18.789  66.365  1.00  0.00    -0.294 C  
BRANCH  12  13
HETATM   13  C   UNL     1      -7.171  18.723  66.717  1.00  0.00    -0.228 C  
HETATM   14  C   UNL     1      -6.326  19.909  66.236  1.00  0.00    -0.185 C  
HETATM   15  O   UNL     1      -7.030  21.141  66.355  1.00  0.00    -0.520 OA 
HETATM   16  C   UNL     1      -5.142  19.931  67.197  1.00  0.00    -0.156 C  
HETATM   17  C   UNL     1      -5.768  19.608  68.550  1.00  0.00    -0.209 C  
HETATM   18  H   UNL     1      -6.505  21.875  66.057  1.00  0.00     0.000 HD 
HETATM   19  O   UNL     1      -6.253  20.810  69.157  1.00  0.00    -0.291 OA 
HETATM   20  C   UNL     1      -6.955  18.658  68.256  1.00  0.00    -0.262 C  
HETATM   21  H   UNL     1      -6.643  20.609  69.999  1.00  0.00     0.000 HD 
BRANCH  20  22
HETATM   22  C   UNL     1      -6.804  17.209  68.685  1.00  0.00    -0.197 C  
HETATM   23  C   UNL     1      -6.364  16.191  67.922  1.00  0.00    -0.156 C  
BRANCH  23  24
HETATM   24  C   UNL     1      -6.262  14.734  68.317  1.00  0.00    -0.124 C  
HETATM   25  H   UNL     1      -6.489  13.676  69.952  1.00  0.00     0.000 HD 
HETATM   26  O   UNL     1      -6.554  14.591  69.704  1.00  0.00    -0.133 OA 
BRANCH  24  27
HETATM   27  C   UNL     1      -7.238  13.882  67.480  1.00  0.00    -0.161 C  
BRANCH  27  28
HETATM   28  O   UNL     1      -8.147  14.712  66.739  1.00  0.00    -0.101 OA 
BRANCH  28  29
HETATM   29  C   UNL     1      -9.423  14.215  66.657  1.00  0.00    -0.289 A  
HETATM   30  C   UNL     1     -10.355  14.598  65.688  1.00  0.00    -0.370 A  
HETATM   31  C   UNL     1     -11.631  14.028  65.673  1.00  0.00    -0.332 A  
HETATM   32  C   UNL     1     -11.977  13.068  66.620  1.00  0.00    -0.453 A  
HETATM   33  C   UNL     1     -11.053  12.659  67.589  1.00  0.00    -0.303 A  
HETATM   34  C   UNL     1     -11.428  11.619  68.617  1.00  0.00    -0.290 C  
HETATM   35  C   UNL     1      -9.769  13.233  67.591  1.00  0.00    -0.219 A  
HETATM   36  F   UNL     1     -12.721  11.195  68.510  1.00  0.00     0.024 F  
HETATM   37  F   UNL     1     -11.295  12.074  69.894  1.00  0.00    -0.313 F  
HETATM   38  F   UNL     1     -10.663  10.497  68.534  1.00  0.00    -0.193 F  
ENDBRANCH  28  29
ENDBRANCH  27  28
ENDBRANCH  24  27
ENDBRANCH  23  24
ENDBRANCH  20  22
ENDBRANCH  12  13
ENDBRANCH  11  12
ENDBRANCH   9  10
ENDBRANCH   8   9
ENDBRANCH   7   8
ENDBRANCH   5   7
ENDBRANCH   4   5
ENDBRANCH   2   4
TORSDOF 13
ENDMDL
MODEL       81
REMARK 921   NORMALIZED FREE ENERGY PREDICTED BY IDOCK:   -6.07 KCAL/MOL
REMARK 922        TOTAL FREE ENERGY PREDICTED BY IDOCK:  -12.90 KCAL/MOL
REMARK 923 INTER-LIGAND FREE ENERGY PREDICTED BY IDOCK:  -10.06 KCAL/MOL
REMARK 924 INTRA-LIGAND FREE ENERGY PREDICTED BY IDOCK:   -2.84 KCAL/MOL
REMARK 927      BINDING AFFINITY PREDICTED BY RF-SCORE:    0.00 PKD
ROOT
HETATM    1  C   UNL     1     -11.114  15.825  67.598  1.00  0.00    -0.283 C  
HETATM    2  C   UNL     1     -10.897  15.312  66.179  1.00  0.00    -0.320 C  
HETATM    3  C   UNL     1      -9.473  14.794  66.004  1.00  0.00    -0.299 C  
ENDROOT
BRANCH   2   4
HETATM    4  O   UNL     1     -11.792  14.214  65.928  1.00  0.00    -0.357 OA 
BRANCH   4   5
HETATM    5  C   UNL     1     -12.244  14.123  64.645  1.00  0.00    -0.445 C  
HETATM    6  O   UNL     1     -12.532  15.076  63.933  1.00  0.00    -0.790 OA 
BRANCH   5   7
HETATM    7  C   UNL     1     -12.396  12.680  64.246  1.00  0.00    -0.517 C  
BRANCH   7   8
HETATM    8  C   UNL     1     -11.281  11.846  64.878  1.00  0.00    -0.350 C  
BRANCH   8   9
HETATM    9  C   UNL     1     -10.168  11.476  63.903  1.00  0.00    -0.411 C  
BRANCH   9  10
HETATM   10  C   UNL     1      -9.448  10.214  64.293  1.00  0.00    -0.366 C  
HETATM   11  C   UNL     1      -8.548  10.094  65.282  1.00  0.00    -0.169 C  
BRANCH  11  12
HETATM   12  C   UNL     1      -8.031  11.216  66.140  1.00  0.00    -0.090 C  
BRANCH  12  13
HETATM   13  C   UNL     1      -7.059  10.742  67.228  1.00  0.00    -0.091 C  
HETATM   14  C   UNL     1      -5.685  11.423  67.228  1.00  0.00    -0.079 C  
HETATM   15  O   UNL     1      -5.784  12.809  66.918  1.00  0.00    -0.449 OA 
HETATM   16  C   UNL     1      -5.204  11.280  68.667  1.00  0.00    -0.043 C  
HETATM   17  C   UNL     1      -6.461  11.523  69.496  1.00  0.00    -0.124 C  
HETATM   18  H   UNL     1      -4.932  13.230  66.919  1.00  0.00     0.000 HD 
HETATM   19  O   UNL     1      -6.630  12.927  69.717  1.00  0.00    -0.311 OA 
HETATM   20  C   UNL     1      -7.641  10.984  68.650  1.00  0.00    -0.124 C  
HETATM   21  H   UNL     1      -7.413  13.078  70.233  1.00  0.00     0.000 HD 
BRANCH  20  22
HETATM   22  C   UNL     1      -8.321   9.718  69.140  1.00  0.00    -0.137 C  
HETATM   23  C   UNL     1      -8.212   9.174  70.366  1.00  0.00    -0.188 C  
BRANCH  23  24
HETATM   24  C   UNL     1      -8.837   7.884  70.852  1.00  0.00    -0.138 C  
HETATM   25  H   UNL     1      -9.344   7.103  72.577  1.00  0.00     0.000 HD 
HETATM   26  O   UNL     1      -8.952   7.913  72.272  1.00  0.00    -0.130 OA 
BRANCH  24  27
HETATM   27  C   UNL     1     -10.227   7.689  70.213  1.00  0.00    -0.205 C  
BRANCH  27  28
HETATM   28  O   UNL     1     -11.272   7.814  71.191  1.00  0.00    -0.255 OA 
BRANCH  28  29
HETATM   29  C   UNL     1     -11.883   9.043  71.209  1.00  0.00    -0.312 A  
HETATM   30  C   UNL     1     -12.788   9.457  72.189  1.00  0.00    -0.480 A  
HETATM   31  C   UNL     1     -13.352  10.734  72.134  1.00  0.00    -0.314 A  
HETATM   32  C   UNL     1     -13.008  11.605  71.103  1.00  0.00    -0.308 A  
HETATM   33  C   UNL     1     -12.091  11.215  70.119  1.00  0.00    -0.443 A  
HETATM   34  C   UNL     1     -11.718  12.157  69.002  1.00  0.00    -0.322 C  
HETATM   35  C   UNL     1     -11.522   9.930  70.189  1.00  0.00    -0.309 A  
HETATM   36  F   UNL     1     -12.388  13.345  69.049  1.00  0.00    -0.343 F  
HETATM   37  F   UNL     1     -11.979  11.638  67.770  1.00  0.00    -0.360 F  
HETATM   38  F   UNL     1     -10.396  12.479  69.003  1.00  0.00    -0.199 F  
ENDBRANCH  28  29
ENDBRANCH  27  28
ENDBRANCH  24  27
ENDBRANCH  23  24
ENDBRANCH  20  22
ENDBRANCH  12  13
ENDBRANCH  11  12
ENDBRANCH   9  10
ENDBRANCH   8   9
ENDBRANCH   7   8
ENDBRANCH   5   7
ENDBRANCH   4   5
ENDBRANCH   2   4
TORSDOF 13
ENDMDL
MODEL       82
REMARK 921   NORMALIZED FREE ENERGY PREDICTED BY IDOCK:   -6.06 KCAL/MOL
REMARK 922        TOTAL FREE ENERGY PREDICTED BY IDOCK:  -12.89 KCAL/MOL
REMARK 923 INTER-LIGAND FREE ENERGY PREDICTED BY IDOCK:   -9.67 KCAL/MOL
REMARK 924 INTRA-LIGAND FREE ENERGY PREDICTED BY IDOCK:   -3.22 KCAL/MOL
REMARK 927      BINDING AFFINITY PREDICTED BY RF-SCORE:    0.00 PKD
ROOT
HETATM    1  C   UNL     1     -11.272   9.946  70.559  1.00  0.00    -0.399 C  
HETATM    2  C   UNL     1     -12.426  10.939  70.477  1.00  0.00    -0.351 C  
HETATM    3  C   UNL     1     -13.129  11.064  71.825  1.00  0.00    -0.554 C  
ENDROOT
BRANCH   2   4
HETATM    4  O   UNL     1     -11.911  12.238  70.134  1.00  0.00    -0.334 OA 
BRANCH   4   5
HETATM    5  C   UNL     1     -11.742  12.455  68.798  1.00  0.00    -0.332 C  
HETATM    6  O   UNL     1     -12.139  11.711  67.911  1.00  0.00    -0.613 OA 
BRANCH   5   7
HETATM    7  C   UNL     1     -10.944  13.710  68.570  1.00  0.00    -0.289 C  
BRANCH   7   8
HETATM    8  C   UNL     1     -11.293  14.306  67.206  1.00  0.00    -0.350 C  
BRANCH   8   9
HETATM    9  C   UNL     1     -10.288  13.956  66.112  1.00  0.00    -0.303 C  
BRANCH   9  10
HETATM   10  C   UNL     1     -10.885  13.107  65.023  1.00  0.00    -0.331 C  
HETATM   11  C   UNL     1     -10.450  11.896  64.640  1.00  0.00    -0.340 C  
BRANCH  11  12
HETATM   12  C   UNL     1      -9.234  11.191  65.174  1.00  0.00    -0.209 C  
BRANCH  12  13
HETATM   13  C   UNL     1      -9.496  10.458  66.496  1.00  0.00    -0.204 C  
HETATM   14  C   UNL     1     -10.125   9.066  66.366  1.00  0.00    -0.281 C  
HETATM   15  O   UNL     1      -9.601   8.353  65.250  1.00  0.00    -0.323 OA 
HETATM   16  C   UNL     1      -9.701   8.349  67.642  1.00  0.00    -0.201 C  
HETATM   17  C   UNL     1      -8.258   8.801  67.849  1.00  0.00    -0.111 C  
HETATM   18  H   UNL     1      -9.991   7.490  65.170  1.00  0.00     0.000 HD 
HETATM   19  O   UNL     1      -7.376   7.951  67.108  1.00  0.00    -0.087 OA 
HETATM   20  C   UNL     1      -8.179  10.244  67.295  1.00  0.00    -0.121 C  
HETATM   21  H   UNL     1      -6.478   8.233  67.237  1.00  0.00     0.000 HD 
BRANCH  20  22
HETATM   22  C   UNL     1      -8.013  11.365  68.306  1.00  0.00    -0.136 C  
HETATM   23  C   UNL     1      -7.194  12.427  68.195  1.00  0.00    -0.100 C  
BRANCH  23  24
HETATM   24  C   UNL     1      -6.975  13.522  69.217  1.00  0.00    -0.008 C  
HETATM   25  H   UNL     1      -5.812  13.819  70.767  1.00  0.00     0.000 HD 
HETATM   26  O   UNL     1      -5.949  13.131  70.125  1.00  0.00    -0.143 OA 
BRANCH  24  27
HETATM   27  C   UNL     1      -6.588  14.840  68.516  1.00  0.00    -0.094 C  
BRANCH  27  28
HETATM   28  O   UNL     1      -6.443  15.910  69.464  1.00  0.00    -0.165 OA 
BRANCH  28  29
HETATM   29  C   UNL     1      -7.029  17.089  69.077  1.00  0.00    -0.229 A  
HETATM   30  C   UNL     1      -6.427  18.344  69.204  1.00  0.00    -0.270 A  
HETATM   31  C   UNL     1      -7.094  19.492  68.769  1.00  0.00    -0.383 A  
HETATM   32  C   UNL     1      -8.360  19.390  68.198  1.00  0.00    -0.363 A  
HETATM   33  C   UNL     1      -8.974  18.141  68.048  1.00  0.00    -0.289 A  
HETATM   34  C   UNL     1     -10.346  18.029  67.431  1.00  0.00    -0.382 C  
HETATM   35  C   UNL     1      -8.291  16.990  68.481  1.00  0.00    -0.260 A  
HETATM   36  F   UNL     1     -10.892  19.236  67.105  1.00  0.00    -0.498 F  
HETATM   37  F   UNL     1     -11.246  17.431  68.260  1.00  0.00    -0.308 F  
HETATM   38  F   UNL     1     -10.349  17.300  66.282  1.00  0.00    -0.310 F  
ENDBRANCH  28  29
ENDBRANCH  27  28
ENDBRANCH  24  27
ENDBRANCH  23  24
ENDBRANCH  20  22
ENDBRANCH  12  13
ENDBRANCH  11  12
ENDBRANCH   9  10
ENDBRANCH   8   9
ENDBRANCH   7   8
ENDBRANCH   5   7
ENDBRANCH   4   5
ENDBRANCH   2   4
TORSDOF 13
ENDMDL
MODEL       83
REMARK 921   NORMALIZED FREE ENERGY PREDICTED BY IDOCK:   -6.06 KCAL/MOL
REMARK 922        TOTAL FREE ENERGY PREDICTED BY IDOCK:  -12.88 KCAL/MOL
REMARK 923 INTER-LIGAND FREE ENERGY PREDICTED BY IDOCK:  -10.03 KCAL/MOL
REMARK 924 INTRA-LIGAND FREE ENERGY PREDICTED BY IDOCK:   -2.85 KCAL/MOL
REMARK 927      BINDING AFFINITY PREDICTED BY RF-SCORE:    0.00 PKD
ROOT
HETATM    1  C   UNL     1      -6.418  10.038  63.496  1.00  0.00    -0.130 C  
HETATM    2  C   UNL     1      -7.715   9.913  64.287  1.00  0.00    -0.139 C  
HETATM    3  C   UNL     1      -8.753   9.119  63.501  1.00  0.00    -0.148 C  
ENDROOT
BRANCH   2   4
HETATM    4  O   UNL     1      -7.458   9.199  65.510  1.00  0.00    -0.088 OA 
BRANCH   4   5
HETATM    5  C   UNL     1      -8.108   9.684  66.606  1.00  0.00    -0.119 C  
HETATM    6  O   UNL     1      -8.917   9.058  67.276  1.00  0.00    -0.126 OA 
BRANCH   5   7
HETATM    7  C   UNL     1      -7.733  11.123  66.840  1.00  0.00    -0.148 C  
BRANCH   7   8
HETATM    8  C   UNL     1      -7.978  11.492  68.303  1.00  0.00    -0.142 C  
BRANCH   8   9
HETATM    9  C   UNL     1      -7.256  12.763  68.741  1.00  0.00    -0.077 C  
BRANCH   9  10
HETATM   10  C   UNL     1      -7.113  13.764  67.628  1.00  0.00    -0.187 C  
HETATM   11  C   UNL     1      -7.679  14.981  67.584  1.00  0.00    -0.186 C  
BRANCH  11  12
HETATM   12  C   UNL     1      -8.629  15.544  68.604  1.00  0.00    -0.179 C  
BRANCH  12  13
HETATM   13  C   UNL     1      -9.785  16.335  67.978  1.00  0.00    -0.230 C  
HETATM   14  C   UNL     1     -10.019  17.735  68.560  1.00  0.00    -0.370 C  
HETATM   15  O   UNL     1      -8.792  18.391  68.864  1.00  0.00    -0.256 OA 
HETATM   16  C   UNL     1     -10.707  18.492  67.431  1.00  0.00    -0.424 C  
HETATM   17  C   UNL     1      -9.977  18.018  66.178  1.00  0.00    -0.285 C  
HETATM   18  H   UNL     1      -8.938  19.258  69.224  1.00  0.00     0.000 HD 
HETATM   19  O   UNL     1      -8.809  18.817  65.970  1.00  0.00    -0.479 OA 
HETATM   20  C   UNL     1      -9.563  16.552  66.455  1.00  0.00    -0.309 C  
HETATM   21  H   UNL     1      -8.354  18.521  65.189  1.00  0.00     0.000 HD 
BRANCH  20  22
HETATM   22  C   UNL     1     -10.291  15.469  65.678  1.00  0.00    -0.407 C  
HETATM   23  C   UNL     1     -11.506  14.962  65.960  1.00  0.00    -0.275 C  
BRANCH  23  24
HETATM   24  C   UNL     1     -12.220  13.845  65.231  1.00  0.00    -0.433 C  
HETATM   25  H   UNL     1     -12.090  12.967  63.483  1.00  0.00     0.000 HD 
HETATM   26  O   UNL     1     -11.641  13.668  63.941  1.00  0.00    -0.356 OA 
BRANCH  24  27
HETATM   27  C   UNL     1     -12.128  12.534  66.037  1.00  0.00    -0.321 C  
BRANCH  27  28
HETATM   28  O   UNL     1     -11.113  12.617  67.051  1.00  0.00    -0.259 OA 
BRANCH  28  29
HETATM   29  C   UNL     1     -11.548  12.290  68.311  1.00  0.00    -0.331 A  
HETATM   30  C   UNL     1     -11.727  10.981  68.765  1.00  0.00    -0.383 A  
HETATM   31  C   UNL     1     -12.161  10.741  70.071  1.00  0.00    -0.409 A  
HETATM   32  C   UNL     1     -12.410  11.808  70.931  1.00  0.00    -0.420 A  
HETATM   33  C   UNL     1     -12.222  13.126  70.501  1.00  0.00    -0.405 A  
HETATM   34  C   UNL     1     -12.492  14.283  71.431  1.00  0.00    -0.360 C  
HETATM   35  C   UNL     1     -11.776  13.357  69.186  1.00  0.00    -0.375 A  
HETATM   36  F   UNL     1     -12.960  13.896  72.653  1.00  0.00    -0.449 F  
HETATM   37  F   UNL     1     -13.422  15.146  70.937  1.00  0.00    -0.431 F  
HETATM   38  F   UNL     1     -11.381  15.029  71.680  1.00  0.00    -0.393 F  
ENDBRANCH  28  29
ENDBRANCH  27  28
ENDBRANCH  24  27
ENDBRANCH  23  24
ENDBRANCH  20  22
ENDBRANCH  12  13
ENDBRANCH  11  12
ENDBRANCH   9  10
ENDBRANCH   8   9
ENDBRANCH   7   8
ENDBRANCH   5   7
ENDBRANCH   4   5
ENDBRANCH   2   4
TORSDOF 13
ENDMDL
MODEL       84
REMARK 921   NORMALIZED FREE ENERGY PREDICTED BY IDOCK:   -6.05 KCAL/MOL
REMARK 922        TOTAL FREE ENERGY PREDICTED BY IDOCK:  -12.88 KCAL/MOL
REMARK 923 INTER-LIGAND FREE ENERGY PREDICTED BY IDOCK:  -10.42 KCAL/MOL
REMARK 924 INTRA-LIGAND FREE ENERGY PREDICTED BY IDOCK:   -2.46 KCAL/MOL
REMARK 927      BINDING AFFINITY PREDICTED BY RF-SCORE:    0.00 PKD
ROOT
HETATM    1  C   UNL     1     -14.143   7.945  71.675  1.00  0.00    -0.528 C  
HETATM    2  C   UNL     1     -12.845   8.745  71.669  1.00  0.00    -0.348 C  
HETATM    3  C   UNL     1     -13.130  10.236  71.526  1.00  0.00    -0.534 C  
ENDROOT
BRANCH   2   4
HETATM    4  O   UNL     1     -12.163   8.552  72.921  1.00  0.00    -0.270 OA 
BRANCH   4   5
HETATM    5  C   UNL     1     -11.076   7.731  72.862  1.00  0.00    -0.398 C  
HETATM    6  O   UNL     1     -10.789   6.885  73.697  1.00  0.00    -0.315 OA 
BRANCH   5   7
HETATM    7  C   UNL     1     -10.243   8.054  71.650  1.00  0.00    -0.256 C  
BRANCH   7   8
HETATM    8  C   UNL     1      -9.364   6.856  71.290  1.00  0.00    -0.164 C  
BRANCH   8   9
HETATM    9  C   UNL     1     -10.088   5.794  70.467  1.00  0.00    -0.269 C  
BRANCH   9  10
HETATM   10  C   UNL     1     -11.150   6.374  69.573  1.00  0.00    -0.460 C  
HETATM   11  C   UNL     1     -11.192   6.278  68.235  1.00  0.00    -0.251 C  
BRANCH  11  12
HETATM   12  C   UNL     1     -10.144   5.638  67.367  1.00  0.00    -0.206 C  
BRANCH  12  13
HETATM   13  C   UNL     1      -8.937   6.550  67.110  1.00  0.00    -0.113 C  
HETATM   14  C   UNL     1      -7.696   5.856  66.537  1.00  0.00    -0.100 C  
HETATM   15  O   UNL     1      -8.043   4.854  65.587  1.00  0.00    -0.108 OA 
HETATM   16  C   UNL     1      -6.951   6.972  65.814  1.00  0.00    -0.060 C  
HETATM   17  C   UNL     1      -8.063   7.781  65.153  1.00  0.00    -0.137 C  
HETATM   18  H   UNL     1      -7.273   4.424  65.232  1.00  0.00     0.000 HD 
HETATM   19  O   UNL     1      -8.387   7.207  63.883  1.00  0.00    -0.350 OA 
HETATM   20  C   UNL     1      -9.285   7.678  66.098  1.00  0.00    -0.168 C  
HETATM   21  H   UNL     1      -9.080   7.711  63.472  1.00  0.00     0.000 HD 
BRANCH  20  22
HETATM   22  C   UNL     1      -9.681   8.933  66.856  1.00  0.00    -0.263 C  
HETATM   23  C   UNL     1      -9.340   9.245  68.120  1.00  0.00    -0.143 C  
BRANCH  23  24
HETATM   24  C   UNL     1      -9.772  10.463  68.908  1.00  0.00    -0.198 C  
HETATM   25  H   UNL     1      -9.146  12.304  69.151  1.00  0.00     0.000 HD 
HETATM   26  O   UNL     1      -8.874  11.540  68.656  1.00  0.00    -0.163 OA 
BRANCH  24  27
HETATM   27  C   UNL     1     -11.208  10.869  68.521  1.00  0.00    -0.274 C  
BRANCH  27  28
HETATM   28  O   UNL     1     -11.437  12.267  68.765  1.00  0.00    -0.261 OA 
BRANCH  28  29
HETATM   29  C   UNL     1     -11.485  13.036  67.629  1.00  0.00    -0.324 A  
HETATM   30  C   UNL     1     -11.191  14.401  67.591  1.00  0.00    -0.328 A  
HETATM   31  C   UNL     1     -11.254  15.103  66.385  1.00  0.00    -0.277 A  
HETATM   32  C   UNL     1     -11.604  14.441  65.210  1.00  0.00    -0.353 A  
HETATM   33  C   UNL     1     -11.888  13.071  65.224  1.00  0.00    -0.413 A  
HETATM   34  C   UNL     1     -12.268  12.353  63.952  1.00  0.00    -0.513 C  
HETATM   35  C   UNL     1     -11.813  12.372  66.442  1.00  0.00    -0.421 A  
HETATM   36  F   UNL     1     -12.340  13.177  62.867  1.00  0.00    -0.570 F  
HETATM   37  F   UNL     1     -13.486  11.749  64.036  1.00  0.00    -0.421 F  
HETATM   38  F   UNL     1     -11.384  11.375  63.615  1.00  0.00    -0.461 F  
ENDBRANCH  28  29
ENDBRANCH  27  28
ENDBRANCH  24  27
ENDBRANCH  23  24
ENDBRANCH  20  22
ENDBRANCH  12  13
ENDBRANCH  11  12
ENDBRANCH   9  10
ENDBRANCH   8   9
ENDBRANCH   7   8
ENDBRANCH   5   7
ENDBRANCH   4   5
ENDBRANCH   2   4
TORSDOF 13
ENDMDL
MODEL       85
REMARK 921   NORMALIZED FREE ENERGY PREDICTED BY IDOCK:   -6.01 KCAL/MOL
REMARK 922        TOTAL FREE ENERGY PREDICTED BY IDOCK:  -12.80 KCAL/MOL
REMARK 923 INTER-LIGAND FREE ENERGY PREDICTED BY IDOCK:  -10.52 KCAL/MOL
REMARK 924 INTRA-LIGAND FREE ENERGY PREDICTED BY IDOCK:   -2.27 KCAL/MOL
REMARK 927      BINDING AFFINITY PREDICTED BY RF-SCORE:    0.00 PKD
ROOT
HETATM    1  C   UNL     1      -9.964   6.180  71.184  1.00  0.00    -0.218 C  
HETATM    2  C   UNL     1     -11.057   6.680  72.122  1.00  0.00    -0.254 C  
HETATM    3  C   UNL     1     -10.454   7.211  73.419  1.00  0.00    -0.410 C  
ENDROOT
BRANCH   2   4
HETATM    4  O   UNL     1     -11.761   7.766  71.495  1.00  0.00    -0.265 OA 
BRANCH   4   5
HETATM    5  C   UNL     1     -13.115   7.742  71.656  1.00  0.00    -0.345 C  
HETATM    6  O   UNL     1     -13.853   6.849  71.264  1.00  0.00    -0.222 OA 
BRANCH   5   7
HETATM    7  C   UNL     1     -13.582   9.002  72.336  1.00  0.00    -0.533 C  
BRANCH   7   8
HETATM    8  C   UNL     1     -12.722  10.184  71.886  1.00  0.00    -0.493 C  
BRANCH   8   9
HETATM    9  C   UNL     1     -13.461  11.518  71.906  1.00  0.00    -0.275 C  
BRANCH   9  10
HETATM   10  C   UNL     1     -12.653  12.641  71.316  1.00  0.00    -0.339 C  
HETATM   11  C   UNL     1     -12.028  12.622  70.128  1.00  0.00    -0.375 C  
BRANCH  11  12
HETATM   12  C   UNL     1     -11.953  11.446  69.194  1.00  0.00    -0.395 C  
BRANCH  12  13
HETATM   13  C   UNL     1     -10.639  11.388  68.404  1.00  0.00    -0.230 C  
HETATM   14  C   UNL     1      -9.437  10.812  69.163  1.00  0.00    -0.134 C  
HETATM   15  O   UNL     1      -9.814   9.721  69.996  1.00  0.00    -0.227 OA 
HETATM   16  C   UNL     1      -8.523  10.289  68.062  1.00  0.00    -0.118 C  
HETATM   17  C   UNL     1      -9.486   9.666  67.056  1.00  0.00    -0.154 C  
HETATM   18  H   UNL     1      -9.069   9.365  70.467  1.00  0.00     0.000 HD 
HETATM   19  O   UNL     1      -9.768   8.314  67.432  1.00  0.00    -0.155 OA 
HETATM   20  C   UNL     1     -10.783  10.508  67.129  1.00  0.00    -0.323 C  
HETATM   21  H   UNL     1     -10.369   7.927  66.805  1.00  0.00     0.000 HD 
BRANCH  20  22
HETATM   22  C   UNL     1     -11.102  11.394  65.938  1.00  0.00    -0.225 C  
HETATM   23  C   UNL     1     -10.491  12.548  65.613  1.00  0.00    -0.299 C  
BRANCH  23  24
HETATM   24  C   UNL     1     -10.833  13.469  64.462  1.00  0.00    -0.410 C  
HETATM   25  H   UNL     1     -12.315  13.687  63.197  1.00  0.00     0.000 HD 
HETATM   26  O   UNL     1     -12.100  13.108  63.920  1.00  0.00    -0.430 OA 
BRANCH  24  27
HETATM   27  C   UNL     1     -10.860  14.936  64.939  1.00  0.00    -0.413 C  
BRANCH  27  28
HETATM   28  O   UNL     1      -9.619  15.301  65.565  1.00  0.00    -0.317 OA 
BRANCH  28  29
HETATM   29  C   UNL     1      -9.745  16.231  66.566  1.00  0.00    -0.263 A  
HETATM   30  C   UNL     1      -9.314  17.556  66.466  1.00  0.00    -0.281 A  
HETATM   31  C   UNL     1      -9.496  18.440  67.533  1.00  0.00    -0.277 A  
HETATM   32  C   UNL     1     -10.118  18.004  68.701  1.00  0.00    -0.401 A  
HETATM   33  C   UNL     1     -10.571  16.685  68.815  1.00  0.00    -0.340 A  
HETATM   34  C   UNL     1     -11.243  16.212  70.081  1.00  0.00    -0.370 C  
HETATM   35  C   UNL     1     -10.390  15.806  67.732  1.00  0.00    -0.275 A  
HETATM   36  F   UNL     1     -11.302  17.168  71.052  1.00  0.00    -0.090 F  
HETATM   37  F   UNL     1     -10.604  15.151  70.648  1.00  0.00    -0.290 F  
HETATM   38  F   UNL     1     -12.528  15.812  69.877  1.00  0.00    -0.379 F  
ENDBRANCH  28  29
ENDBRANCH  27  28
ENDBRANCH  24  27
ENDBRANCH  23  24
ENDBRANCH  20  22
ENDBRANCH  12  13
ENDBRANCH  11  12
ENDBRANCH   9  10
ENDBRANCH   8   9
ENDBRANCH   7   8
ENDBRANCH   5   7
ENDBRANCH   4   5
ENDBRANCH   2   4
TORSDOF 13
ENDMDL
MODEL       86
REMARK 921   NORMALIZED FREE ENERGY PREDICTED BY IDOCK:   -5.98 KCAL/MOL
REMARK 922        TOTAL FREE ENERGY PREDICTED BY IDOCK:  -12.74 KCAL/MOL
REMARK 923 INTER-LIGAND FREE ENERGY PREDICTED BY IDOCK:  -10.17 KCAL/MOL
REMARK 924 INTRA-LIGAND FREE ENERGY PREDICTED BY IDOCK:   -2.57 KCAL/MOL
REMARK 927      BINDING AFFINITY PREDICTED BY RF-SCORE:    0.00 PKD
ROOT
HETATM    1  C   UNL     1     -10.409  17.158  67.210  1.00  0.00    -0.320 C  
HETATM    2  C   UNL     1     -10.692  15.967  66.301  1.00  0.00    -0.261 C  
HETATM    3  C   UNL     1      -9.434  15.127  66.105  1.00  0.00    -0.354 C  
ENDROOT
BRANCH   2   4
HETATM    4  O   UNL     1     -11.684  15.125  66.915  1.00  0.00    -0.244 OA 
BRANCH   4   5
HETATM    5  C   UNL     1     -12.188  14.149  66.109  1.00  0.00    -0.442 C  
HETATM    6  O   UNL     1     -12.733  14.340  65.030  1.00  0.00    -0.625 OA 
BRANCH   5   7
HETATM    7  C   UNL     1     -12.032  12.801  66.761  1.00  0.00    -0.389 C  
BRANCH   7   8
HETATM    8  C   UNL     1     -11.840  12.972  68.268  1.00  0.00    -0.381 C  
BRANCH   8   9
HETATM    9  C   UNL     1     -10.909  11.934  68.887  1.00  0.00    -0.261 C  
BRANCH   9  10
HETATM   10  C   UNL     1     -11.308  10.522  68.554  1.00  0.00    -0.320 C  
HETATM   11  C   UNL     1     -10.651   9.691  67.730  1.00  0.00    -0.320 C  
BRANCH  11  12
HETATM   12  C   UNL     1      -9.432  10.039  66.920  1.00  0.00    -0.203 C  
BRANCH  12  13
HETATM   13  C   UNL     1      -9.489   9.499  65.485  1.00  0.00    -0.334 C  
HETATM   14  C   UNL     1      -9.936  10.506  64.418  1.00  0.00    -0.343 C  
HETATM   15  O   UNL     1      -9.412  11.806  64.668  1.00  0.00    -0.408 OA 
HETATM   16  C   UNL     1      -9.321   9.974  63.129  1.00  0.00    -0.297 C  
HETATM   17  C   UNL     1      -7.939   9.491  63.559  1.00  0.00    -0.139 C  
HETATM   18  H   UNL     1      -9.690  12.430  64.006  1.00  0.00     0.000 HD 
HETATM   19  O   UNL     1      -7.014  10.583  63.522  1.00  0.00    -0.316 OA 
HETATM   20  C   UNL     1      -8.096   8.991  65.016  1.00  0.00    -0.137 C  
HETATM   21  H   UNL     1      -6.154  10.282  63.791  1.00  0.00     0.000 HD 
BRANCH  20  22
HETATM   22  C   UNL     1      -8.000   7.493  65.247  1.00  0.00    -0.126 C  
HETATM   23  C   UNL     1      -8.910   6.720  65.869  1.00  0.00    -0.127 C  
BRANCH  23  24
HETATM   24  C   UNL     1      -8.804   5.238  66.157  1.00  0.00    -0.135 C  
HETATM   25  H   UNL     1      -7.610   4.061  67.172  1.00  0.00     0.000 HD 
HETATM   26  O   UNL     1      -7.677   4.992  66.992  1.00  0.00    -0.091 OA 
BRANCH  24  27
HETATM   27  C   UNL     1     -10.090   4.731  66.840  1.00  0.00    -0.210 C  
BRANCH  27  28
HETATM   28  O   UNL     1     -10.770   5.797  67.523  1.00  0.00    -0.252 OA 
BRANCH  28  29
HETATM   29  C   UNL     1     -10.677   5.739  68.891  1.00  0.00    -0.263 A  
HETATM   30  C   UNL     1     -10.015   4.726  69.591  1.00  0.00    -0.297 A  
HETATM   31  C   UNL     1      -9.959   4.754  70.987  1.00  0.00    -0.279 A  
HETATM   32  C   UNL     1     -10.557   5.799  71.688  1.00  0.00    -0.302 A  
HETATM   33  C   UNL     1     -11.212   6.831  71.005  1.00  0.00    -0.335 A  
HETATM   34  C   UNL     1     -11.861   7.962  71.764  1.00  0.00    -0.293 C  
HETATM   35  C   UNL     1     -11.255   6.797  69.599  1.00  0.00    -0.345 A  
HETATM   36  F   UNL     1     -11.771   7.826  73.119  1.00  0.00    -0.368 F  
HETATM   37  F   UNL     1     -13.190   8.078  71.494  1.00  0.00    -0.315 F  
HETATM   38  F   UNL     1     -11.310   9.173  71.477  1.00  0.00    -0.335 F  
ENDBRANCH  28  29
ENDBRANCH  27  28
ENDBRANCH  24  27
ENDBRANCH  23  24
ENDBRANCH  20  22
ENDBRANCH  12  13
ENDBRANCH  11  12
ENDBRANCH   9  10
ENDBRANCH   8   9
ENDBRANCH   7   8
ENDBRANCH   5   7
ENDBRANCH   4   5
ENDBRANCH   2   4
TORSDOF 13
ENDMDL
MODEL       87
REMARK 921   NORMALIZED FREE ENERGY PREDICTED BY IDOCK:   -5.96 KCAL/MOL
REMARK 922        TOTAL FREE ENERGY PREDICTED BY IDOCK:  -12.70 KCAL/MOL
REMARK 923 INTER-LIGAND FREE ENERGY PREDICTED BY IDOCK:  -10.09 KCAL/MOL
REMARK 924 INTRA-LIGAND FREE ENERGY PREDICTED BY IDOCK:   -2.61 KCAL/MOL
REMARK 927      BINDING AFFINITY PREDICTED BY RF-SCORE:    0.00 PKD
ROOT
HETATM    1  C   UNL     1     -10.276  10.458  65.761  1.00  0.00    -0.305 C  
HETATM    2  C   UNL     1     -10.687  11.708  64.991  1.00  0.00    -0.296 C  
HETATM    3  C   UNL     1     -10.896  11.387  63.514  1.00  0.00    -0.430 C  
ENDROOT
BRANCH   2   4
HETATM    4  O   UNL     1     -11.937  12.196  65.510  1.00  0.00    -0.461 OA 
BRANCH   4   5
HETATM    5  C   UNL     1     -12.148  13.531  65.337  1.00  0.00    -0.415 C  
HETATM    6  O   UNL     1     -13.235  14.048  65.114  1.00  0.00    -0.768 OA 
BRANCH   5   7
HETATM    7  C   UNL     1     -10.842  14.278  65.398  1.00  0.00    -0.348 C  
BRANCH   7   8
HETATM    8  C   UNL     1     -11.020  15.569  66.199  1.00  0.00    -0.247 C  
BRANCH   8   9
HETATM    9  C   UNL     1     -10.695  16.830  65.403  1.00  0.00    -0.201 C  
BRANCH   9  10
HETATM   10  C   UNL     1     -10.028  17.889  66.237  1.00  0.00    -0.333 C  
HETATM   11  C   UNL     1      -8.724  17.938  66.553  1.00  0.00    -0.278 C  
BRANCH  11  12
HETATM   12  C   UNL     1      -7.695  16.901  66.198  1.00  0.00    -0.259 C  
BRANCH  12  13
HETATM   13  C   UNL     1      -6.953  16.346  67.421  1.00  0.00    -0.196 C  
HETATM   14  C   UNL     1      -5.478  16.747  67.537  1.00  0.00    -0.142 C  
HETATM   15  O   UNL     1      -5.265  18.095  67.129  1.00  0.00    -0.126 OA 
HETATM   16  C   UNL     1      -5.184  16.640  69.029  1.00  0.00    -0.120 C  
HETATM   17  C   UNL     1      -6.445  17.190  69.688  1.00  0.00    -0.170 C  
HETATM   18  H   UNL     1      -4.351  18.343  67.201  1.00  0.00     0.000 HD 
HETATM   19  O   UNL     1      -6.351  18.614  69.796  1.00  0.00    -0.249 OA 
HETATM   20  C   UNL     1      -7.616  16.816  68.746  1.00  0.00    -0.240 C  
HETATM   21  H   UNL     1      -7.137  18.956  70.206  1.00  0.00     0.000 HD 
BRANCH  20  22
HETATM   22  C   UNL     1      -8.583  15.751  69.234  1.00  0.00    -0.259 C  
HETATM   23  C   UNL     1      -9.874  15.934  69.565  1.00  0.00    -0.268 C  
BRANCH  23  24
HETATM   24  C   UNL     1     -10.834  14.897  70.106  1.00  0.00    -0.134 C  
HETATM   25  H   UNL     1     -12.724  14.829  70.621  1.00  0.00     0.000 HD 
HETATM   26  O   UNL     1     -12.122  15.480  70.281  1.00  0.00    -0.340 OA 
BRANCH  24  27
HETATM   27  C   UNL     1     -10.923  13.696  69.143  1.00  0.00    -0.194 C  
BRANCH  27  28
HETATM   28  O   UNL     1     -12.188  13.025  69.265  1.00  0.00    -0.231 OA 
BRANCH  28  29
HETATM   29  C   UNL     1     -12.138  11.854  69.980  1.00  0.00    -0.291 A  
HETATM   30  C   UNL     1     -12.859  11.618  71.153  1.00  0.00    -0.392 A  
HETATM   31  C   UNL     1     -12.756  10.389  71.808  1.00  0.00    -0.525 A  
HETATM   32  C   UNL     1     -11.939   9.387  71.290  1.00  0.00    -0.430 A  
HETATM   33  C   UNL     1     -11.220   9.598  70.107  1.00  0.00    -0.302 A  
HETATM   34  C   UNL     1     -10.333   8.515  69.545  1.00  0.00    -0.218 C  
HETATM   35  C   UNL     1     -11.337  10.837  69.450  1.00  0.00    -0.351 A  
HETATM   36  F   UNL     1     -10.292   7.393  70.320  1.00  0.00    -0.200 F  
HETATM   37  F   UNL     1      -9.038   8.916  69.410  1.00  0.00    -0.138 F  
HETATM   38  F   UNL     1     -10.728   8.097  68.312  1.00  0.00    -0.233 F  
ENDBRANCH  28  29
ENDBRANCH  27  28
ENDBRANCH  24  27
ENDBRANCH  23  24
ENDBRANCH  20  22
ENDBRANCH  12  13
ENDBRANCH  11  12
ENDBRANCH   9  10
ENDBRANCH   8   9
ENDBRANCH   7   8
ENDBRANCH   5   7
ENDBRANCH   4   5
ENDBRANCH   2   4
TORSDOF 13
ENDMDL
MODEL       88
REMARK 921   NORMALIZED FREE ENERGY PREDICTED BY IDOCK:   -5.96 KCAL/MOL
REMARK 922        TOTAL FREE ENERGY PREDICTED BY IDOCK:  -12.70 KCAL/MOL
REMARK 923 INTER-LIGAND FREE ENERGY PREDICTED BY IDOCK:   -9.45 KCAL/MOL
REMARK 924 INTRA-LIGAND FREE ENERGY PREDICTED BY IDOCK:   -3.25 KCAL/MOL
REMARK 927      BINDING AFFINITY PREDICTED BY RF-SCORE:    0.00 PKD
ROOT
HETATM    1  C   UNL     1     -10.312  18.275  66.270  1.00  0.00    -0.422 C  
HETATM    2  C   UNL     1     -10.053  17.283  67.398  1.00  0.00    -0.307 C  
HETATM    3  C   UNL     1     -10.027  17.994  68.747  1.00  0.00    -0.380 C  
ENDROOT
BRANCH   2   4
HETATM    4  O   UNL     1     -11.120  16.318  67.436  1.00  0.00    -0.232 OA 
BRANCH   4   5
HETATM    5  C   UNL     1     -10.835  15.123  66.847  1.00  0.00    -0.317 C  
HETATM    6  O   UNL     1      -9.816  14.877  66.216  1.00  0.00    -0.262 OA 
BRANCH   5   7
HETATM    7  C   UNL     1     -11.981  14.163  67.031  1.00  0.00    -0.471 C  
BRANCH   7   8
HETATM    8  C   UNL     1     -11.788  13.366  68.321  1.00  0.00    -0.393 C  
BRANCH   8   9
HETATM    9  C   UNL     1     -11.811  11.855  68.114  1.00  0.00    -0.338 C  
BRANCH   9  10
HETATM   10  C   UNL     1     -11.112  11.430  66.851  1.00  0.00    -0.356 C  
HETATM   11  C   UNL     1      -9.831  11.043  66.752  1.00  0.00    -0.229 C  
BRANCH  11  12
HETATM   12  C   UNL     1      -8.826  11.035  67.871  1.00  0.00    -0.134 C  
BRANCH  12  13
HETATM   13  C   UNL     1      -8.707   9.671  68.563  1.00  0.00    -0.120 C  
HETATM   14  C   UNL     1      -7.372   8.944  68.364  1.00  0.00    -0.082 C  
HETATM   15  O   UNL     1      -6.272   9.848  68.382  1.00  0.00    -0.049 OA 
HETATM   16  C   UNL     1      -7.267   8.028  69.578  1.00  0.00    -0.070 C  
HETATM   17  C   UNL     1      -7.802   8.882  70.724  1.00  0.00    -0.119 C  
HETATM   18  H   UNL     1      -5.445   9.397  68.258  1.00  0.00     0.000 HD 
HETATM   19  O   UNL     1      -6.744   9.681  71.264  1.00  0.00    -0.293 OA 
HETATM   20  C   UNL     1      -8.883   9.801  70.103  1.00  0.00    -0.226 C  
HETATM   21  H   UNL     1      -7.077  10.213  71.977  1.00  0.00     0.000 HD 
BRANCH  20  22
HETATM   22  C   UNL     1     -10.328   9.517  70.473  1.00  0.00    -0.350 C  
HETATM   23  C   UNL     1     -10.783   9.130  71.679  1.00  0.00    -0.441 C  
BRANCH  23  24
HETATM   24  C   UNL     1     -12.210   8.789  72.049  1.00  0.00    -0.377 C  
HETATM   25  H   UNL     1     -13.925   9.733  72.150  1.00  0.00     0.000 HD 
HETATM   26  O   UNL     1     -13.029   9.947  71.917  1.00  0.00    -0.399 OA 
BRANCH  24  27
HETATM   27  C   UNL     1     -12.743   7.658  71.146  1.00  0.00    -0.206 C  
BRANCH  27  28
HETATM   28  O   UNL     1     -12.160   6.393  71.500  1.00  0.00    -0.328 OA 
BRANCH  28  29
HETATM   29  C   UNL     1     -11.146   5.988  70.668  1.00  0.00    -0.301 A  
HETATM   30  C   UNL     1     -10.050   5.226  71.078  1.00  0.00    -0.289 A  
HETATM   31  C   UNL     1      -9.070   4.847  70.157  1.00  0.00    -0.157 A  
HETATM   32  C   UNL     1      -9.187   5.221  68.820  1.00  0.00    -0.145 A  
HETATM   33  C   UNL     1     -10.286   5.972  68.386  1.00  0.00    -0.220 A  
HETATM   34  C   UNL     1     -10.412   6.379  66.939  1.00  0.00    -0.272 C  
HETATM   35  C   UNL     1     -11.271   6.341  69.320  1.00  0.00    -0.458 A  
HETATM   36  F   UNL     1      -9.356   5.983  66.171  1.00  0.00    -0.162 F  
HETATM   37  F   UNL     1     -10.497   7.729  66.780  1.00  0.00    -0.347 F  
HETATM   38  F   UNL     1     -11.518   5.859  66.340  1.00  0.00    -0.198 F  
ENDBRANCH  28  29
ENDBRANCH  27  28
ENDBRANCH  24  27
ENDBRANCH  23  24
ENDBRANCH  20  22
ENDBRANCH  12  13
ENDBRANCH  11  12
ENDBRANCH   9  10
ENDBRANCH   8   9
ENDBRANCH   7   8
ENDBRANCH   5   7
ENDBRANCH   4   5
ENDBRANCH   2   4
TORSDOF 13
ENDMDL
MODEL       89
REMARK 921   NORMALIZED FREE ENERGY PREDICTED BY IDOCK:   -5.95 KCAL/MOL
REMARK 922        TOTAL FREE ENERGY PREDICTED BY IDOCK:  -12.70 KCAL/MOL
REMARK 923 INTER-LIGAND FREE ENERGY PREDICTED BY IDOCK:  -10.10 KCAL/MOL
REMARK 924 INTRA-LIGAND FREE ENERGY PREDICTED BY IDOCK:   -2.60 KCAL/MOL
REMARK 927      BINDING AFFINITY PREDICTED BY RF-SCORE:    0.00 PKD
ROOT
HETATM    1  C   UNL     1      -9.979  10.275  64.820  1.00  0.00    -0.392 C  
HETATM    2  C   UNL     1     -10.188  11.450  63.871  1.00  0.00    -0.363 C  
HETATM    3  C   UNL     1      -9.351  11.280  62.607  1.00  0.00    -0.313 C  
ENDROOT
BRANCH   2   4
HETATM    4  O   UNL     1     -11.570  11.499  63.473  1.00  0.00    -0.397 OA 
BRANCH   4   5
HETATM    5  C   UNL     1     -12.212  12.664  63.770  1.00  0.00    -0.514 C  
HETATM    6  O   UNL     1     -12.296  13.629  63.022  1.00  0.00    -0.672 OA 
BRANCH   5   7
HETATM    7  C   UNL     1     -12.754  12.620  65.174  1.00  0.00    -0.329 C  
BRANCH   7   8
HETATM    8  C   UNL     1     -12.012  13.630  66.049  1.00  0.00    -0.447 C  
BRANCH   8   9
HETATM    9  C   UNL     1     -11.516  13.046  67.368  1.00  0.00    -0.380 C  
BRANCH   9  10
HETATM   10  C   UNL     1     -11.473  11.543  67.361  1.00  0.00    -0.349 C  
HETATM   11  C   UNL     1     -11.728  10.742  68.408  1.00  0.00    -0.232 C  
BRANCH  11  12
HETATM   12  C   UNL     1     -12.030  11.198  69.809  1.00  0.00    -0.428 C  
BRANCH  12  13
HETATM   13  C   UNL     1     -11.565  10.202  70.879  1.00  0.00    -0.459 C  
HETATM   14  C   UNL     1     -12.661   9.674  71.811  1.00  0.00    -0.420 C  
HETATM   15  O   UNL     1     -13.882   9.448  71.114  1.00  0.00    -0.487 OA 
HETATM   16  C   UNL     1     -12.122   8.332  72.292  1.00  0.00    -0.439 C  
HETATM   17  C   UNL     1     -11.468   7.738  71.048  1.00  0.00    -0.281 C  
HETATM   18  H   UNL     1     -14.562   9.121  71.693  1.00  0.00     0.000 HD 
HETATM   19  O   UNL     1     -12.449   7.039  70.275  1.00  0.00    -0.617 OA 
HETATM   20  C   UNL     1     -10.924   8.939  70.236  1.00  0.00    -0.266 C  
HETATM   21  H   UNL     1     -12.042   6.669  69.500  1.00  0.00     0.000 HD 
BRANCH  20  22
HETATM   22  C   UNL     1      -9.417   9.109  70.179  1.00  0.00    -0.235 C  
HETATM   23  C   UNL     1      -8.746  10.098  69.559  1.00  0.00    -0.189 C  
BRANCH  23  24
HETATM   24  C   UNL     1      -7.245  10.251  69.445  1.00  0.00    -0.104 C  
HETATM   25  H   UNL     1      -5.659   9.436  70.260  1.00  0.00     0.000 HD 
HETATM   26  O   UNL     1      -6.602   9.340  70.332  1.00  0.00    -0.052 OA 
BRANCH  24  27
HETATM   27  C   UNL     1      -6.788   9.991  67.995  1.00  0.00    -0.068 C  
BRANCH  27  28
HETATM   28  O   UNL     1      -6.311   8.645  67.834  1.00  0.00    -0.055 OA 
BRANCH  28  29
HETATM   29  C   UNL     1      -7.004   7.909  66.906  1.00  0.00    -0.073 A  
HETATM   30  C   UNL     1      -6.583   7.709  65.589  1.00  0.00    -0.045 A  
HETATM   31  C   UNL     1      -7.348   6.933  64.714  1.00  0.00    -0.088 A  
HETATM   32  C   UNL     1      -8.532   6.347  65.156  1.00  0.00    -0.072 A  
HETATM   33  C   UNL     1      -8.964   6.523  66.476  1.00  0.00    -0.152 A  
HETATM   34  C   UNL     1     -10.247   5.889  66.954  1.00  0.00    -0.214 C  
HETATM   35  C   UNL     1      -8.182   7.299  67.350  1.00  0.00    -0.116 A  
HETATM   36  F   UNL     1     -10.910   5.207  65.977  1.00  0.00    -0.315 F  
HETATM   37  F   UNL     1     -11.135   6.804  67.432  1.00  0.00    -0.347 F  
HETATM   38  F   UNL     1     -10.049   4.994  67.960  1.00  0.00    -0.191 F  
ENDBRANCH  28  29
ENDBRANCH  27  28
ENDBRANCH  24  27
ENDBRANCH  23  24
ENDBRANCH  20  22
ENDBRANCH  12  13
ENDBRANCH  11  12
ENDBRANCH   9  10
ENDBRANCH   8   9
ENDBRANCH   7   8
ENDBRANCH   5   7
ENDBRANCH   4   5
ENDBRANCH   2   4
TORSDOF 13
ENDMDL
MODEL       90
REMARK 921   NORMALIZED FREE ENERGY PREDICTED BY IDOCK:   -5.94 KCAL/MOL
REMARK 922        TOTAL FREE ENERGY PREDICTED BY IDOCK:  -12.68 KCAL/MOL
REMARK 923 INTER-LIGAND FREE ENERGY PREDICTED BY IDOCK:  -10.88 KCAL/MOL
REMARK 924 INTRA-LIGAND FREE ENERGY PREDICTED BY IDOCK:   -1.80 KCAL/MOL
REMARK 927      BINDING AFFINITY PREDICTED BY RF-SCORE:    0.00 PKD
ROOT
HETATM    1  C   UNL     1     -12.723  15.409  74.010  1.00  0.00    -0.652 C  
HETATM    2  C   UNL     1     -13.252  14.545  72.871  1.00  0.00    -0.515 C  
HETATM    3  C   UNL     1     -14.376  15.261  72.128  1.00  0.00    -0.651 C  
ENDROOT
BRANCH   2   4
HETATM    4  O   UNL     1     -12.193  14.304  71.926  1.00  0.00    -0.299 OA 
BRANCH   4   5
HETATM    5  C   UNL     1     -11.795  15.399  71.218  1.00  0.00    -0.380 C  
HETATM    6  O   UNL     1     -11.702  16.532  71.671  1.00  0.00    -0.415 OA 
BRANCH   5   7
HETATM    7  C   UNL     1     -11.544  15.028  69.781  1.00  0.00    -0.336 C  
BRANCH   7   8
HETATM    8  C   UNL     1     -10.539  16.000  69.162  1.00  0.00    -0.260 C  
BRANCH   8   9
HETATM    9  C   UNL     1     -11.019  16.623  67.855  1.00  0.00    -0.276 C  
BRANCH   9  10
HETATM   10  C   UNL     1     -10.780  18.107  67.794  1.00  0.00    -0.355 C  
HETATM   11  C   UNL     1      -9.823  18.722  67.081  1.00  0.00    -0.352 C  
BRANCH  11  12
HETATM   12  C   UNL     1      -8.757  18.040  66.269  1.00  0.00    -0.194 C  
BRANCH  12  13
HETATM   13  C   UNL     1      -7.340  18.291  66.802  1.00  0.00    -0.237 C  
HETATM   14  C   UNL     1      -6.780  19.696  66.550  1.00  0.00    -0.189 C  
HETATM   15  O   UNL     1      -7.782  20.697  66.697  1.00  0.00    -0.493 OA 
HETATM   16  C   UNL     1      -5.744  19.882  67.652  1.00  0.00    -0.202 C  
HETATM   17  C   UNL     1      -6.399  19.250  68.876  1.00  0.00    -0.258 C  
HETATM   18  H   UNL     1      -7.435  21.568  66.541  1.00  0.00     0.000 HD 
HETATM   19  O   UNL     1      -7.231  20.214  69.529  1.00  0.00    -0.142 OA 
HETATM   20  C   UNL     1      -7.270  18.087  68.341  1.00  0.00    -0.255 C  
HETATM   21  H   UNL     1      -7.640  19.820  70.292  1.00  0.00     0.000 HD 
BRANCH  20  22
HETATM   22  C   UNL     1      -6.800  16.675  68.644  1.00  0.00    -0.168 C  
HETATM   23  C   UNL     1      -6.209  15.827  67.782  1.00  0.00    -0.175 C  
BRANCH  23  24
HETATM   24  C   UNL     1      -5.787  14.399  68.051  1.00  0.00    -0.143 C  
HETATM   25  H   UNL     1      -5.215  13.347  69.603  1.00  0.00     0.000 HD 
HETATM   26  O   UNL     1      -5.481  14.243  69.434  1.00  0.00    -0.086 OA 
BRANCH  24  27
HETATM   27  C   UNL     1      -6.908  13.422  67.643  1.00  0.00    -0.165 C  
BRANCH  27  28
HETATM   28  O   UNL     1      -7.974  14.109  66.967  1.00  0.00    -0.129 OA 
BRANCH  28  29
HETATM   29  C   UNL     1      -9.165  13.427  66.956  1.00  0.00    -0.242 A  
HETATM   30  C   UNL     1      -9.623  12.630  68.008  1.00  0.00    -0.213 A  
HETATM   31  C   UNL     1     -10.858  11.982  67.916  1.00  0.00    -0.254 A  
HETATM   32  C   UNL     1     -11.643  12.135  66.776  1.00  0.00    -0.412 A  
HETATM   33  C   UNL     1     -11.209  12.941  65.717  1.00  0.00    -0.324 A  
HETATM   34  C   UNL     1     -12.057  13.107  64.480  1.00  0.00    -0.404 C  
HETATM   35  C   UNL     1      -9.968  13.596  65.823  1.00  0.00    -0.277 A  
HETATM   36  F   UNL     1     -13.208  12.373  64.512  1.00  0.00    -0.489 F  
HETATM   37  F   UNL     1     -11.409  12.725  63.346  1.00  0.00    -0.475 F  
HETATM   38  F   UNL     1     -12.446  14.395  64.277  1.00  0.00    -0.468 F  
ENDBRANCH  28  29
ENDBRANCH  27  28
ENDBRANCH  24  27
ENDBRANCH  23  24
ENDBRANCH  20  22
ENDBRANCH  12  13
ENDBRANCH  11  12
ENDBRANCH   9  10
ENDBRANCH   8   9
ENDBRANCH   7   8
ENDBRANCH   5   7
ENDBRANCH   4   5
ENDBRANCH   2   4
TORSDOF 13
ENDMDL
MODEL       91
REMARK 921   NORMALIZED FREE ENERGY PREDICTED BY IDOCK:   -5.94 KCAL/MOL
REMARK 922        TOTAL FREE ENERGY PREDICTED BY IDOCK:  -12.68 KCAL/MOL
REMARK 923 INTER-LIGAND FREE ENERGY PREDICTED BY IDOCK:  -10.56 KCAL/MOL
REMARK 924 INTRA-LIGAND FREE ENERGY PREDICTED BY IDOCK:   -2.12 KCAL/MOL
REMARK 927      BINDING AFFINITY PREDICTED BY RF-SCORE:    0.00 PKD
ROOT
HETATM    1  C   UNL     1      -6.245   6.876  71.228  1.00  0.00    -0.037 C  
HETATM    2  C   UNL     1      -6.991   8.101  71.745  1.00  0.00    -0.076 C  
HETATM    3  C   UNL     1      -6.631   9.338  70.928  1.00  0.00    -0.089 C  
ENDROOT
BRANCH   2   4
HETATM    4  O   UNL     1      -8.407   7.887  71.607  1.00  0.00    -0.104 OA 
BRANCH   4   5
HETATM    5  C   UNL     1      -9.125   8.040  72.756  1.00  0.00    -0.238 C  
HETATM    6  O   UNL     1      -8.713   7.788  73.880  1.00  0.00    -0.224 OA 
BRANCH   5   7
HETATM    7  C   UNL     1     -10.522   8.506  72.440  1.00  0.00    -0.367 C  
BRANCH   7   8
HETATM    8  C   UNL     1     -10.524   9.287  71.126  1.00  0.00    -0.401 C  
BRANCH   8   9
HETATM    9  C   UNL     1     -11.920   9.511  70.552  1.00  0.00    -0.197 C  
BRANCH   9  10
HETATM   10  C   UNL     1     -12.836  10.225  71.509  1.00  0.00    -0.557 C  
HETATM   11  C   UNL     1     -13.024  11.552  71.578  1.00  0.00    -0.485 C  
BRANCH  11  12
HETATM   12  C   UNL     1     -12.295  12.586  70.763  1.00  0.00    -0.376 C  
BRANCH  12  13
HETATM   13  C   UNL     1     -12.770  14.017  71.044  1.00  0.00    -0.431 C  
HETATM   14  C   UNL     1     -13.971  14.141  71.990  1.00  0.00    -0.513 C  
HETATM   15  O   UNL     1     -13.906  13.194  73.051  1.00  0.00    -0.554 OA 
HETATM   16  C   UNL     1     -13.832  15.540  72.580  1.00  0.00    -0.669 C  
HETATM   17  C   UNL     1     -12.332  15.688  72.812  1.00  0.00    -0.435 C  
HETATM   18  H   UNL     1     -14.650  13.271  73.637  1.00  0.00     0.000 HD 
HETATM   19  O   UNL     1     -11.985  15.142  74.088  1.00  0.00    -0.534 OA 
HETATM   20  C   UNL     1     -11.643  14.871  71.692  1.00  0.00    -0.347 C  
HETATM   21  H   UNL     1     -11.051  15.234  74.233  1.00  0.00     0.000 HD 
BRANCH  20  22
HETATM   22  C   UNL     1     -10.917  15.653  70.611  1.00  0.00    -0.364 C  
HETATM   23  C   UNL     1     -11.462  16.171  69.495  1.00  0.00    -0.292 C  
BRANCH  23  24
HETATM   24  C   UNL     1     -10.743  16.903  68.383  1.00  0.00    -0.368 C  
HETATM   25  H   UNL     1      -9.010  17.785  68.140  1.00  0.00     0.000 HD 
HETATM   26  O   UNL     1      -9.461  17.325  68.838  1.00  0.00    -0.265 OA 
BRANCH  24  27
HETATM   27  C   UNL     1     -10.593  15.989  67.150  1.00  0.00    -0.305 C  
BRANCH  27  28
HETATM   28  O   UNL     1      -9.229  15.571  66.976  1.00  0.00    -0.208 OA 
BRANCH  28  29
HETATM   29  C   UNL     1      -8.978  14.285  67.384  1.00  0.00    -0.201 A  
HETATM   30  C   UNL     1      -7.828  13.889  68.071  1.00  0.00    -0.154 A  
HETATM   31  C   UNL     1      -7.663  12.557  68.459  1.00  0.00    -0.113 A  
HETATM   32  C   UNL     1      -8.650  11.617  68.169  1.00  0.00    -0.158 A  
HETATM   33  C   UNL     1      -9.816  11.997  67.494  1.00  0.00    -0.190 A  
HETATM   34  C   UNL     1     -10.884  10.980  67.178  1.00  0.00    -0.282 C  
HETATM   35  C   UNL     1      -9.976  13.342  67.115  1.00  0.00    -0.242 A  
HETATM   36  F   UNL     1     -10.560   9.714  67.570  1.00  0.00    -0.265 F  
HETATM   37  F   UNL     1     -11.148  10.895  65.844  1.00  0.00    -0.249 F  
HETATM   38  F   UNL     1     -12.072  11.260  67.779  1.00  0.00    -0.272 F  
ENDBRANCH  28  29
ENDBRANCH  27  28
ENDBRANCH  24  27
ENDBRANCH  23  24
ENDBRANCH  20  22
ENDBRANCH  12  13
ENDBRANCH  11  12
ENDBRANCH   9  10
ENDBRANCH   8   9
ENDBRANCH   7   8
ENDBRANCH   5   7
ENDBRANCH   4   5
ENDBRANCH   2   4
TORSDOF 13
ENDMDL
MODEL       92
REMARK 921   NORMALIZED FREE ENERGY PREDICTED BY IDOCK:   -5.94 KCAL/MOL
REMARK 922        TOTAL FREE ENERGY PREDICTED BY IDOCK:  -12.68 KCAL/MOL
REMARK 923 INTER-LIGAND FREE ENERGY PREDICTED BY IDOCK:   -9.51 KCAL/MOL
REMARK 924 INTRA-LIGAND FREE ENERGY PREDICTED BY IDOCK:   -3.16 KCAL/MOL
REMARK 927      BINDING AFFINITY PREDICTED BY RF-SCORE:    0.00 PKD
ROOT
HETATM    1  C   UNL     1     -12.978  11.613  63.771  1.00  0.00    -0.031 C  
HETATM    2  C   UNL     1     -11.890  12.666  63.948  1.00  0.00    -0.467 C  
HETATM    3  C   UNL     1     -10.649  12.302  63.140  1.00  0.00    -0.136 C  
ENDROOT
BRANCH   2   4
HETATM    4  O   UNL     1     -12.370  13.932  63.459  1.00  0.00    -0.739 OA 
BRANCH   4   5
HETATM    5  C   UNL     1     -11.879  15.023  64.113  1.00  0.00    -0.167 C  
HETATM    6  O   UNL     1     -12.113  16.186  63.811  1.00  0.00    -0.946 OA 
BRANCH   5   7
HETATM    7  C   UNL     1     -10.959  14.595  65.225  1.00  0.00    -0.374 C  
BRANCH   7   8
HETATM    8  C   UNL     1     -11.373  15.274  66.531  1.00  0.00    -0.168 C  
BRANCH   8   9
HETATM    9  C   UNL     1     -11.953  14.310  67.562  1.00  0.00    -0.411 C  
BRANCH   9  10
HETATM   10  C   UNL     1     -11.783  12.868  67.172  1.00  0.00    -0.437 C  
HETATM   11  C   UNL     1     -11.688  11.829  68.016  1.00  0.00    -0.363 C  
BRANCH  11  12
HETATM   12  C   UNL     1     -11.656  11.917  69.517  1.00  0.00    -0.394 C  
BRANCH  12  13
HETATM   13  C   UNL     1     -10.791  10.828  70.166  1.00  0.00    -0.148 C  
HETATM   14  C   UNL     1     -11.548   9.810  71.027  1.00  0.00    -0.376 C  
HETATM   15  O   UNL     1     -12.808   9.470  70.456  1.00  0.00    -0.515 OA 
HETATM   16  C   UNL     1     -10.656   8.574  71.005  1.00  0.00    -0.267 C  
HETATM   17  C   UNL     1     -10.151   8.518  69.566  1.00  0.00    -0.200 C  
HETATM   18  H   UNL     1     -13.277   8.839  70.990  1.00  0.00     0.000 HD 
HETATM   19  O   UNL     1     -11.098   7.820  68.750  1.00  0.00    -0.418 OA 
HETATM   20  C   UNL     1     -10.041   9.988  69.094  1.00  0.00    -0.219 C  
HETATM   21  H   UNL     1     -10.783   7.786  67.854  1.00  0.00     0.000 HD 
BRANCH  20  22
HETATM   22  C   UNL     1      -8.643  10.549  68.899  1.00  0.00    -0.153 C  
HETATM   23  C   UNL     1      -7.985  10.667  67.732  1.00  0.00    -0.110 C  
BRANCH  23  24
HETATM   24  C   UNL     1      -6.572  11.171  67.527  1.00  0.00    -0.070 C  
HETATM   25  H   UNL     1      -5.325  11.359  66.027  1.00  0.00     0.000 HD 
HETATM   26  O   UNL     1      -6.212  11.043  66.155  1.00  0.00    -0.130 OA 
BRANCH  24  27
HETATM   27  C   UNL     1      -6.460  12.644  67.969  1.00  0.00    -0.093 C  
BRANCH  27  28
HETATM   28  O   UNL     1      -7.204  13.508  67.093  1.00  0.00    -0.064 OA 
BRANCH  28  29
HETATM   29  C   UNL     1      -7.861  14.528  67.734  1.00  0.00    -0.161 A  
HETATM   30  C   UNL     1      -8.591  14.373  68.916  1.00  0.00    -0.064 A  
HETATM   31  C   UNL     1      -9.218  15.473  69.506  1.00  0.00    -0.265 A  
HETATM   32  C   UNL     1      -9.112  16.733  68.923  1.00  0.00    -0.230 A  
HETATM   33  C   UNL     1      -8.373  16.912  67.747  1.00  0.00    -0.198 A  
HETATM   34  C   UNL     1      -8.259  18.277  67.114  1.00  0.00    -0.234 C  
HETATM   35  C   UNL     1      -7.738  15.800  67.165  1.00  0.00    -0.255 A  
HETATM   36  F   UNL     1      -8.966  19.240  67.772  1.00  0.00    -0.309 F  
HETATM   37  F   UNL     1      -8.715  18.298  65.831  1.00  0.00    -0.206 F  
HETATM   38  F   UNL     1      -6.976  18.729  67.066  1.00  0.00    -0.197 F  
ENDBRANCH  28  29
ENDBRANCH  27  28
ENDBRANCH  24  27
ENDBRANCH  23  24
ENDBRANCH  20  22
ENDBRANCH  12  13
ENDBRANCH  11  12
ENDBRANCH   9  10
ENDBRANCH   8   9
ENDBRANCH   7   8
ENDBRANCH   5   7
ENDBRANCH   4   5
ENDBRANCH   2   4
TORSDOF 13
ENDMDL
MODEL       93
REMARK 921   NORMALIZED FREE ENERGY PREDICTED BY IDOCK:   -5.92 KCAL/MOL
REMARK 922        TOTAL FREE ENERGY PREDICTED BY IDOCK:  -12.64 KCAL/MOL
REMARK 923 INTER-LIGAND FREE ENERGY PREDICTED BY IDOCK:  -10.00 KCAL/MOL
REMARK 924 INTRA-LIGAND FREE ENERGY PREDICTED BY IDOCK:   -2.64 KCAL/MOL
REMARK 927      BINDING AFFINITY PREDICTED BY RF-SCORE:    0.00 PKD
ROOT
HETATM    1  C   UNL     1     -10.513  19.731  67.562  1.00  0.00    -0.569 C  
HETATM    2  C   UNL     1     -10.146  18.800  66.412  1.00  0.00    -0.404 C  
HETATM    3  C   UNL     1      -8.635  18.610  66.332  1.00  0.00    -0.284 C  
ENDROOT
BRANCH   2   4
HETATM    4  O   UNL     1     -10.734  17.507  66.642  1.00  0.00    -0.237 OA 
BRANCH   4   5
HETATM    5  C   UNL     1     -10.775  16.692  65.549  1.00  0.00    -0.223 C  
HETATM    6  O   UNL     1     -11.212  17.011  64.452  1.00  0.00    -1.167 OA 
BRANCH   5   7
HETATM    7  C   UNL     1     -10.261  15.322  65.900  1.00  0.00    -0.353 C  
BRANCH   7   8
HETATM    8  C   UNL     1     -11.052  14.259  65.137  1.00  0.00    -0.354 C  
BRANCH   8   9
HETATM    9  C   UNL     1     -10.392  12.883  65.146  1.00  0.00    -0.320 C  
BRANCH   9  10
HETATM   10  C   UNL     1     -11.209  11.850  65.873  1.00  0.00    -0.373 C  
HETATM   11  C   UNL     1     -11.179  11.608  67.193  1.00  0.00    -0.371 C  
BRANCH  11  12
HETATM   12  C   UNL     1     -10.267  12.272  68.187  1.00  0.00    -0.212 C  
BRANCH  12  13
HETATM   13  C   UNL     1      -8.793  12.248  67.761  1.00  0.00    -0.174 C  
HETATM   14  C   UNL     1      -8.014  13.546  68.004  1.00  0.00    -0.151 C  
HETATM   15  O   UNL     1      -8.388  14.164  69.231  1.00  0.00    -0.353 OA 
HETATM   16  C   UNL     1      -6.564  13.091  68.112  1.00  0.00    -0.103 C  
HETATM   17  C   UNL     1      -6.651  11.791  68.905  1.00  0.00    -0.082 C  
HETATM   18  H   UNL     1      -7.906  14.968  69.381  1.00  0.00     0.000 HD 
HETATM   19  O   UNL     1      -6.640  12.080  70.307  1.00  0.00    -0.453 OA 
HETATM   20  C   UNL     1      -8.003  11.143  68.518  1.00  0.00    -0.143 C  
HETATM   21  H   UNL     1      -6.694  11.270  70.801  1.00  0.00     0.000 HD 
BRANCH  20  22
HETATM   22  C   UNL     1      -7.949   9.887  67.667  1.00  0.00    -0.109 C  
HETATM   23  C   UNL     1      -8.181   9.806  66.344  1.00  0.00    -0.120 C  
BRANCH  23  24
HETATM   24  C   UNL     1      -8.187   8.554  65.493  1.00  0.00    -0.137 C  
HETATM   25  H   UNL     1      -6.899   7.568  64.392  1.00  0.00     0.000 HD 
HETATM   26  O   UNL     1      -6.895   8.354  64.927  1.00  0.00    -0.070 OA 
BRANCH  24  27
HETATM   27  C   UNL     1      -8.589   7.331  66.342  1.00  0.00    -0.138 C  
BRANCH  27  28
HETATM   28  O   UNL     1      -9.996   7.339  66.630  1.00  0.00    -0.211 OA 
BRANCH  28  29
HETATM   29  C   UNL     1     -10.307   7.023  67.929  1.00  0.00    -0.199 A  
HETATM   30  C   UNL     1     -10.311   5.723  68.442  1.00  0.00    -0.269 A  
HETATM   31  C   UNL     1     -10.627   5.495  69.784  1.00  0.00    -0.388 A  
HETATM   32  C   UNL     1     -10.933   6.567  70.620  1.00  0.00    -0.340 A  
HETATM   33  C   UNL     1     -10.920   7.878  70.130  1.00  0.00    -0.235 A  
HETATM   34  C   UNL     1     -11.252   9.039  71.034  1.00  0.00    -0.295 C  
HETATM   35  C   UNL     1     -10.591   8.097  68.779  1.00  0.00    -0.149 A  
HETATM   36  F   UNL     1     -11.591   8.658  72.300  1.00  0.00    -0.381 F  
HETATM   37  F   UNL     1     -12.302   9.775  70.577  1.00  0.00    -0.307 F  
HETATM   38  F   UNL     1     -10.215   9.909  71.176  1.00  0.00    -0.327 F  
ENDBRANCH  28  29
ENDBRANCH  27  28
ENDBRANCH  24  27
ENDBRANCH  23  24
ENDBRANCH  20  22
ENDBRANCH  12  13
ENDBRANCH  11  12
ENDBRANCH   9  10
ENDBRANCH   8   9
ENDBRANCH   7   8
ENDBRANCH   5   7
ENDBRANCH   4   5
ENDBRANCH   2   4
TORSDOF 13
ENDMDL
MODEL       94
REMARK 921   NORMALIZED FREE ENERGY PREDICTED BY IDOCK:   -5.90 KCAL/MOL
REMARK 922        TOTAL FREE ENERGY PREDICTED BY IDOCK:  -12.61 KCAL/MOL
REMARK 923 INTER-LIGAND FREE ENERGY PREDICTED BY IDOCK:  -10.04 KCAL/MOL
REMARK 924 INTRA-LIGAND FREE ENERGY PREDICTED BY IDOCK:   -2.57 KCAL/MOL
REMARK 927      BINDING AFFINITY PREDICTED BY RF-SCORE:    0.00 PKD
ROOT
HETATM    1  C   UNL     1      -6.732   7.537  66.949  1.00  0.00    -0.066 C  
HETATM    2  C   UNL     1      -8.064   6.866  67.268  1.00  0.00    -0.118 C  
HETATM    3  C   UNL     1      -8.165   5.509  66.578  1.00  0.00    -0.105 C  
ENDROOT
BRANCH   2   4
HETATM    4  O   UNL     1      -8.154   6.639  68.686  1.00  0.00    -0.116 OA 
BRANCH   4   5
HETATM    5  C   UNL     1      -9.420   6.467  69.161  1.00  0.00    -0.135 C  
HETATM    6  O   UNL     1      -9.791   5.525  69.847  1.00  0.00    -0.166 OA 
BRANCH   5   7
HETATM    7  C   UNL     1     -10.316   7.573  68.670  1.00  0.00    -0.218 C  
BRANCH   7   8
HETATM    8  C   UNL     1     -10.947   8.297  69.860  1.00  0.00    -0.166 C  
BRANCH   8   9
HETATM    9  C   UNL     1     -10.634   9.789  69.903  1.00  0.00    -0.301 C  
BRANCH   9  10
HETATM   10  C   UNL     1     -11.578  10.607  69.065  1.00  0.00    -0.332 C  
HETATM   11  C   UNL     1     -12.277  11.675  69.482  1.00  0.00    -0.257 C  
BRANCH  11  12
HETATM   12  C   UNL     1     -12.309  12.211  70.886  1.00  0.00    -0.370 C  
BRANCH  12  13
HETATM   13  C   UNL     1     -12.836  13.649  70.970  1.00  0.00    -0.360 C  
HETATM   14  C   UNL     1     -14.196  13.815  71.658  1.00  0.00    -0.025 C  
HETATM   15  O   UNL     1     -14.331  12.943  72.776  1.00  0.00    -0.621 OA 
HETATM   16  C   UNL     1     -14.180  15.253  72.164  1.00  0.00    -0.667 C  
HETATM   17  C   UNL     1     -12.753  15.444  72.667  1.00  0.00    -0.392 C  
HETATM   18  H   UNL     1     -15.174  13.046  73.203  1.00  0.00     0.000 HD 
HETATM   19  O   UNL     1     -12.655  14.992  74.022  1.00  0.00    -0.542 OA 
HETATM   20  C   UNL     1     -11.858  14.565  71.759  1.00  0.00    -0.210 C  
HETATM   21  H   UNL     1     -11.766  15.111  74.335  1.00  0.00     0.000 HD 
BRANCH  20  22
HETATM   22  C   UNL     1     -10.943  15.286  70.785  1.00  0.00    -0.312 C  
HETATM   23  C   UNL     1     -11.091  15.353  69.449  1.00  0.00    -0.283 C  
BRANCH  23  24
HETATM   24  C   UNL     1     -10.158  16.018  68.460  1.00  0.00    -0.233 C  
HETATM   25  H   UNL     1      -8.427  16.937  68.523  1.00  0.00     0.000 HD 
HETATM   26  O   UNL     1      -9.013  16.519  69.144  1.00  0.00    -0.246 OA 
BRANCH  24  27
HETATM   27  C   UNL     1      -9.727  15.015  67.371  1.00  0.00    -0.216 C  
BRANCH  27  28
HETATM   28  O   UNL     1      -9.861  13.660  67.831  1.00  0.00    -0.224 OA 
BRANCH  28  29
HETATM   29  C   UNL     1      -9.917  12.727  66.826  1.00  0.00    -0.237 A  
HETATM   30  C   UNL     1      -9.057  11.630  66.723  1.00  0.00    -0.186 A  
HETATM   31  C   UNL     1      -9.196  10.722  65.671  1.00  0.00    -0.226 A  
HETATM   32  C   UNL     1     -10.200  10.901  64.722  1.00  0.00    -0.398 A  
HETATM   33  C   UNL     1     -11.081  11.985  64.816  1.00  0.00    -0.369 A  
HETATM   34  C   UNL     1     -12.168  12.180  63.788  1.00  0.00    -0.531 C  
HETATM   35  C   UNL     1     -10.938  12.889  65.884  1.00  0.00    -0.300 A  
HETATM   36  F   UNL     1     -12.147  11.247  62.793  1.00  0.00    -0.127 F  
HETATM   37  F   UNL     1     -12.085  13.387  63.161  1.00  0.00    -0.577 F  
HETATM   38  F   UNL     1     -13.417  12.120  64.324  1.00  0.00    -0.412 F  
ENDBRANCH  28  29
ENDBRANCH  27  28
ENDBRANCH  24  27
ENDBRANCH  23  24
ENDBRANCH  20  22
ENDBRANCH  12  13
ENDBRANCH  11  12
ENDBRANCH   9  10
ENDBRANCH   8   9
ENDBRANCH   7   8
ENDBRANCH   5   7
ENDBRANCH   4   5
ENDBRANCH   2   4
TORSDOF 13
ENDMDL
MODEL       95
REMARK 921   NORMALIZED FREE ENERGY PREDICTED BY IDOCK:   -5.90 KCAL/MOL
REMARK 922        TOTAL FREE ENERGY PREDICTED BY IDOCK:  -12.61 KCAL/MOL
REMARK 923 INTER-LIGAND FREE ENERGY PREDICTED BY IDOCK:   -9.07 KCAL/MOL
REMARK 924 INTRA-LIGAND FREE ENERGY PREDICTED BY IDOCK:   -3.54 KCAL/MOL
REMARK 927      BINDING AFFINITY PREDICTED BY RF-SCORE:    0.00 PKD
ROOT
HETATM    1  C   UNL     1     -10.249  14.750  65.404  1.00  0.00    -0.415 C  
HETATM    2  C   UNL     1     -11.754  14.579  65.578  1.00  0.00    -0.343 C  
HETATM    3  C   UNL     1     -12.369  13.919  64.349  1.00  0.00    -0.400 C  
ENDROOT
BRANCH   2   4
HETATM    4  O   UNL     1     -12.007  13.720  66.705  1.00  0.00    -0.388 OA 
BRANCH   4   5
HETATM    5  C   UNL     1     -11.758  14.281  67.922  1.00  0.00    -0.359 C  
HETATM    6  O   UNL     1     -12.021  15.435  68.230  1.00  0.00    -0.283 OA 
BRANCH   5   7
HETATM    7  C   UNL     1     -11.057  13.294  68.818  1.00  0.00    -0.303 C  
BRANCH   7   8
HETATM    8  C   UNL     1     -12.033  12.760  69.866  1.00  0.00    -0.368 C  
BRANCH   8   9
HETATM    9  C   UNL     1     -12.116  11.237  69.902  1.00  0.00    -0.414 C  
BRANCH   9  10
HETATM   10  C   UNL     1     -10.763  10.580  69.932  1.00  0.00    -0.301 C  
HETATM   11  C   UNL     1     -10.213   9.864  68.940  1.00  0.00    -0.209 C  
BRANCH  11  12
HETATM   12  C   UNL     1     -10.876   9.516  67.636  1.00  0.00    -0.253 C  
BRANCH  12  13
HETATM   13  C   UNL     1      -9.877   9.127  66.537  1.00  0.00    -0.333 C  
HETATM   14  C   UNL     1      -9.941   9.972  65.259  1.00  0.00    -0.298 C  
HETATM   15  O   UNL     1     -10.182  11.345  65.545  1.00  0.00    -0.242 OA 
HETATM   16  C   UNL     1      -8.545   9.839  64.660  1.00  0.00    -0.199 C  
HETATM   17  C   UNL     1      -7.623   9.895  65.875  1.00  0.00    -0.108 C  
HETATM   18  H   UNL     1     -10.221  11.868  64.753  1.00  0.00     0.000 HD 
HETATM   19  O   UNL     1      -7.330  11.259  66.195  1.00  0.00    -0.329 OA 
HETATM   20  C   UNL     1      -8.410   9.245  67.039  1.00  0.00    -0.120 C  
HETATM   21  H   UNL     1      -6.756  11.294  66.951  1.00  0.00     0.000 HD 
BRANCH  20  22
HETATM   22  C   UNL     1      -7.932   7.888  67.525  1.00  0.00    -0.123 C  
HETATM   23  C   UNL     1      -6.743   7.617  68.095  1.00  0.00    -0.059 C  
BRANCH  23  24
HETATM   24  C   UNL     1      -6.229   6.262  68.533  1.00  0.00    -0.032 C  
HETATM   25  H   UNL     1      -5.361   5.508  70.120  1.00  0.00     0.000 HD 
HETATM   26  O   UNL     1      -5.684   6.358  69.845  1.00  0.00    -0.014 OA 
BRANCH  24  27
HETATM   27  C   UNL     1      -7.368   5.223  68.507  1.00  0.00    -0.071 C  
BRANCH  27  28
HETATM   28  O   UNL     1      -7.920   5.024  69.819  1.00  0.00    -0.072 OA 
BRANCH  28  29
HETATM   29  C   UNL     1      -9.121   5.656  70.026  1.00  0.00    -0.137 A  
HETATM   30  C   UNL     1     -10.205   5.591  69.146  1.00  0.00    -0.309 A  
HETATM   31  C   UNL     1     -11.396   6.257  69.445  1.00  0.00    -0.448 A  
HETATM   32  C   UNL     1     -11.512   6.983  70.628  1.00  0.00    -0.367 A  
HETATM   33  C   UNL     1     -10.443   7.047  71.530  1.00  0.00    -0.222 A  
HETATM   34  C   UNL     1     -10.567   7.834  72.811  1.00  0.00    -0.341 C  
HETATM   35  C   UNL     1      -9.251   6.367  71.223  1.00  0.00    -0.158 A  
HETATM   36  F   UNL     1     -11.767   8.472  72.941  1.00  0.00    -0.423 F  
HETATM   37  F   UNL     1      -9.620   8.807  72.922  1.00  0.00    -0.290 F  
HETATM   38  F   UNL     1     -10.442   7.057  73.921  1.00  0.00    -0.342 F  
ENDBRANCH  28  29
ENDBRANCH  27  28
ENDBRANCH  24  27
ENDBRANCH  23  24
ENDBRANCH  20  22
ENDBRANCH  12  13
ENDBRANCH  11  12
ENDBRANCH   9  10
ENDBRANCH   8   9
ENDBRANCH   7   8
ENDBRANCH   5   7
ENDBRANCH   4   5
ENDBRANCH   2   4
TORSDOF 13
ENDMDL
MODEL       96
REMARK 921   NORMALIZED FREE ENERGY PREDICTED BY IDOCK:   -5.89 KCAL/MOL
REMARK 922        TOTAL FREE ENERGY PREDICTED BY IDOCK:  -12.59 KCAL/MOL
REMARK 923 INTER-LIGAND FREE ENERGY PREDICTED BY IDOCK:  -10.10 KCAL/MOL
REMARK 924 INTRA-LIGAND FREE ENERGY PREDICTED BY IDOCK:   -2.49 KCAL/MOL
REMARK 927      BINDING AFFINITY PREDICTED BY RF-SCORE:    0.00 PKD
ROOT
HETATM    1  C   UNL     1     -12.817   9.328  71.995  1.00  0.00    -0.495 C  
HETATM    2  C   UNL     1     -11.512   8.541  72.049  1.00  0.00    -0.361 C  
HETATM    3  C   UNL     1     -11.787   7.051  72.220  1.00  0.00    -0.272 C  
ENDROOT
BRANCH   2   4
HETATM    4  O   UNL     1     -10.802   8.712  70.809  1.00  0.00    -0.216 OA 
BRANCH   4   5
HETATM    5  C   UNL     1      -9.538   9.207  70.935  1.00  0.00    -0.279 C  
HETATM    6  O   UNL     1      -8.915   9.282  71.986  1.00  0.00    -0.251 OA 
BRANCH   5   7
HETATM    7  C   UNL     1      -9.037   9.704  69.605  1.00  0.00    -0.224 C  
BRANCH   7   8
HETATM    8  C   UNL     1      -7.598  10.202  69.746  1.00  0.00    -0.175 C  
BRANCH   8   9
HETATM    9  C   UNL     1      -7.359  11.564  69.102  1.00  0.00    -0.057 C  
BRANCH   9  10
HETATM   10  C   UNL     1      -8.148  11.757  67.836  1.00  0.00    -0.144 C  
HETATM   11  C   UNL     1      -8.258  12.902  67.143  1.00  0.00    -0.142 C  
BRANCH  11  12
HETATM   12  C   UNL     1      -7.676  14.230  67.542  1.00  0.00    -0.208 C  
BRANCH  12  13
HETATM   13  C   UNL     1      -8.708  15.365  67.535  1.00  0.00    -0.186 C  
HETATM   14  C   UNL     1      -8.344  16.593  68.378  1.00  0.00    -0.208 C  
HETATM   15  O   UNL     1      -6.955  16.895  68.297  1.00  0.00    -0.160 OA 
HETATM   16  C   UNL     1      -9.126  17.730  67.730  1.00  0.00    -0.249 C  
HETATM   17  C   UNL     1      -9.006  17.447  66.236  1.00  0.00    -0.208 C  
HETATM   18  H   UNL     1      -6.730  17.657  68.820  1.00  0.00     0.000 HD 
HETATM   19  O   UNL     1      -7.796  18.024  65.732  1.00  0.00    -0.534 OA 
HETATM   20  C   UNL     1      -8.944  15.906  66.096  1.00  0.00    -0.376 C  
HETATM   21  H   UNL     1      -7.721  17.847  64.802  1.00  0.00     0.000 HD 
BRANCH  20  22
HETATM   22  C   UNL     1     -10.154  15.218  65.489  1.00  0.00    -0.408 C  
HETATM   23  C   UNL     1     -10.154  14.067  64.792  1.00  0.00    -0.224 C  
BRANCH  23  24
HETATM   24  C   UNL     1     -11.341  13.399  64.133  1.00  0.00    -0.364 C  
HETATM   25  H   UNL     1     -11.641  11.881  62.930  1.00  0.00     0.000 HD 
HETATM   26  O   UNL     1     -10.895  12.300  63.344  1.00  0.00    -0.449 OA 
BRANCH  24  27
HETATM   27  C   UNL     1     -12.342  12.912  65.201  1.00  0.00    -0.493 C  
BRANCH  27  28
HETATM   28  O   UNL     1     -12.557  13.915  66.207  1.00  0.00    -0.435 OA 
BRANCH  28  29
HETATM   29  C   UNL     1     -12.309  13.489  67.488  1.00  0.00    -0.040 A  
HETATM   30  C   UNL     1     -12.036  12.164  67.837  1.00  0.00    -0.218 A  
HETATM   31  C   UNL     1     -11.782  11.823  69.167  1.00  0.00    -0.388 A  
HETATM   32  C   UNL     1     -11.793  12.806  70.154  1.00  0.00    -0.326 A  
HETATM   33  C   UNL     1     -12.050  14.142  69.824  1.00  0.00    -0.409 A  
HETATM   34  C   UNL     1     -12.063  15.208  70.892  1.00  0.00    -0.334 C  
HETATM   35  C   UNL     1     -12.296  14.476  68.479  1.00  0.00    -0.020 A  
HETATM   36  F   UNL     1     -11.851  14.718  72.147  1.00  0.00    -0.398 F  
HETATM   37  F   UNL     1     -13.249  15.874  70.952  1.00  0.00    -0.526 F  
HETATM   38  F   UNL     1     -11.106  16.157  70.700  1.00  0.00    -0.317 F  
ENDBRANCH  28  29
ENDBRANCH  27  28
ENDBRANCH  24  27
ENDBRANCH  23  24
ENDBRANCH  20  22
ENDBRANCH  12  13
ENDBRANCH  11  12
ENDBRANCH   9  10
ENDBRANCH   8   9
ENDBRANCH   7   8
ENDBRANCH   5   7
ENDBRANCH   4   5
ENDBRANCH   2   4
TORSDOF 13
ENDMDL
MODEL       97
REMARK 921   NORMALIZED FREE ENERGY PREDICTED BY IDOCK:   -5.89 KCAL/MOL
REMARK 922        TOTAL FREE ENERGY PREDICTED BY IDOCK:  -12.59 KCAL/MOL
REMARK 923 INTER-LIGAND FREE ENERGY PREDICTED BY IDOCK:   -9.89 KCAL/MOL
REMARK 924 INTRA-LIGAND FREE ENERGY PREDICTED BY IDOCK:   -2.70 KCAL/MOL
REMARK 927      BINDING AFFINITY PREDICTED BY RF-SCORE:    0.00 PKD
ROOT
HETATM    1  C   UNL     1     -10.613  19.798  66.545  1.00  0.00    -0.580 C  
HETATM    2  C   UNL     1      -9.156  19.351  66.514  1.00  0.00    -0.356 C  
HETATM    3  C   UNL     1      -8.259  20.389  67.182  1.00  0.00    -0.374 C  
ENDROOT
BRANCH   2   4
HETATM    4  O   UNL     1      -9.020  18.123  67.250  1.00  0.00    -0.244 OA 
BRANCH   4   5
HETATM    5  C   UNL     1      -9.995  17.897  68.176  1.00  0.00    -0.350 C  
HETATM    6  O   UNL     1     -10.088  18.471  69.252  1.00  0.00    -0.279 OA 
BRANCH   5   7
HETATM    7  C   UNL     1     -10.910  16.796  67.711  1.00  0.00    -0.285 C  
BRANCH   7   8
HETATM    8  C   UNL     1     -11.634  16.182  68.910  1.00  0.00    -0.298 C  
BRANCH   8   9
HETATM    9  C   UNL     1     -10.888  15.007  69.537  1.00  0.00    -0.272 C  
BRANCH   9  10
HETATM   10  C   UNL     1     -11.661  13.719  69.461  1.00  0.00    -0.355 C  
HETATM   11  C   UNL     1     -11.874  12.992  68.353  1.00  0.00    -0.370 C  
BRANCH  11  12
HETATM   12  C   UNL     1     -11.447  13.367  66.961  1.00  0.00    -0.372 C  
BRANCH  12  13
HETATM   13  C   UNL     1     -11.856  12.331  65.906  1.00  0.00    -0.420 C  
HETATM   14  C   UNL     1     -12.814  12.836  64.821  1.00  0.00    -0.293 C  
HETATM   15  O   UNL     1     -12.507  14.168  64.425  1.00  0.00    -0.626 OA 
HETATM   16  C   UNL     1     -12.555  11.907  63.640  1.00  0.00    -0.555 C  
HETATM   17  C   UNL     1     -11.042  11.715  63.655  1.00  0.00    -0.425 C  
HETATM   18  H   UNL     1     -13.101  14.481  63.752  1.00  0.00     0.000 HD 
HETATM   19  O   UNL     1     -10.414  12.776  62.927  1.00  0.00    -0.290 OA 
HETATM   20  C   UNL     1     -10.617  11.782  65.142  1.00  0.00    -0.332 C  
HETATM   21  H   UNL     1      -9.472  12.656  62.937  1.00  0.00     0.000 HD 
BRANCH  20  22
HETATM   22  C   UNL     1     -10.157  10.487  65.789  1.00  0.00    -0.329 C  
HETATM   23  C   UNL     1     -10.591   9.978  66.957  1.00  0.00    -0.279 C  
BRANCH  23  24
HETATM   24  C   UNL     1     -10.103   8.720  67.642  1.00  0.00    -0.216 C  
HETATM   25  H   UNL     1      -9.357   6.992  67.094  1.00  0.00     0.000 HD 
HETATM   26  O   UNL     1      -9.664   7.782  66.664  1.00  0.00    -0.204 OA 
BRANCH  24  27
HETATM   27  C   UNL     1      -8.951   9.051  68.612  1.00  0.00    -0.137 C  
BRANCH  27  28
HETATM   28  O   UNL     1      -8.991  10.430  69.015  1.00  0.00    -0.161 OA 
BRANCH  28  29
HETATM   29  C   UNL     1      -7.966  11.192  68.513  1.00  0.00    -0.143 A  
HETATM   30  C   UNL     1      -6.703  10.693  68.184  1.00  0.00    -0.064 A  
HETATM   31  C   UNL     1      -5.722  11.541  67.666  1.00  0.00    -0.054 A  
HETATM   32  C   UNL     1      -6.001  12.892  67.467  1.00  0.00    -0.130 A  
HETATM   33  C   UNL     1      -7.264  13.409  67.776  1.00  0.00    -0.156 A  
HETATM   34  C   UNL     1      -7.568  14.872  67.563  1.00  0.00    -0.195 C  
HETATM   35  C   UNL     1      -8.248  12.544  68.290  1.00  0.00    -0.168 A  
HETATM   36  F   UNL     1      -6.499  15.584  67.103  1.00  0.00    -0.197 F  
HETATM   37  F   UNL     1      -7.962  15.497  68.706  1.00  0.00    -0.128 F  
HETATM   38  F   UNL     1      -8.564  15.076  66.658  1.00  0.00    -0.254 F  
ENDBRANCH  28  29
ENDBRANCH  27  28
ENDBRANCH  24  27
ENDBRANCH  23  24
ENDBRANCH  20  22
ENDBRANCH  12  13
ENDBRANCH  11  12
ENDBRANCH   9  10
ENDBRANCH   8   9
ENDBRANCH   7   8
ENDBRANCH   5   7
ENDBRANCH   4   5
ENDBRANCH   2   4
TORSDOF 13
ENDMDL
MODEL       98
REMARK 921   NORMALIZED FREE ENERGY PREDICTED BY IDOCK:   -5.88 KCAL/MOL
REMARK 922        TOTAL FREE ENERGY PREDICTED BY IDOCK:  -12.56 KCAL/MOL
REMARK 923 INTER-LIGAND FREE ENERGY PREDICTED BY IDOCK:   -9.91 KCAL/MOL
REMARK 924 INTRA-LIGAND FREE ENERGY PREDICTED BY IDOCK:   -2.66 KCAL/MOL
REMARK 927      BINDING AFFINITY PREDICTED BY RF-SCORE:    0.00 PKD
ROOT
HETATM    1  C   UNL     1     -10.925  15.920  64.988  1.00  0.00    -0.426 C  
HETATM    2  C   UNL     1      -9.747  16.159  65.926  1.00  0.00    -0.340 C  
HETATM    3  C   UNL     1      -9.773  17.583  66.474  1.00  0.00    -0.302 C  
ENDROOT
BRANCH   2   4
HETATM    4  O   UNL     1      -9.842  15.261  67.046  1.00  0.00    -0.225 OA 
BRANCH   4   5
HETATM    5  C   UNL     1     -10.983  15.382  67.783  1.00  0.00    -0.311 C  
HETATM    6  O   UNL     1     -11.309  16.378  68.415  1.00  0.00    -0.366 OA 
BRANCH   5   7
HETATM    7  C   UNL     1     -11.760  14.092  67.758  1.00  0.00    -0.403 C  
BRANCH   7   8
HETATM    8  C   UNL     1     -12.300  13.785  69.155  1.00  0.00    -0.138 C  
BRANCH   8   9
HETATM    9  C   UNL     1     -11.565  12.646  69.856  1.00  0.00    -0.248 C  
BRANCH   9  10
HETATM   10  C   UNL     1     -12.016  11.288  69.392  1.00  0.00    -0.410 C  
HETATM   11  C   UNL     1     -11.396  10.521  68.481  1.00  0.00    -0.320 C  
BRANCH  11  12
HETATM   12  C   UNL     1     -10.174  10.907  67.694  1.00  0.00    -0.214 C  
BRANCH  12  13
HETATM   13  C   UNL     1     -10.187  10.363  66.259  1.00  0.00    -0.286 C  
HETATM   14  C   UNL     1     -10.313  11.418  65.154  1.00  0.00    -0.290 C  
HETATM   15  O   UNL     1      -9.571  12.594  65.461  1.00  0.00    -0.434 OA 
HETATM   16  C   UNL     1      -9.684  10.753  63.935  1.00  0.00    -0.366 C  
HETATM   17  C   UNL     1      -8.477  10.015  64.508  1.00  0.00    -0.174 C  
HETATM   18  H   UNL     1      -9.650  13.248  64.776  1.00  0.00     0.000 HD 
HETATM   19  O   UNL     1      -7.356  10.902  64.572  1.00  0.00    -0.328 OA 
HETATM   20  C   UNL     1      -8.881   9.582  65.938  1.00  0.00    -0.193 C  
HETATM   21  H   UNL     1      -6.605  10.443  64.929  1.00  0.00     0.000 HD 
BRANCH  20  22
HETATM   22  C   UNL     1      -9.108   8.099  66.174  1.00  0.00    -0.232 C  
HETATM   23  C   UNL     1     -10.251   7.520  66.584  1.00  0.00    -0.261 C  
BRANCH  23  24
HETATM   24  C   UNL     1     -10.477   6.053  66.878  1.00  0.00    -0.280 C  
HETATM   25  H   UNL     1      -9.402   4.413  66.878  1.00  0.00     0.000 HD 
HETATM   26  O   UNL     1      -9.260   5.335  66.694  1.00  0.00    -0.124 OA 
BRANCH  24  27
HETATM   27  C   UNL     1     -10.989   5.867  68.320  1.00  0.00    -0.170 C  
BRANCH  27  28
HETATM   28  O   UNL     1      -9.967   6.185  69.279  1.00  0.00    -0.147 OA 
BRANCH  28  29
HETATM   29  C   UNL     1     -10.308   7.185  70.155  1.00  0.00    -0.206 A  
HETATM   30  C   UNL     1      -9.410   8.130  70.657  1.00  0.00    -0.165 A  
HETATM   31  C   UNL     1      -9.849   9.123  71.536  1.00  0.00    -0.335 A  
HETATM   32  C   UNL     1     -11.189   9.179  71.912  1.00  0.00    -0.400 A  
HETATM   33  C   UNL     1     -12.108   8.250  71.409  1.00  0.00    -0.331 A  
HETATM   34  C   UNL     1     -13.560   8.310  71.816  1.00  0.00    -0.361 C  
HETATM   35  C   UNL     1     -11.657   7.260  70.518  1.00  0.00    -0.292 A  
HETATM   36  F   UNL     1     -13.829   9.297  72.719  1.00  0.00    -0.465 F  
HETATM   37  F   UNL     1     -13.988   7.154  72.396  1.00  0.00    -0.146 F  
HETATM   38  F   UNL     1     -14.393   8.535  70.764  1.00  0.00    -0.216 F  
ENDBRANCH  28  29
ENDBRANCH  27  28
ENDBRANCH  24  27
ENDBRANCH  23  24
ENDBRANCH  20  22
ENDBRANCH  12  13
ENDBRANCH  11  12
ENDBRANCH   9  10
ENDBRANCH   8   9
ENDBRANCH   7   8
ENDBRANCH   5   7
ENDBRANCH   4   5
ENDBRANCH   2   4
TORSDOF 13
ENDMDL
MODEL       99
REMARK 921   NORMALIZED FREE ENERGY PREDICTED BY IDOCK:   -5.87 KCAL/MOL
REMARK 922        TOTAL FREE ENERGY PREDICTED BY IDOCK:  -12.56 KCAL/MOL
REMARK 923 INTER-LIGAND FREE ENERGY PREDICTED BY IDOCK:  -10.01 KCAL/MOL
REMARK 924 INTRA-LIGAND FREE ENERGY PREDICTED BY IDOCK:   -2.54 KCAL/MOL
REMARK 927      BINDING AFFINITY PREDICTED BY RF-SCORE:    0.00 PKD
ROOT
HETATM    1  C   UNL     1     -11.025   6.569  67.112  1.00  0.00    -0.480 C  
HETATM    2  C   UNL     1     -10.348   5.579  68.053  1.00  0.00    -0.177 C  
HETATM    3  C   UNL     1      -9.653   4.473  67.265  1.00  0.00    -0.213 C  
ENDROOT
BRANCH   2   4
HETATM    4  O   UNL     1      -9.341   6.264  68.819  1.00  0.00    -0.125 OA 
BRANCH   4   5
HETATM    5  C   UNL     1      -9.069   5.711  70.035  1.00  0.00    -0.137 C  
HETATM    6  O   UNL     1      -7.954   5.403  70.432  1.00  0.00    -0.095 OA 
BRANCH   5   7
HETATM    7  C   UNL     1     -10.345   5.477  70.799  1.00  0.00    -0.321 C  
BRANCH   7   8
HETATM    8  C   UNL     1     -10.498   6.535  71.891  1.00  0.00    -0.233 C  
BRANCH   8   9
HETATM    9  C   UNL     1     -11.806   7.317  71.804  1.00  0.00    -0.330 C  
BRANCH   9  10
HETATM   10  C   UNL     1     -11.620   8.791  72.041  1.00  0.00    -0.436 C  
HETATM   11  C   UNL     1     -11.219   9.691  71.129  1.00  0.00    -0.454 C  
BRANCH  11  12
HETATM   12  C   UNL     1     -10.804   9.385  69.717  1.00  0.00    -0.250 C  
BRANCH  12  13
HETATM   13  C   UNL     1     -10.076  10.553  69.037  1.00  0.00    -0.230 C  
HETATM   14  C   UNL     1      -8.709  10.215  68.431  1.00  0.00    -0.123 C  
HETATM   15  O   UNL     1      -8.704   8.926  67.826  1.00  0.00    -0.125 OA 
HETATM   16  C   UNL     1      -8.520  11.264  67.342  1.00  0.00    -0.137 C  
HETATM   17  C   UNL     1      -9.906  11.394  66.719  1.00  0.00    -0.206 C  
HETATM   18  H   UNL     1      -7.856   8.717  67.450  1.00  0.00     0.000 HD 
HETATM   19  O   UNL     1     -10.073  10.401  65.702  1.00  0.00    -0.259 OA 
HETATM   20  C   UNL     1     -10.915  11.138  67.866  1.00  0.00    -0.307 C  
HETATM   21  H   UNL     1     -10.937  10.482  65.314  1.00  0.00     0.000 HD 
BRANCH  20  22
HETATM   22  C   UNL     1     -11.714  12.329  68.362  1.00  0.00    -0.390 C  
HETATM   23  C   UNL     1     -11.462  13.059  69.465  1.00  0.00    -0.289 C  
BRANCH  23  24
HETATM   24  C   UNL     1     -12.280  14.212  70.003  1.00  0.00    -0.357 C  
HETATM   25  H   UNL     1     -12.970  14.784  71.747  1.00  0.00     0.000 HD 
HETATM   26  O   UNL     1     -12.456  14.060  71.409  1.00  0.00    -0.346 OA 
BRANCH  24  27
HETATM   27  C   UNL     1     -11.582  15.553  69.699  1.00  0.00    -0.348 C  
BRANCH  27  28
HETATM   28  O   UNL     1     -11.781  15.944  68.330  1.00  0.00    -0.358 OA 
BRANCH  28  29
HETATM   29  C   UNL     1     -10.640  16.360  67.692  1.00  0.00    -0.313 A  
HETATM   30  C   UNL     1      -9.947  15.600  66.746  1.00  0.00    -0.258 A  
HETATM   31  C   UNL     1      -8.799  16.110  66.135  1.00  0.00    -0.367 A  
HETATM   32  C   UNL     1      -8.343  17.385  66.461  1.00  0.00    -0.308 A  
HETATM   33  C   UNL     1      -9.032  18.169  67.395  1.00  0.00    -0.256 A  
HETATM   34  C   UNL     1      -8.538  19.550  67.750  1.00  0.00    -0.315 C  
HETATM   35  C   UNL     1     -10.191  17.649  67.998  1.00  0.00    -0.362 A  
HETATM   36  F   UNL     1      -7.379  19.890  67.115  1.00  0.00    -0.240 F  
HETATM   37  F   UNL     1      -8.282  19.688  69.081  1.00  0.00    -0.382 F  
HETATM   38  F   UNL     1      -9.432  20.526  67.435  1.00  0.00    -0.484 F  
ENDBRANCH  28  29
ENDBRANCH  27  28
ENDBRANCH  24  27
ENDBRANCH  23  24
ENDBRANCH  20  22
ENDBRANCH  12  13
ENDBRANCH  11  12
ENDBRANCH   9  10
ENDBRANCH   8   9
ENDBRANCH   7   8
ENDBRANCH   5   7
ENDBRANCH   4   5
ENDBRANCH   2   4
TORSDOF 13
ENDMDL
MODEL      100
REMARK 921   NORMALIZED FREE ENERGY PREDICTED BY IDOCK:   -5.87 KCAL/MOL
REMARK 922        TOTAL FREE ENERGY PREDICTED BY IDOCK:  -12.55 KCAL/MOL
REMARK 923 INTER-LIGAND FREE ENERGY PREDICTED BY IDOCK:   -9.77 KCAL/MOL
REMARK 924 INTRA-LIGAND FREE ENERGY PREDICTED BY IDOCK:   -2.78 KCAL/MOL
REMARK 927      BINDING AFFINITY PREDICTED BY RF-SCORE:    0.00 PKD
ROOT
HETATM    1  C   UNL     1     -12.916  11.214  71.576  1.00  0.00    -0.542 C  
HETATM    2  C   UNL     1     -12.496   9.752  71.680  1.00  0.00    -0.410 C  
HETATM    3  C   UNL     1     -13.719   8.843  71.756  1.00  0.00    -0.471 C  
ENDROOT
BRANCH   2   4
HETATM    4  O   UNL     1     -11.757   9.386  70.501  1.00  0.00    -0.262 OA 
BRANCH   4   5
HETATM    5  C   UNL     1     -10.407   9.556  70.593  1.00  0.00    -0.302 C  
HETATM    6  O   UNL     1      -9.706   9.128  71.500  1.00  0.00    -0.298 OA 
BRANCH   5   7
HETATM    7  C   UNL     1      -9.908  10.399  69.451  1.00  0.00    -0.235 C  
BRANCH   7   8
HETATM    8  C   UNL     1      -8.393  10.243  69.314  1.00  0.00    -0.167 C  
BRANCH   8   9
HETATM    9  C   UNL     1      -7.678  11.539  68.941  1.00  0.00    -0.088 C  
BRANCH   9  10
HETATM   10  C   UNL     1      -8.074  12.054  67.585  1.00  0.00    -0.155 C  
HETATM   11  C   UNL     1      -8.343  13.332  67.275  1.00  0.00    -0.182 C  
BRANCH  11  12
HETATM   12  C   UNL     1      -8.375  14.482  68.243  1.00  0.00    -0.152 C  
BRANCH  12  13
HETATM   13  C   UNL     1      -9.600  15.388  68.061  1.00  0.00    -0.206 C  
HETATM   14  C   UNL     1      -9.498  16.775  68.707  1.00  0.00    -0.259 C  
HETATM   15  O   UNL     1      -8.188  17.319  68.584  1.00  0.00    -0.258 OA 
HETATM   16  C   UNL     1     -10.459  17.633  67.893  1.00  0.00    -0.392 C  
HETATM   17  C   UNL     1     -10.242  17.157  66.459  1.00  0.00    -0.322 C  
HETATM   18  H   UNL     1      -8.125  18.178  68.984  1.00  0.00     0.000 HD 
HETATM   19  O   UNL     1      -9.147  17.871  65.875  1.00  0.00    -0.512 OA 
HETATM   20  C   UNL     1      -9.890  15.653  66.557  1.00  0.00    -0.278 C  
HETATM   21  H   UNL     1      -9.012  17.575  64.983  1.00  0.00     0.000 HD 
BRANCH  20  22
HETATM   22  C   UNL     1     -10.931  14.665  66.060  1.00  0.00    -0.325 C  
HETATM   23  C   UNL     1     -11.067  14.212  64.800  1.00  0.00    -0.393 C  
BRANCH  23  24
HETATM   24  C   UNL     1     -12.133  13.273  64.278  1.00  0.00    -0.416 C  
HETATM   25  H   UNL     1     -13.301  13.168  62.708  1.00  0.00     0.000 HD 
HETATM   26  O   UNL     1     -12.632  13.758  63.035  1.00  0.00    -0.721 OA 
BRANCH  24  27
HETATM   27  C   UNL     1     -11.556  11.854  64.100  1.00  0.00    -0.351 C  
BRANCH  27  28
HETATM   28  O   UNL     1     -11.135  11.302  65.358  1.00  0.00    -0.190 OA 
BRANCH  28  29
HETATM   29  C   UNL     1     -10.071  10.441  65.267  1.00  0.00    -0.300 A  
HETATM   30  C   UNL     1      -8.929  10.680  64.498  1.00  0.00    -0.214 A  
HETATM   31  C   UNL     1      -7.887   9.750  64.475  1.00  0.00    -0.137 A  
HETATM   32  C   UNL     1      -7.977   8.582  65.228  1.00  0.00    -0.120 A  
HETATM   33  C   UNL     1      -9.105   8.330  66.018  1.00  0.00    -0.228 A  
HETATM   34  C   UNL     1      -9.205   7.064  66.833  1.00  0.00    -0.150 C  
HETATM   35  C   UNL     1     -10.146   9.277  66.040  1.00  0.00    -0.262 A  
HETATM   36  F   UNL     1      -8.137   6.230  66.669  1.00  0.00    -0.104 F  
HETATM   37  F   UNL     1     -10.302   6.323  66.516  1.00  0.00    -0.235 F  
HETATM   38  F   UNL     1      -9.284   7.304  68.170  1.00  0.00    -0.134 F  
ENDBRANCH  28  29
ENDBRANCH  27  28
ENDBRANCH  24  27
ENDBRANCH  23  24
ENDBRANCH  20  22
ENDBRANCH  12  13
ENDBRANCH  11  12
ENDBRANCH   9  10
ENDBRANCH   8   9
ENDBRANCH   7   8
ENDBRANCH   5   7
ENDBRANCH   4   5
ENDBRANCH   2   4
TORSDOF 13
ENDMDL
MODEL      101
REMARK 921   NORMALIZED FREE ENERGY PREDICTED BY IDOCK:   -5.86 KCAL/MOL
REMARK 922        TOTAL FREE ENERGY PREDICTED BY IDOCK:  -12.53 KCAL/MOL
REMARK 923 INTER-LIGAND FREE ENERGY PREDICTED BY IDOCK:   -8.68 KCAL/MOL
REMARK 924 INTRA-LIGAND FREE ENERGY PREDICTED BY IDOCK:   -3.85 KCAL/MOL
REMARK 927      BINDING AFFINITY PREDICTED BY RF-SCORE:    0.00 PKD
ROOT
HETATM    1  C   UNL     1     -10.705   6.060  69.594  1.00  0.00    -0.405 C  
HETATM    2  C   UNL     1      -9.857   7.069  68.828  1.00  0.00    -0.152 C  
HETATM    3  C   UNL     1     -10.510   7.423  67.496  1.00  0.00    -0.338 C  
ENDROOT
BRANCH   2   4
HETATM    4  O   UNL     1      -9.752   8.282  69.595  1.00  0.00    -0.171 OA 
BRANCH   4   5
HETATM    5  C   UNL     1      -8.529   8.502  70.156  1.00  0.00    -0.126 C  
HETATM    6  O   UNL     1      -8.312   9.259  71.092  1.00  0.00    -0.291 OA 
BRANCH   5   7
HETATM    7  C   UNL     1      -7.469   7.726  69.420  1.00  0.00    -0.088 C  
BRANCH   7   8
HETATM    8  C   UNL     1      -6.586   8.684  68.620  1.00  0.00    -0.055 C  
BRANCH   8   9
HETATM    9  C   UNL     1      -7.265   9.241  67.372  1.00  0.00    -0.080 C  
BRANCH   9  10
HETATM   10  C   UNL     1      -6.765  10.611  67.000  1.00  0.00    -0.086 C  
HETATM   11  C   UNL     1      -7.103  11.763  67.599  1.00  0.00    -0.107 C  
BRANCH  11  12
HETATM   12  C   UNL     1      -8.107  11.914  68.709  1.00  0.00    -0.021 C  
BRANCH  12  13
HETATM   13  C   UNL     1      -9.480  12.390  68.218  1.00  0.00    -0.203 C  
HETATM   14  C   UNL     1     -10.667  11.504  68.614  1.00  0.00    -0.207 C  
HETATM   15  O   UNL     1     -10.524  10.991  69.935  1.00  0.00    -0.446 OA 
HETATM   16  C   UNL     1     -11.860  12.453  68.589  1.00  0.00    -0.348 C  
HETATM   17  C   UNL     1     -11.308  13.745  69.184  1.00  0.00    -0.281 C  
HETATM   18  H   UNL     1     -11.260  10.442  70.181  1.00  0.00     0.000 HD 
HETATM   19  O   UNL     1     -11.406  13.698  70.612  1.00  0.00    -0.455 OA 
HETATM   20  C   UNL     1      -9.818  13.805  68.767  1.00  0.00    -0.093 C  
HETATM   21  H   UNL     1     -11.062  14.502  70.983  1.00  0.00     0.000 HD 
BRANCH  20  22
HETATM   22  C   UNL     1      -9.430  14.853  67.739  1.00  0.00    -0.203 C  
HETATM   23  C   UNL     1      -9.843  16.133  67.706  1.00  0.00    -0.232 C  
BRANCH  23  24
HETATM   24  C   UNL     1      -9.511  17.173  66.658  1.00  0.00    -0.264 C  
HETATM   25  H   UNL     1      -8.149  17.420  65.271  1.00  0.00     0.000 HD 
HETATM   26  O   UNL     1      -8.357  16.766  65.929  1.00  0.00    -0.463 OA 
BRANCH  24  27
HETATM   27  C   UNL     1     -10.703  17.367  65.699  1.00  0.00    -0.111 C  
BRANCH  27  28
HETATM   28  O   UNL     1     -10.626  16.464  64.585  1.00  0.00    -0.639 OA 
BRANCH  28  29
HETATM   29  C   UNL     1     -11.214  15.244  64.807  1.00  0.00    -0.396 A  
HETATM   30  C   UNL     1     -12.513  15.075  65.295  1.00  0.00     0.179 A  
HETATM   31  C   UNL     1     -13.036  13.793  65.478  1.00  0.00    -0.363 A  
HETATM   32  C   UNL     1     -12.267  12.674  65.166  1.00  0.00    -0.539 A  
HETATM   33  C   UNL     1     -10.969  12.822  64.661  1.00  0.00    -0.355 A  
HETATM   34  C   UNL     1     -10.135  11.611  64.324  1.00  0.00    -0.287 C  
HETATM   35  C   UNL     1     -10.455  14.118  64.473  1.00  0.00    -0.232 A  
HETATM   36  F   UNL     1     -10.758  10.430  64.605  1.00  0.00    -0.350 F  
HETATM   37  F   UNL     1      -8.959  11.578  65.010  1.00  0.00    -0.152 F  
HETATM   38  F   UNL     1      -9.804  11.549  63.006  1.00  0.00    -0.320 F  
ENDBRANCH  28  29
ENDBRANCH  27  28
ENDBRANCH  24  27
ENDBRANCH  23  24
ENDBRANCH  20  22
ENDBRANCH  12  13
ENDBRANCH  11  12
ENDBRANCH   9  10
ENDBRANCH   8   9
ENDBRANCH   7   8
ENDBRANCH   5   7
ENDBRANCH   4   5
ENDBRANCH   2   4
TORSDOF 13
ENDMDL
MODEL      102
REMARK 921   NORMALIZED FREE ENERGY PREDICTED BY IDOCK:   -5.84 KCAL/MOL
REMARK 922        TOTAL FREE ENERGY PREDICTED BY IDOCK:  -12.50 KCAL/MOL
REMARK 923 INTER-LIGAND FREE ENERGY PREDICTED BY IDOCK:  -10.90 KCAL/MOL
REMARK 924 INTRA-LIGAND FREE ENERGY PREDICTED BY IDOCK:   -1.60 KCAL/MOL
REMARK 927      BINDING AFFINITY PREDICTED BY RF-SCORE:    0.00 PKD
ROOT
HETATM    1  C   UNL     1      -6.815   5.976  70.246  1.00  0.00    -0.054 C  
HETATM    2  C   UNL     1      -7.324   7.396  70.465  1.00  0.00    -0.076 C  
HETATM    3  C   UNL     1      -7.217   8.212  69.180  1.00  0.00    -0.073 C  
ENDROOT
BRANCH   2   4
HETATM    4  O   UNL     1      -8.713   7.352  70.836  1.00  0.00    -0.141 OA 
BRANCH   4   5
HETATM    5  C   UNL     1      -9.078   8.241  71.802  1.00  0.00    -0.193 C  
HETATM    6  O   UNL     1      -8.413   8.516  72.791  1.00  0.00    -0.336 OA 
BRANCH   5   7
HETATM    7  C   UNL     1     -10.447   8.796  71.510  1.00  0.00    -0.373 C  
BRANCH   7   8
HETATM    8  C   UNL     1     -10.358   9.841  70.397  1.00  0.00    -0.354 C  
BRANCH   8   9
HETATM    9  C   UNL     1     -11.715  10.378  69.955  1.00  0.00    -0.341 C  
BRANCH   9  10
HETATM   10  C   UNL     1     -12.548  10.876  71.105  1.00  0.00    -0.532 C  
HETATM   11  C   UNL     1     -12.980  12.135  71.277  1.00  0.00    -0.303 C  
BRANCH  11  12
HETATM   12  C   UNL     1     -12.649  13.306  70.394  1.00  0.00    -0.211 C  
BRANCH  12  13
HETATM   13  C   UNL     1     -13.010  14.658  71.025  1.00  0.00    -0.419 C  
HETATM   14  C   UNL     1     -14.185  14.633  72.010  1.00  0.00    -0.537 C  
HETATM   15  O   UNL     1     -14.177  13.455  72.810  1.00  0.00    -0.693 OA 
HETATM   16  C   UNL     1     -13.933  15.834  72.914  1.00  0.00    -0.467 C  
HETATM   17  C   UNL     1     -12.422  15.817  73.128  1.00  0.00    -0.487 C  
HETATM   18  H   UNL     1     -14.905  13.440  73.421  1.00  0.00     0.000 HD 
HETATM   19  O   UNL     1     -12.101  14.955  74.224  1.00  0.00    -0.634 OA 
HETATM   20  C   UNL     1     -11.813  15.248  71.823  1.00  0.00    -0.473 C  
HETATM   21  H   UNL     1     -11.160  14.943  74.357  1.00  0.00     0.000 HD 
BRANCH  20  22
HETATM   22  C   UNL     1     -11.044  16.215  70.940  1.00  0.00    -0.232 C  
HETATM   23  C   UNL     1     -10.564  15.964  69.708  1.00  0.00    -0.322 C  
BRANCH  23  24
HETATM   24  C   UNL     1      -9.748  16.896  68.839  1.00  0.00    -0.256 C  
HETATM   25  H   UNL     1      -7.871  17.073  68.300  1.00  0.00     0.000 HD 
HETATM   26  O   UNL     1      -8.384  16.487  68.846  1.00  0.00    -0.235 OA 
BRANCH  24  27
HETATM   27  C   UNL     1     -10.293  16.898  67.396  1.00  0.00    -0.309 C  
BRANCH  27  28
HETATM   28  O   UNL     1      -9.660  15.883  66.600  1.00  0.00    -0.223 OA 
BRANCH  28  29
HETATM   29  C   UNL     1     -10.314  14.677  66.601  1.00  0.00    -0.273 A  
HETATM   30  C   UNL     1     -11.703  14.536  66.535  1.00  0.00    -0.380 A  
HETATM   31  C   UNL     1     -12.283  13.266  66.529  1.00  0.00    -0.389 A  
HETATM   32  C   UNL     1     -11.478  12.130  66.579  1.00  0.00    -0.430 A  
HETATM   33  C   UNL     1     -10.084  12.249  66.630  1.00  0.00    -0.231 A  
HETATM   34  C   UNL     1      -9.210  11.020  66.687  1.00  0.00    -0.167 C  
HETATM   35  C   UNL     1      -9.509  13.533  66.628  1.00  0.00    -0.271 A  
HETATM   36  F   UNL     1      -9.919   9.855  66.727  1.00  0.00    -0.218 F  
HETATM   37  F   UNL     1      -8.406  11.000  67.785  1.00  0.00    -0.113 F  
HETATM   38  F   UNL     1      -8.383  10.912  65.612  1.00  0.00    -0.158 F  
ENDBRANCH  28  29
ENDBRANCH  27  28
ENDBRANCH  24  27
ENDBRANCH  23  24
ENDBRANCH  20  22
ENDBRANCH  12  13
ENDBRANCH  11  12
ENDBRANCH   9  10
ENDBRANCH   8   9
ENDBRANCH   7   8
ENDBRANCH   5   7
ENDBRANCH   4   5
ENDBRANCH   2   4
TORSDOF 13
ENDMDL
MODEL      103
REMARK 921   NORMALIZED FREE ENERGY PREDICTED BY IDOCK:   -5.84 KCAL/MOL
REMARK 922        TOTAL FREE ENERGY PREDICTED BY IDOCK:  -12.50 KCAL/MOL
REMARK 923 INTER-LIGAND FREE ENERGY PREDICTED BY IDOCK:   -9.77 KCAL/MOL
REMARK 924 INTRA-LIGAND FREE ENERGY PREDICTED BY IDOCK:   -2.72 KCAL/MOL
REMARK 927      BINDING AFFINITY PREDICTED BY RF-SCORE:    0.00 PKD
ROOT
HETATM    1  C   UNL     1     -12.800  14.079  65.558  1.00  0.00    -0.453 C  
HETATM    2  C   UNL     1     -11.847  14.506  64.447  1.00  0.00    -0.403 C  
HETATM    3  C   UNL     1     -11.409  15.955  64.638  1.00  0.00    -0.328 C  
ENDROOT
BRANCH   2   4
HETATM    4  O   UNL     1     -10.666  13.686  64.492  1.00  0.00    -0.399 OA 
BRANCH   4   5
HETATM    5  C   UNL     1     -10.858  12.383  64.141  1.00  0.00    -0.372 C  
HETATM    6  O   UNL     1     -11.690  11.988  63.335  1.00  0.00    -0.444 OA 
BRANCH   5   7
HETATM    7  C   UNL     1      -9.940  11.488  64.931  1.00  0.00    -0.303 C  
BRANCH   7   8
HETATM    8  C   UNL     1      -9.838  10.122  64.254  1.00  0.00    -0.270 C  
BRANCH   8   9
HETATM    9  C   UNL     1      -8.417   9.567  64.211  1.00  0.00    -0.193 C  
BRANCH   9  10
HETATM   10  C   UNL     1      -7.450  10.380  65.027  1.00  0.00    -0.079 C  
HETATM   11  C   UNL     1      -6.976  10.055  66.241  1.00  0.00    -0.104 C  
BRANCH  11  12
HETATM   12  C   UNL     1      -7.383   8.855  67.050  1.00  0.00    -0.083 C  
BRANCH  12  13
HETATM   13  C   UNL     1      -8.863   8.875  67.455  1.00  0.00    -0.136 C  
HETATM   14  C   UNL     1      -9.503   7.501  67.688  1.00  0.00    -0.138 C  
HETATM   15  O   UNL     1      -8.603   6.604  68.330  1.00  0.00    -0.124 OA 
HETATM   16  C   UNL     1     -10.660   7.790  68.637  1.00  0.00    -0.152 C  
HETATM   17  C   UNL     1     -10.089   8.826  69.601  1.00  0.00    -0.204 C  
HETATM   18  H   UNL     1      -9.000   5.752  68.475  1.00  0.00     0.000 HD 
HETATM   19  O   UNL     1      -9.407   8.163  70.671  1.00  0.00    -0.152 OA 
HETATM   20  C   UNL     1      -9.077   9.662  68.779  1.00  0.00    -0.134 C  
HETATM   21  H   UNL     1      -9.051   8.808  71.271  1.00  0.00     0.000 HD 
BRANCH  20  22
HETATM   22  C   UNL     1      -9.464  11.095  68.459  1.00  0.00    -0.193 C  
HETATM   23  C   UNL     1      -8.673  12.179  68.564  1.00  0.00    -0.079 C  
BRANCH  23  24
HETATM   24  C   UNL     1      -9.059  13.619  68.303  1.00  0.00    -0.193 C  
HETATM   25  H   UNL     1      -8.782  14.938  66.880  1.00  0.00     0.000 HD 
HETATM   26  O   UNL     1      -8.540  14.033  67.043  1.00  0.00    -0.213 OA 
BRANCH  24  27
HETATM   27  C   UNL     1     -10.593  13.775  68.322  1.00  0.00    -0.255 C  
BRANCH  27  28
HETATM   28  O   UNL     1     -11.006  14.745  69.298  1.00  0.00    -0.244 OA 
BRANCH  28  29
HETATM   29  C   UNL     1     -11.856  14.254  70.256  1.00  0.00    -0.307 A  
HETATM   30  C   UNL     1     -12.676  15.049  71.061  1.00  0.00    -0.432 A  
HETATM   31  C   UNL     1     -13.522  14.460  72.004  1.00  0.00    -0.490 A  
HETATM   32  C   UNL     1     -13.557  13.074  72.141  1.00  0.00    -0.618 A  
HETATM   33  C   UNL     1     -12.754  12.260  71.334  1.00  0.00    -0.351 A  
HETATM   34  C   UNL     1     -12.791  10.759  71.483  1.00  0.00    -0.462 C  
HETATM   35  C   UNL     1     -11.912  12.862  70.382  1.00  0.00    -0.329 A  
HETATM   36  F   UNL     1     -13.622  10.333  72.478  1.00  0.00    -0.433 F  
HETATM   37  F   UNL     1     -11.569  10.232  71.775  1.00  0.00    -0.351 F  
HETATM   38  F   UNL     1     -13.214  10.128  70.354  1.00  0.00    -0.354 F  
ENDBRANCH  28  29
ENDBRANCH  27  28
ENDBRANCH  24  27
ENDBRANCH  23  24
ENDBRANCH  20  22
ENDBRANCH  12  13
ENDBRANCH  11  12
ENDBRANCH   9  10
ENDBRANCH   8   9
ENDBRANCH   7   8
ENDBRANCH   5   7
ENDBRANCH   4   5
ENDBRANCH   2   4
TORSDOF 13
ENDMDL
MODEL      104
REMARK 921   NORMALIZED FREE ENERGY PREDICTED BY IDOCK:   -5.84 KCAL/MOL
REMARK 922        TOTAL FREE ENERGY PREDICTED BY IDOCK:  -12.49 KCAL/MOL
REMARK 923 INTER-LIGAND FREE ENERGY PREDICTED BY IDOCK:  -10.17 KCAL/MOL
REMARK 924 INTRA-LIGAND FREE ENERGY PREDICTED BY IDOCK:   -2.32 KCAL/MOL
REMARK 927      BINDING AFFINITY PREDICTED BY RF-SCORE:    0.00 PKD
ROOT
HETATM    1  C   UNL     1     -11.206  10.145  70.532  1.00  0.00    -0.411 C  
HETATM    2  C   UNL     1     -12.343  11.133  70.297  1.00  0.00    -0.315 C  
HETATM    3  C   UNL     1     -12.900  11.640  71.623  1.00  0.00    -0.454 C  
ENDROOT
BRANCH   2   4
HETATM    4  O   UNL     1     -11.841  12.272  69.574  1.00  0.00    -0.305 OA 
BRANCH   4   5
HETATM    5  C   UNL     1     -11.904  12.163  68.216  1.00  0.00    -0.301 C  
HETATM    6  O   UNL     1     -11.958  11.108  67.598  1.00  0.00    -0.613 OA 
BRANCH   5   7
HETATM    7  C   UNL     1     -11.838  13.526  67.580  1.00  0.00    -0.406 C  
BRANCH   7   8
HETATM    8  C   UNL     1     -12.244  13.432  66.109  1.00  0.00    -0.471 C  
BRANCH   8   9
HETATM    9  C   UNL     1     -11.059  13.327  65.154  1.00  0.00    -0.315 C  
BRANCH   9  10
HETATM   10  C   UNL     1     -11.264  12.294  64.081  1.00  0.00    -0.430 C  
HETATM   11  C   UNL     1     -10.473  11.235  63.845  1.00  0.00    -0.452 C  
BRANCH  11  12
HETATM   12  C   UNL     1      -9.187  10.924  64.559  1.00  0.00    -0.226 C  
BRANCH  12  13
HETATM   13  C   UNL     1      -9.403  10.350  65.966  1.00  0.00    -0.219 C  
HETATM   14  C   UNL     1      -9.619   8.834  66.035  1.00  0.00    -0.226 C  
HETATM   15  O   UNL     1      -8.792   8.141  65.105  1.00  0.00    -0.368 OA 
HETATM   16  C   UNL     1      -9.178   8.463  67.446  1.00  0.00    -0.163 C  
HETATM   17  C   UNL     1      -7.944   9.329  67.680  1.00  0.00    -0.103 C  
HETATM   18  H   UNL     1      -8.926   7.201  65.148  1.00  0.00     0.000 HD 
HETATM   19  O   UNL     1      -6.784   8.663  67.168  1.00  0.00    -0.061 OA 
HETATM   20  C   UNL     1      -8.184  10.637  66.888  1.00  0.00    -0.123 C  
HETATM   21  H   UNL     1      -6.016   9.203  67.314  1.00  0.00     0.000 HD 
BRANCH  20  22
HETATM   22  C   UNL     1      -8.447  11.896  67.696  1.00  0.00    -0.156 C  
HETATM   23  C   UNL     1      -8.151  13.157  67.330  1.00  0.00    -0.181 C  
BRANCH  23  24
HETATM   24  C   UNL     1      -8.354  14.416  68.146  1.00  0.00    -0.158 C  
HETATM   25  H   UNL     1      -7.245  15.601  69.245  1.00  0.00     0.000 HD 
HETATM   26  O   UNL     1      -7.118  14.811  68.732  1.00  0.00    -0.102 OA 
BRANCH  24  27
HETATM   27  C   UNL     1      -8.905  15.548  67.256  1.00  0.00    -0.201 C  
BRANCH  27  28
HETATM   28  O   UNL     1      -9.735  16.446  68.012  1.00  0.00    -0.230 OA 
BRANCH  28  29
HETATM   29  C   UNL     1      -9.573  17.769  67.688  1.00  0.00    -0.266 A  
HETATM   30  C   UNL     1     -10.516  18.765  67.956  1.00  0.00    -0.410 A  
HETATM   31  C   UNL     1     -10.261  20.092  67.602  1.00  0.00    -0.548 A  
HETATM   32  C   UNL     1      -9.059  20.431  66.985  1.00  0.00    -0.459 A  
HETATM   33  C   UNL     1      -8.094  19.451  66.721  1.00  0.00    -0.302 A  
HETATM   34  C   UNL     1      -6.792  19.816  66.053  1.00  0.00    -0.253 C  
HETATM   35  C   UNL     1      -8.358  18.119  67.090  1.00  0.00    -0.244 A  
HETATM   36  F   UNL     1      -6.708  21.136  65.718  1.00  0.00    -0.223 F  
HETATM   37  F   UNL     1      -6.588  19.130  64.894  1.00  0.00    -0.304 F  
HETATM   38  F   UNL     1      -5.709  19.564  66.836  1.00  0.00    -0.173 F  
ENDBRANCH  28  29
ENDBRANCH  27  28
ENDBRANCH  24  27
ENDBRANCH  23  24
ENDBRANCH  20  22
ENDBRANCH  12  13
ENDBRANCH  11  12
ENDBRANCH   9  10
ENDBRANCH   8   9
ENDBRANCH   7   8
ENDBRANCH   5   7
ENDBRANCH   4   5
ENDBRANCH   2   4
TORSDOF 13
ENDMDL
MODEL      105
REMARK 921   NORMALIZED FREE ENERGY PREDICTED BY IDOCK:   -5.83 KCAL/MOL
REMARK 922        TOTAL FREE ENERGY PREDICTED BY IDOCK:  -12.49 KCAL/MOL
REMARK 923 INTER-LIGAND FREE ENERGY PREDICTED BY IDOCK:   -9.63 KCAL/MOL
REMARK 924 INTRA-LIGAND FREE ENERGY PREDICTED BY IDOCK:   -2.86 KCAL/MOL
REMARK 927      BINDING AFFINITY PREDICTED BY RF-SCORE:    0.00 PKD
ROOT
HETATM    1  C   UNL     1      -8.254   7.523  66.097  1.00  0.00    -0.125 C  
HETATM    2  C   UNL     1      -9.051   7.076  67.318  1.00  0.00    -0.125 C  
HETATM    3  C   UNL     1     -10.546   7.074  67.016  1.00  0.00    -0.412 C  
ENDROOT
BRANCH   2   4
HETATM    4  O   UNL     1      -8.677   5.729  67.662  1.00  0.00    -0.110 OA 
BRANCH   4   5
HETATM    5  C   UNL     1      -7.627   5.629  68.526  1.00  0.00    -0.085 C  
HETATM    6  O   UNL     1      -6.573   5.055  68.286  1.00  0.00    -0.046 OA 
BRANCH   5   7
HETATM    7  C   UNL     1      -7.970   6.273  69.843  1.00  0.00    -0.115 C  
BRANCH   7   8
HETATM    8  C   UNL     1      -6.919   7.325  70.196  1.00  0.00    -0.060 C  
BRANCH   8   9
HETATM    9  C   UNL     1      -7.087   7.910  71.595  1.00  0.00    -0.067 C  
BRANCH   9  10
HETATM   10  C   UNL     1      -7.387   6.863  72.632  1.00  0.00    -0.082 C  
HETATM   11  C   UNL     1      -8.521   6.760  73.343  1.00  0.00    -0.132 C  
BRANCH  11  12
HETATM   12  C   UNL     1      -9.678   7.719  73.294  1.00  0.00    -0.357 C  
BRANCH  12  13
HETATM   13  C   UNL     1     -10.537   7.561  72.032  1.00  0.00    -0.248 C  
HETATM   14  C   UNL     1     -11.339   6.258  71.937  1.00  0.00    -0.299 C  
HETATM   15  O   UNL     1     -11.860   5.867  73.204  1.00  0.00    -0.469 OA 
HETATM   16  C   UNL     1     -12.505   6.609  71.021  1.00  0.00    -0.225 C  
HETATM   17  C   UNL     1     -12.897   8.018  71.456  1.00  0.00    -0.311 C  
HETATM   18  H   UNL     1     -12.357   5.059  73.145  1.00  0.00     0.000 HD 
HETATM   19  O   UNL     1     -13.812   7.947  72.554  1.00  0.00    -0.524 OA 
HETATM   20  C   UNL     1     -11.586   8.703  71.915  1.00  0.00    -0.420 C  
HETATM   21  H   UNL     1     -14.055   8.824  72.826  1.00  0.00     0.000 HD 
BRANCH  20  22
HETATM   22  C   UNL     1     -11.036   9.807  71.030  1.00  0.00    -0.402 C  
HETATM   23  C   UNL     1     -10.428   9.650  69.840  1.00  0.00    -0.285 C  
BRANCH  23  24
HETATM   24  C   UNL     1      -9.824  10.733  68.972  1.00  0.00    -0.194 C  
HETATM   25  H   UNL     1      -8.114  11.056  68.071  1.00  0.00     0.000 HD 
HETATM   26  O   UNL     1      -8.493  10.375  68.615  1.00  0.00    -0.115 OA 
BRANCH  24  27
HETATM   27  C   UNL     1     -10.676  10.940  67.704  1.00  0.00    -0.242 C  
BRANCH  27  28
HETATM   28  O   UNL     1     -11.919  11.592  68.013  1.00  0.00    -0.595 OA 
BRANCH  28  29
HETATM   29  C   UNL     1     -11.799  12.929  68.298  1.00  0.00    -0.330 A  
HETATM   30  C   UNL     1     -11.317  13.884  67.399  1.00  0.00    -0.349 A  
HETATM   31  C   UNL     1     -11.241  15.228  67.772  1.00  0.00    -0.327 A  
HETATM   32  C   UNL     1     -11.654  15.624  69.042  1.00  0.00    -0.396 A  
HETATM   33  C   UNL     1     -12.155  14.686  69.952  1.00  0.00    -0.385 A  
HETATM   34  C   UNL     1     -12.601  15.114  71.328  1.00  0.00    -0.353 C  
HETATM   35  C   UNL     1     -12.234  13.336  69.563  1.00  0.00    -0.233 A  
HETATM   36  F   UNL     1     -12.419  16.445  71.566  1.00  0.00    -0.429 F  
HETATM   37  F   UNL     1     -11.930  14.467  72.321  1.00  0.00    -0.374 F  
HETATM   38  F   UNL     1     -13.923  14.877  71.550  1.00  0.00    -0.408 F  
ENDBRANCH  28  29
ENDBRANCH  27  28
ENDBRANCH  24  27
ENDBRANCH  23  24
ENDBRANCH  20  22
ENDBRANCH  12  13
ENDBRANCH  11  12
ENDBRANCH   9  10
ENDBRANCH   8   9
ENDBRANCH   7   8
ENDBRANCH   5   7
ENDBRANCH   4   5
ENDBRANCH   2   4
TORSDOF 13
ENDMDL
MODEL      106
REMARK 921   NORMALIZED FREE ENERGY PREDICTED BY IDOCK:   -5.82 KCAL/MOL
REMARK 922        TOTAL FREE ENERGY PREDICTED BY IDOCK:  -12.46 KCAL/MOL
REMARK 923 INTER-LIGAND FREE ENERGY PREDICTED BY IDOCK:   -9.84 KCAL/MOL
REMARK 924 INTRA-LIGAND FREE ENERGY PREDICTED BY IDOCK:   -2.63 KCAL/MOL
REMARK 927      BINDING AFFINITY PREDICTED BY RF-SCORE:    0.00 PKD
ROOT
HETATM    1  C   UNL     1      -8.550   6.428  65.842  1.00  0.00    -0.151 C  
HETATM    2  C   UNL     1      -9.241   6.152  67.173  1.00  0.00    -0.118 C  
HETATM    3  C   UNL     1     -10.748   6.015  66.981  1.00  0.00    -0.412 C  
ENDROOT
BRANCH   2   4
HETATM    4  O   UNL     1      -8.758   4.908  67.711  1.00  0.00    -0.103 OA 
BRANCH   4   5
HETATM    5  C   UNL     1      -7.685   5.022  68.545  1.00  0.00    -0.079 C  
HETATM    6  O   UNL     1      -6.670   4.343  68.479  1.00  0.00    -0.045 OA 
BRANCH   5   7
HETATM    7  C   UNL     1      -7.952   6.063  69.599  1.00  0.00    -0.106 C  
BRANCH   7   8
HETATM    8  C   UNL     1      -6.749   6.999  69.720  1.00  0.00    -0.049 C  
BRANCH   8   9
HETATM    9  C   UNL     1      -6.734   7.810  71.012  1.00  0.00    -0.038 C  
BRANCH   9  10
HETATM   10  C   UNL     1      -6.995   6.968  72.231  1.00  0.00    -0.065 C  
HETATM   11  C   UNL     1      -8.040   7.093  73.066  1.00  0.00    -0.121 C  
BRANCH  11  12
HETATM   12  C   UNL     1      -9.107   8.149  72.985  1.00  0.00    -0.344 C  
BRANCH  12  13
HETATM   13  C   UNL     1     -10.200   7.822  71.958  1.00  0.00    -0.253 C  
HETATM   14  C   UNL     1     -11.056   6.590  72.276  1.00  0.00    -0.263 C  
HETATM   15  O   UNL     1     -11.336   6.487  73.668  1.00  0.00    -0.365 OA 
HETATM   16  C   UNL     1     -12.364   6.850  71.536  1.00  0.00    -0.420 C  
HETATM   17  C   UNL     1     -12.607   8.342  71.744  1.00  0.00    -0.342 C  
HETATM   18  H   UNL     1     -11.867   5.723  73.864  1.00  0.00     0.000 HD 
HETATM   19  O   UNL     1     -13.294   8.550  72.983  1.00  0.00    -0.725 OA 
HETATM   20  C   UNL     1     -11.206   8.998  71.809  1.00  0.00    -0.448 C  
HETATM   21  H   UNL     1     -13.445   9.480  73.112  1.00  0.00     0.000 HD 
BRANCH  20  22
HETATM   22  C   UNL     1     -10.795   9.869  70.635  1.00  0.00    -0.400 C  
HETATM   23  C   UNL     1     -10.300   9.443  69.458  1.00  0.00    -0.223 C  
BRANCH  23  24
HETATM   24  C   UNL     1      -9.834  10.300  68.300  1.00  0.00    -0.146 C  
HETATM   25  H   UNL     1      -8.428  10.217  66.937  1.00  0.00     0.000 HD 
HETATM   26  O   UNL     1      -8.721   9.679  67.664  1.00  0.00    -0.125 OA 
BRANCH  24  27
HETATM   27  C   UNL     1     -10.979  10.501  67.288  1.00  0.00    -0.260 C  
BRANCH  27  28
HETATM   28  O   UNL     1     -12.051  11.269  67.861  1.00  0.00    -0.634 OA 
BRANCH  28  29
HETATM   29  C   UNL     1     -11.842  12.625  67.847  1.00  0.00    -0.332 A  
HETATM   30  C   UNL     1     -11.782  13.422  68.993  1.00  0.00    -0.368 A  
HETATM   31  C   UNL     1     -11.552  14.796  68.885  1.00  0.00    -0.340 A  
HETATM   32  C   UNL     1     -11.372  15.377  67.632  1.00  0.00    -0.292 A  
HETATM   33  C   UNL     1     -11.414  14.593  66.473  1.00  0.00    -0.354 A  
HETATM   34  C   UNL     1     -11.221  15.222  65.115  1.00  0.00    -0.370 C  
HETATM   35  C   UNL     1     -11.638  13.210  66.593  1.00  0.00    -0.403 A  
HETATM   36  F   UNL     1     -11.060  16.576  65.163  1.00  0.00    -0.343 F  
HETATM   37  F   UNL     1     -12.279  15.008  64.284  1.00  0.00    -0.472 F  
HETATM   38  F   UNL     1     -10.127  14.743  64.463  1.00  0.00    -0.329 F  
ENDBRANCH  28  29
ENDBRANCH  27  28
ENDBRANCH  24  27
ENDBRANCH  23  24
ENDBRANCH  20  22
ENDBRANCH  12  13
ENDBRANCH  11  12
ENDBRANCH   9  10
ENDBRANCH   8   9
ENDBRANCH   7   8
ENDBRANCH   5   7
ENDBRANCH   4   5
ENDBRANCH   2   4
TORSDOF 13
ENDMDL
MODEL      107
REMARK 921   NORMALIZED FREE ENERGY PREDICTED BY IDOCK:   -5.81 KCAL/MOL
REMARK 922        TOTAL FREE ENERGY PREDICTED BY IDOCK:  -12.45 KCAL/MOL
REMARK 923 INTER-LIGAND FREE ENERGY PREDICTED BY IDOCK:  -10.09 KCAL/MOL
REMARK 924 INTRA-LIGAND FREE ENERGY PREDICTED BY IDOCK:   -2.35 KCAL/MOL
REMARK 927      BINDING AFFINITY PREDICTED BY RF-SCORE:    0.00 PKD
ROOT
HETATM    1  C   UNL     1     -10.972  15.710  68.045  1.00  0.00    -0.318 C  
HETATM    2  C   UNL     1     -11.174  15.388  66.568  1.00  0.00    -0.162 C  
HETATM    3  C   UNL     1      -9.831  15.257  65.856  1.00  0.00    -0.385 C  
ENDROOT
BRANCH   2   4
HETATM    4  O   UNL     1     -11.854  14.126  66.446  1.00  0.00    -0.386 OA 
BRANCH   4   5
HETATM    5  C   UNL     1     -12.304  13.835  65.193  1.00  0.00    -0.448 C  
HETATM    6  O   UNL     1     -12.757  14.652  64.402  1.00  0.00    -0.636 OA 
BRANCH   5   7
HETATM    7  C   UNL     1     -12.220  12.353  64.938  1.00  0.00    -0.485 C  
BRANCH   7   8
HETATM    8  C   UNL     1     -10.959  11.785  65.590  1.00  0.00    -0.348 C  
BRANCH   8   9
HETATM    9  C   UNL     1      -9.831  11.513  64.600  1.00  0.00    -0.283 C  
BRANCH   9  10
HETATM   10  C   UNL     1      -9.253  10.131  64.740  1.00  0.00    -0.291 C  
HETATM   11  C   UNL     1      -8.586   9.661  65.806  1.00  0.00    -0.149 C  
BRANCH  11  12
HETATM   12  C   UNL     1      -8.220  10.451  67.032  1.00  0.00    -0.123 C  
BRANCH  12  13
HETATM   13  C   UNL     1      -7.611   9.588  68.145  1.00  0.00    -0.079 C  
HETATM   14  C   UNL     1      -6.078   9.566  68.198  1.00  0.00    -0.055 C  
HETATM   15  O   UNL     1      -5.522  10.844  67.905  1.00  0.00    -0.040 OA 
HETATM   16  C   UNL     1      -5.766   9.222  69.650  1.00  0.00    -0.033 C  
HETATM   17  C   UNL     1      -6.802  10.014  70.441  1.00  0.00    -0.136 C  
HETATM   18  H   UNL     1      -4.572  10.829  67.938  1.00  0.00     0.000 HD 
HETATM   19  O   UNL     1      -6.319  11.341  70.676  1.00  0.00    -0.459 OA 
HETATM   20  C   UNL     1      -8.067  10.072  69.550  1.00  0.00    -0.166 C  
HETATM   21  H   UNL     1      -6.964  11.834  71.168  1.00  0.00     0.000 HD 
BRANCH  20  22
HETATM   22  C   UNL     1      -9.267   9.258  70.000  1.00  0.00    -0.231 C  
HETATM   23  C   UNL     1      -9.499   8.794  71.242  1.00  0.00    -0.320 C  
BRANCH  23  24
HETATM   24  C   UNL     1     -10.660   7.935  71.694  1.00  0.00    -0.221 C  
HETATM   25  H   UNL     1     -11.681   7.664  73.345  1.00  0.00     0.000 HD 
HETATM   26  O   UNL     1     -10.952   8.204  73.062  1.00  0.00    -0.330 OA 
BRANCH  24  27
HETATM   27  C   UNL     1     -11.902   8.211  70.823  1.00  0.00    -0.159 C  
BRANCH  27  28
HETATM   28  O   UNL     1     -12.755   9.195  71.431  1.00  0.00    -0.316 OA 
BRANCH  28  29
HETATM   29  C   UNL     1     -12.536  10.478  70.995  1.00  0.00    -0.400 A  
HETATM   30  C   UNL     1     -12.033  10.803  69.733  1.00  0.00    -0.397 A  
HETATM   31  C   UNL     1     -11.854  12.140  69.369  1.00  0.00    -0.370 A  
HETATM   32  C   UNL     1     -12.183  13.157  70.262  1.00  0.00    -0.376 A  
HETATM   33  C   UNL     1     -12.702  12.852  71.526  1.00  0.00    -0.339 A  
HETATM   34  C   UNL     1     -13.059  13.953  72.494  1.00  0.00    -0.437 C  
HETATM   35  C   UNL     1     -12.887  11.503  71.879  1.00  0.00    -0.372 A  
HETATM   36  F   UNL     1     -12.780  15.202  72.021  1.00  0.00    -0.326 F  
HETATM   37  F   UNL     1     -12.387  13.849  73.675  1.00  0.00    -0.063 F  
HETATM   38  F   UNL     1     -14.381  13.966  72.813  1.00  0.00    -0.456 F  
ENDBRANCH  28  29
ENDBRANCH  27  28
ENDBRANCH  24  27
ENDBRANCH  23  24
ENDBRANCH  20  22
ENDBRANCH  12  13
ENDBRANCH  11  12
ENDBRANCH   9  10
ENDBRANCH   8   9
ENDBRANCH   7   8
ENDBRANCH   5   7
ENDBRANCH   4   5
ENDBRANCH   2   4
TORSDOF 13
ENDMDL
MODEL      108
REMARK 921   NORMALIZED FREE ENERGY PREDICTED BY IDOCK:   -5.81 KCAL/MOL
REMARK 922        TOTAL FREE ENERGY PREDICTED BY IDOCK:  -12.45 KCAL/MOL
REMARK 923 INTER-LIGAND FREE ENERGY PREDICTED BY IDOCK:   -9.65 KCAL/MOL
REMARK 924 INTRA-LIGAND FREE ENERGY PREDICTED BY IDOCK:   -2.79 KCAL/MOL
REMARK 927      BINDING AFFINITY PREDICTED BY RF-SCORE:    0.00 PKD
ROOT
HETATM    1  C   UNL     1     -10.860   6.476  67.265  1.00  0.00    -0.463 C  
HETATM    2  C   UNL     1      -9.876   5.473  67.857  1.00  0.00    -0.138 C  
HETATM    3  C   UNL     1      -8.832   5.066  66.823  1.00  0.00    -0.107 C  
ENDROOT
BRANCH   2   4
HETATM    4  O   UNL     1      -9.180   6.084  68.959  1.00  0.00    -0.122 OA 
BRANCH   4   5
HETATM    5  C   UNL     1      -8.881   5.241  69.987  1.00  0.00    -0.120 C  
HETATM    6  O   UNL     1      -7.757   4.846  70.268  1.00  0.00    -0.060 OA 
BRANCH   5   7
HETATM    7  C   UNL     1     -10.140   4.814  70.695  1.00  0.00    -0.288 C  
BRANCH   7   8
HETATM    8  C   UNL     1     -10.224   5.497  72.060  1.00  0.00    -0.249 C  
BRANCH   8   9
HETATM    9  C   UNL     1     -11.526   6.262  72.280  1.00  0.00    -0.351 C  
BRANCH   9  10
HETATM   10  C   UNL     1     -11.301   7.675  72.746  1.00  0.00    -0.419 C  
HETATM   11  C   UNL     1     -10.999   8.723  71.964  1.00  0.00    -0.438 C  
BRANCH  11  12
HETATM   12  C   UNL     1     -10.752   8.671  70.482  1.00  0.00    -0.252 C  
BRANCH  12  13
HETATM   13  C   UNL     1     -10.205   9.989  69.917  1.00  0.00    -0.304 C  
HETATM   14  C   UNL     1      -8.784   9.923  69.346  1.00  0.00    -0.179 C  
HETATM   15  O   UNL     1      -8.550   8.702  68.653  1.00  0.00    -0.129 OA 
HETATM   16  C   UNL     1      -8.737  11.068  68.341  1.00  0.00    -0.150 C  
HETATM   17  C   UNL     1     -10.107  11.019  67.672  1.00  0.00    -0.182 C  
HETATM   18  H   UNL     1      -7.669   8.661  68.299  1.00  0.00     0.000 HD 
HETATM   19  O   UNL     1     -10.079  10.093  66.582  1.00  0.00    -0.205 OA 
HETATM   20  C   UNL     1     -11.093  10.518  68.755  1.00  0.00    -0.315 C  
HETATM   21  H   UNL     1     -10.932  10.062  66.165  1.00  0.00     0.000 HD 
BRANCH  20  22
HETATM   22  C   UNL     1     -12.092  11.524  69.300  1.00  0.00    -0.344 C  
HETATM   23  C   UNL     1     -12.008  12.181  70.472  1.00  0.00    -0.308 C  
BRANCH  23  24
HETATM   24  C   UNL     1     -13.021  13.143  71.054  1.00  0.00    -0.133 C  
HETATM   25  H   UNL     1     -14.170  13.220  72.640  1.00  0.00     0.000 HD 
HETATM   26  O   UNL     1     -13.534  12.617  72.274  1.00  0.00    -0.561 OA 
BRANCH  24  27
HETATM   27  C   UNL     1     -12.372  14.519  71.302  1.00  0.00    -0.351 C  
BRANCH  27  28
HETATM   28  O   UNL     1     -12.732  15.456  70.274  1.00  0.00    -0.375 OA 
BRANCH  28  29
HETATM   29  C   UNL     1     -11.730  15.714  69.371  1.00  0.00    -0.383 A  
HETATM   30  C   UNL     1     -10.626  16.528  69.634  1.00  0.00    -0.302 A  
HETATM   31  C   UNL     1      -9.646  16.723  68.657  1.00  0.00    -0.255 A  
HETATM   32  C   UNL     1      -9.762  16.100  67.417  1.00  0.00    -0.233 A  
HETATM   33  C   UNL     1     -10.854  15.269  67.139  1.00  0.00    -0.322 A  
HETATM   34  C   UNL     1     -10.982  14.594  65.796  1.00  0.00    -0.330 C  
HETATM   35  C   UNL     1     -11.830  15.072  68.132  1.00  0.00    -0.286 A  
HETATM   36  F   UNL     1      -9.980  14.921  64.929  1.00  0.00    -0.379 F  
HETATM   37  F   UNL     1     -12.140  14.915  65.157  1.00  0.00    -0.346 F  
HETATM   38  F   UNL     1     -10.964  13.236  65.884  1.00  0.00    -0.274 F  
ENDBRANCH  28  29
ENDBRANCH  27  28
ENDBRANCH  24  27
ENDBRANCH  23  24
ENDBRANCH  20  22
ENDBRANCH  12  13
ENDBRANCH  11  12
ENDBRANCH   9  10
ENDBRANCH   8   9
ENDBRANCH   7   8
ENDBRANCH   5   7
ENDBRANCH   4   5
ENDBRANCH   2   4
TORSDOF 13
ENDMDL
MODEL      109
REMARK 921   NORMALIZED FREE ENERGY PREDICTED BY IDOCK:   -5.80 KCAL/MOL
REMARK 922        TOTAL FREE ENERGY PREDICTED BY IDOCK:  -12.43 KCAL/MOL
REMARK 923 INTER-LIGAND FREE ENERGY PREDICTED BY IDOCK:  -11.14 KCAL/MOL
REMARK 924 INTRA-LIGAND FREE ENERGY PREDICTED BY IDOCK:   -1.29 KCAL/MOL
REMARK 927      BINDING AFFINITY PREDICTED BY RF-SCORE:    0.00 PKD
ROOT
HETATM    1  C   UNL     1     -14.355  15.349  72.082  1.00  0.00    -0.642 C  
HETATM    2  C   UNL     1     -12.893  15.614  72.426  1.00  0.00    -0.433 C  
HETATM    3  C   UNL     1     -12.740  15.963  73.902  1.00  0.00    -0.727 C  
ENDROOT
BRANCH   2   4
HETATM    4  O   UNL     1     -12.124  14.423  72.180  1.00  0.00    -0.234 OA 
BRANCH   4   5
HETATM    5  C   UNL     1     -12.642  13.590  71.232  1.00  0.00    -0.341 C  
HETATM    6  O   UNL     1     -12.573  13.773  70.024  1.00  0.00    -0.275 OA 
BRANCH   5   7
HETATM    7  C   UNL     1     -13.365  12.442  71.885  1.00  0.00    -0.450 C  
BRANCH   7   8
HETATM    8  C   UNL     1     -12.625  11.135  71.603  1.00  0.00    -0.386 C  
BRANCH   8   9
HETATM    9  C   UNL     1     -13.380   9.894  72.071  1.00  0.00    -0.532 C  
BRANCH   9  10
HETATM   10  C   UNL     1     -13.036   8.667  71.270  1.00  0.00    -0.192 C  
HETATM   11  C   UNL     1     -12.142   7.727  71.613  1.00  0.00    -0.335 C  
BRANCH  11  12
HETATM   12  C   UNL     1     -11.255   7.761  72.827  1.00  0.00    -0.456 C  
BRANCH  12  13
HETATM   13  C   UNL     1      -9.884   8.395  72.554  1.00  0.00    -0.359 C  
HETATM   14  C   UNL     1      -8.791   8.069  73.578  1.00  0.00    -0.268 C  
HETATM   15  O   UNL     1      -8.873   6.720  74.026  1.00  0.00    -0.144 OA 
HETATM   16  C   UNL     1      -7.493   8.243  72.799  1.00  0.00    -0.152 C  
HETATM   17  C   UNL     1      -7.812   7.657  71.427  1.00  0.00    -0.089 C  
HETATM   18  H   UNL     1      -8.194   6.518  74.660  1.00  0.00     0.000 HD 
HETATM   19  O   UNL     1      -7.585   6.244  71.442  1.00  0.00    -0.095 OA 
HETATM   20  C   UNL     1      -9.314   7.940  71.181  1.00  0.00    -0.171 C  
HETATM   21  H   UNL     1      -7.785   5.879  70.587  1.00  0.00     0.000 HD 
BRANCH  20  22
HETATM   22  C   UNL     1      -9.659   8.974  70.123  1.00  0.00    -0.217 C  
HETATM   23  C   UNL     1      -9.757   8.760  68.798  1.00  0.00    -0.171 C  
BRANCH  23  24
HETATM   24  C   UNL     1     -10.044   9.790  67.726  1.00  0.00    -0.180 C  
HETATM   25  H   UNL     1     -10.926   9.823  65.976  1.00  0.00     0.000 HD 
HETATM   26  O   UNL     1     -10.747   9.177  66.649  1.00  0.00    -0.145 OA 
BRANCH  24  27
HETATM   27  C   UNL     1     -10.875  10.951  68.308  1.00  0.00    -0.225 C  
BRANCH  27  28
HETATM   28  O   UNL     1     -11.901  11.367  67.390  1.00  0.00    -0.609 OA 
BRANCH  28  29
HETATM   29  C   UNL     1     -11.551  12.433  66.600  1.00  0.00    -0.385 A  
HETATM   30  C   UNL     1     -12.221  12.796  65.429  1.00  0.00    -0.532 A  
HETATM   31  C   UNL     1     -11.803  13.907  64.693  1.00  0.00    -0.428 A  
HETATM   32  C   UNL     1     -10.718  14.664  65.128  1.00  0.00    -0.430 A  
HETATM   33  C   UNL     1     -10.043  14.326  66.307  1.00  0.00    -0.308 A  
HETATM   34  C   UNL     1      -8.867  15.146  66.779  1.00  0.00    -0.271 C  
HETATM   35  C   UNL     1     -10.477  13.211  67.045  1.00  0.00    -0.248 A  
HETATM   36  F   UNL     1      -8.542  16.165  65.932  1.00  0.00    -0.355 F  
HETATM   37  F   UNL     1      -7.733  14.404  66.914  1.00  0.00    -0.177 F  
HETATM   38  F   UNL     1      -9.083  15.727  67.990  1.00  0.00    -0.181 F  
ENDBRANCH  28  29
ENDBRANCH  27  28
ENDBRANCH  24  27
ENDBRANCH  23  24
ENDBRANCH  20  22
ENDBRANCH  12  13
ENDBRANCH  11  12
ENDBRANCH   9  10
ENDBRANCH   8   9
ENDBRANCH   7   8
ENDBRANCH   5   7
ENDBRANCH   4   5
ENDBRANCH   2   4
TORSDOF 13
ENDMDL
MODEL      110
REMARK 921   NORMALIZED FREE ENERGY PREDICTED BY IDOCK:   -5.80 KCAL/MOL
REMARK 922        TOTAL FREE ENERGY PREDICTED BY IDOCK:  -12.43 KCAL/MOL
REMARK 923 INTER-LIGAND FREE ENERGY PREDICTED BY IDOCK:   -9.79 KCAL/MOL
REMARK 924 INTRA-LIGAND FREE ENERGY PREDICTED BY IDOCK:   -2.64 KCAL/MOL
REMARK 927      BINDING AFFINITY PREDICTED BY RF-SCORE:    0.00 PKD
ROOT
HETATM    1  C   UNL     1     -12.023  14.588  66.706  1.00  0.00    -0.364 C  
HETATM    2  C   UNL     1     -11.558  13.150  66.905  1.00  0.00    -0.368 C  
HETATM    3  C   UNL     1     -11.796  12.699  68.342  1.00  0.00    -0.347 C  
ENDROOT
BRANCH   2   4
HETATM    4  O   UNL     1     -12.320  12.282  66.046  1.00  0.00    -0.609 OA 
BRANCH   4   5
HETATM    5  C   UNL     1     -11.970  12.325  64.730  1.00  0.00    -0.362 C  
HETATM    6  O   UNL     1     -12.737  12.566  63.807  1.00  0.00    -0.696 OA 
BRANCH   5   7
HETATM    7  C   UNL     1     -10.515  11.975  64.564  1.00  0.00    -0.341 C  
BRANCH   7   8
HETATM    8  C   UNL     1     -10.264  10.550  65.056  1.00  0.00    -0.365 C  
BRANCH   8   9
HETATM    9  C   UNL     1      -9.280   9.770  64.189  1.00  0.00    -0.277 C  
BRANCH   9  10
HETATM   10  C   UNL     1      -7.985   9.478  64.897  1.00  0.00    -0.121 C  
HETATM   11  C   UNL     1      -7.647   8.313  65.473  1.00  0.00    -0.087 C  
BRANCH  11  12
HETATM   12  C   UNL     1      -8.531   7.102  65.588  1.00  0.00    -0.141 C  
BRANCH  12  13
HETATM   13  C   UNL     1      -9.262   7.015  66.934  1.00  0.00    -0.174 C  
HETATM   14  C   UNL     1     -10.742   6.623  66.858  1.00  0.00    -0.331 C  
HETATM   15  O   UNL     1     -10.974   5.635  65.859  1.00  0.00    -0.633 OA 
HETATM   16  C   UNL     1     -11.031   6.010  68.223  1.00  0.00    -0.347 C  
HETATM   17  C   UNL     1      -9.776   5.199  68.530  1.00  0.00    -0.149 C  
HETATM   18  H   UNL     1     -11.892   5.392  65.812  1.00  0.00     0.000 HD 
HETATM   19  O   UNL     1      -9.889   3.896  67.947  1.00  0.00    -0.119 OA 
HETATM   20  C   UNL     1      -8.602   5.963  67.870  1.00  0.00    -0.105 C  
HETATM   21  H   UNL     1      -9.107   3.391  68.138  1.00  0.00     0.000 HD 
BRANCH  20  22
HETATM   22  C   UNL     1      -7.620   6.656  68.798  1.00  0.00    -0.104 C  
HETATM   23  C   UNL     1      -7.604   7.965  69.112  1.00  0.00    -0.098 C  
BRANCH  23  24
HETATM   24  C   UNL     1      -6.599   8.680  69.990  1.00  0.00    -0.038 C  
HETATM   25  H   UNL     1      -5.805  10.470  70.086  1.00  0.00     0.000 HD 
HETATM   26  O   UNL     1      -6.436  10.021  69.535  1.00  0.00    -0.044 OA 
BRANCH  24  27
HETATM   27  C   UNL     1      -7.069   8.672  71.458  1.00  0.00    -0.089 C  
BRANCH  27  28
HETATM   28  O   UNL     1      -8.288   9.416  71.618  1.00  0.00    -0.233 OA 
BRANCH  28  29
HETATM   29  C   UNL     1      -9.410   8.637  71.748  1.00  0.00    -0.273 A  
HETATM   30  C   UNL     1      -9.388   7.268  72.026  1.00  0.00    -0.150 A  
HETATM   31  C   UNL     1     -10.583   6.555  72.154  1.00  0.00    -0.240 A  
HETATM   32  C   UNL     1     -11.805   7.210  72.012  1.00  0.00    -0.333 A  
HETATM   33  C   UNL     1     -11.848   8.584  71.748  1.00  0.00    -0.395 A  
HETATM   34  C   UNL     1     -13.171   9.293  71.593  1.00  0.00    -0.388 C  
HETATM   35  C   UNL     1     -10.640   9.294  71.630  1.00  0.00    -0.360 A  
HETATM   36  F   UNL     1     -14.247   8.460  71.691  1.00  0.00    -0.404 F  
HETATM   37  F   UNL     1     -13.294   9.912  70.386  1.00  0.00    -0.249 F  
HETATM   38  F   UNL     1     -13.365  10.258  72.533  1.00  0.00    -0.455 F  
ENDBRANCH  28  29
ENDBRANCH  27  28
ENDBRANCH  24  27
ENDBRANCH  23  24
ENDBRANCH  20  22
ENDBRANCH  12  13
ENDBRANCH  11  12
ENDBRANCH   9  10
ENDBRANCH   8   9
ENDBRANCH   7   8
ENDBRANCH   5   7
ENDBRANCH   4   5
ENDBRANCH   2   4
TORSDOF 13
ENDMDL
MODEL      111
REMARK 921   NORMALIZED FREE ENERGY PREDICTED BY IDOCK:   -5.79 KCAL/MOL
REMARK 922        TOTAL FREE ENERGY PREDICTED BY IDOCK:  -12.41 KCAL/MOL
REMARK 923 INTER-LIGAND FREE ENERGY PREDICTED BY IDOCK:  -10.18 KCAL/MOL
REMARK 924 INTRA-LIGAND FREE ENERGY PREDICTED BY IDOCK:   -2.22 KCAL/MOL
REMARK 927      BINDING AFFINITY PREDICTED BY RF-SCORE:    0.00 PKD
ROOT
HETATM    1  C   UNL     1     -10.221  20.247  66.526  1.00  0.00    -0.477 C  
HETATM    2  C   UNL     1      -8.906  19.500  66.330  1.00  0.00    -0.361 C  
HETATM    3  C   UNL     1      -7.734  20.324  66.854  1.00  0.00    -0.353 C  
ENDROOT
BRANCH   2   4
HETATM    4  O   UNL     1      -8.941  18.271  67.077  1.00  0.00    -0.262 OA 
BRANCH   4   5
HETATM    5  C   UNL     1      -9.976  17.440  66.766  1.00  0.00    -0.307 C  
HETATM    6  O   UNL     1     -10.338  17.163  65.631  1.00  0.00    -0.557 OA 
BRANCH   5   7
HETATM    7  C   UNL     1     -10.653  16.956  68.022  1.00  0.00    -0.367 C  
BRANCH   7   8
HETATM    8  C   UNL     1      -9.921  15.729  68.565  1.00  0.00    -0.208 C  
BRANCH   8   9
HETATM    9  C   UNL     1     -10.851  14.572  68.919  1.00  0.00    -0.262 C  
BRANCH   9  10
HETATM   10  C   UNL     1     -11.965  14.395  67.923  1.00  0.00    -0.348 C  
HETATM   11  C   UNL     1     -11.897  13.691  66.782  1.00  0.00    -0.452 C  
BRANCH  11  12
HETATM   12  C   UNL     1     -10.670  13.009  66.242  1.00  0.00    -0.290 C  
BRANCH  12  13
HETATM   13  C   UNL     1     -10.707  11.484  66.409  1.00  0.00    -0.320 C  
HETATM   14  C   UNL     1      -9.975  10.684  65.325  1.00  0.00    -0.294 C  
HETATM   15  O   UNL     1      -8.770  11.326  64.919  1.00  0.00    -0.383 OA 
HETATM   16  C   UNL     1      -9.618   9.372  66.013  1.00  0.00    -0.328 C  
HETATM   17  C   UNL     1      -9.204   9.801  67.418  1.00  0.00    -0.134 C  
HETATM   18  H   UNL     1      -8.317  10.829  64.247  1.00  0.00     0.000 HD 
HETATM   19  O   UNL     1      -7.817  10.155  67.425  1.00  0.00    -0.102 OA 
HETATM   20  C   UNL     1     -10.061  11.046  67.754  1.00  0.00    -0.201 C  
HETATM   21  H   UNL     1      -7.560  10.422  68.300  1.00  0.00     0.000 HD 
BRANCH  20  22
HETATM   22  C   UNL     1     -11.144  10.878  68.804  1.00  0.00    -0.310 C  
HETATM   23  C   UNL     1     -10.963  10.809  70.136  1.00  0.00    -0.230 C  
BRANCH  23  24
HETATM   24  C   UNL     1     -12.025  10.585  71.191  1.00  0.00    -0.336 C  
HETATM   25  H   UNL     1     -13.786  11.328  71.627  1.00  0.00     0.000 HD 
HETATM   26  O   UNL     1     -13.119  11.469  70.964  1.00  0.00    -0.219 OA 
BRANCH  24  27
HETATM   27  C   UNL     1     -12.510   9.122  71.160  1.00  0.00    -0.254 C  
BRANCH  27  28
HETATM   28  O   UNL     1     -11.911   8.354  72.217  1.00  0.00    -0.348 OA 
BRANCH  28  29
HETATM   29  C   UNL     1     -11.357   7.167  71.806  1.00  0.00    -0.252 A  
HETATM   30  C   UNL     1     -11.147   6.067  72.641  1.00  0.00    -0.314 A  
HETATM   31  C   UNL     1     -10.588   4.892  72.132  1.00  0.00    -0.232 A  
HETATM   32  C   UNL     1     -10.245   4.809  70.784  1.00  0.00    -0.246 A  
HETATM   33  C   UNL     1     -10.462   5.895  69.928  1.00  0.00    -0.337 A  
HETATM   34  C   UNL     1     -10.089   5.806  68.468  1.00  0.00    -0.178 C  
HETATM   35  C   UNL     1     -11.033   7.070  70.448  1.00  0.00    -0.301 A  
HETATM   36  F   UNL     1      -9.506   4.620  68.129  1.00  0.00    -0.140 F  
HETATM   37  F   UNL     1      -9.203   6.771  68.095  1.00  0.00    -0.125 F  
HETATM   38  F   UNL     1     -11.162   5.940  67.642  1.00  0.00    -0.354 F  
ENDBRANCH  28  29
ENDBRANCH  27  28
ENDBRANCH  24  27
ENDBRANCH  23  24
ENDBRANCH  20  22
ENDBRANCH  12  13
ENDBRANCH  11  12
ENDBRANCH   9  10
ENDBRANCH   8   9
ENDBRANCH   7   8
ENDBRANCH   5   7
ENDBRANCH   4   5
ENDBRANCH   2   4
TORSDOF 13
ENDMDL
MODEL      112
REMARK 921   NORMALIZED FREE ENERGY PREDICTED BY IDOCK:   -5.79 KCAL/MOL
REMARK 922        TOTAL FREE ENERGY PREDICTED BY IDOCK:  -12.40 KCAL/MOL
REMARK 923 INTER-LIGAND FREE ENERGY PREDICTED BY IDOCK:  -10.66 KCAL/MOL
REMARK 924 INTRA-LIGAND FREE ENERGY PREDICTED BY IDOCK:   -1.74 KCAL/MOL
REMARK 927      BINDING AFFINITY PREDICTED BY RF-SCORE:    0.00 PKD
ROOT
HETATM    1  C   UNL     1      -7.279   9.741  64.088  1.00  0.00    -0.129 C  
HETATM    2  C   UNL     1      -8.413   8.767  64.390  1.00  0.00    -0.129 C  
HETATM    3  C   UNL     1      -7.871   7.483  65.009  1.00  0.00    -0.127 C  
ENDROOT
BRANCH   2   4
HETATM    4  O   UNL     1      -9.310   9.364  65.343  1.00  0.00    -0.232 OA 
BRANCH   4   5
HETATM    5  C   UNL     1      -8.897   9.297  66.640  1.00  0.00    -0.128 C  
HETATM    6  O   UNL     1      -7.860   9.781  67.073  1.00  0.00    -0.101 OA 
BRANCH   5   7
HETATM    7  C   UNL     1      -9.871   8.490  67.457  1.00  0.00    -0.231 C  
BRANCH   7   8
HETATM    8  C   UNL     1     -10.231   9.249  68.734  1.00  0.00    -0.223 C  
BRANCH   8   9
HETATM    9  C   UNL     1     -11.495  10.094  68.605  1.00  0.00    -0.105 C  
BRANCH   9  10
HETATM   10  C   UNL     1     -12.142  10.381  69.933  1.00  0.00    -0.252 C  
HETATM   11  C   UNL     1     -12.192  11.575  70.543  1.00  0.00    -0.469 C  
BRANCH  11  12
HETATM   12  C   UNL     1     -11.543  12.840  70.052  1.00  0.00    -0.194 C  
BRANCH  12  13
HETATM   13  C   UNL     1     -12.397  14.090  70.302  1.00  0.00    -0.425 C  
HETATM   14  C   UNL     1     -13.426  13.972  71.433  1.00  0.00    -0.288 C  
HETATM   15  O   UNL     1     -12.915  13.230  72.535  1.00  0.00    -0.315 OA 
HETATM   16  C   UNL     1     -13.648  15.413  71.880  1.00  0.00    -0.590 C  
HETATM   17  C   UNL     1     -12.253  16.027  71.832  1.00  0.00    -0.489 C  
HETATM   18  H   UNL     1     -13.553  13.157  73.236  1.00  0.00     0.000 HD 
HETATM   19  O   UNL     1     -11.572  15.774  73.065  1.00  0.00    -0.385 OA 
HETATM   20  C   UNL     1     -11.513  15.314  70.673  1.00  0.00    -0.353 C  
HETATM   21  H   UNL     1     -10.702  16.157  73.034  1.00  0.00     0.000 HD 
BRANCH  20  22
HETATM   22  C   UNL     1     -11.232  16.132  69.425  1.00  0.00    -0.335 C  
HETATM   23  C   UNL     1     -10.220  17.002  69.250  1.00  0.00    -0.246 C  
BRANCH  23  24
HETATM   24  C   UNL     1      -9.959  17.866  68.035  1.00  0.00    -0.333 C  
HETATM   25  H   UNL     1      -9.808  19.782  67.649  1.00  0.00     0.000 HD 
HETATM   26  O   UNL     1      -9.971  19.240  68.412  1.00  0.00    -0.368 OA 
BRANCH  24  27
HETATM   27  C   UNL     1      -8.601  17.503  67.401  1.00  0.00    -0.220 C  
BRANCH  27  28
HETATM   28  O   UNL     1      -8.778  16.814  66.152  1.00  0.00    -0.362 OA 
BRANCH  28  29
HETATM   29  C   UNL     1      -9.212  15.519  66.280  1.00  0.00    -0.329 A  
HETATM   30  C   UNL     1      -8.517  14.522  66.969  1.00  0.00    -0.222 A  
HETATM   31  C   UNL     1      -9.042  13.230  67.060  1.00  0.00    -0.232 A  
HETATM   32  C   UNL     1     -10.267  12.932  66.468  1.00  0.00    -0.264 A  
HETATM   33  C   UNL     1     -10.987  13.920  65.786  1.00  0.00    -0.285 A  
HETATM   34  C   UNL     1     -12.314  13.598  65.145  1.00  0.00    -0.452 C  
HETATM   35  C   UNL     1     -10.453  15.220  65.708  1.00  0.00    -0.365 A  
HETATM   36  F   UNL     1     -12.671  12.287  65.270  1.00  0.00    -0.457 F  
HETATM   37  F   UNL     1     -12.325  13.856  63.807  1.00  0.00    -0.498 F  
HETATM   38  F   UNL     1     -13.343  14.313  65.675  1.00  0.00    -0.526 F  
ENDBRANCH  28  29
ENDBRANCH  27  28
ENDBRANCH  24  27
ENDBRANCH  23  24
ENDBRANCH  20  22
ENDBRANCH  12  13
ENDBRANCH  11  12
ENDBRANCH   9  10
ENDBRANCH   8   9
ENDBRANCH   7   8
ENDBRANCH   5   7
ENDBRANCH   4   5
ENDBRANCH   2   4
TORSDOF 13
ENDMDL
MODEL      113
REMARK 921   NORMALIZED FREE ENERGY PREDICTED BY IDOCK:   -5.78 KCAL/MOL
REMARK 922        TOTAL FREE ENERGY PREDICTED BY IDOCK:  -12.39 KCAL/MOL
REMARK 923 INTER-LIGAND FREE ENERGY PREDICTED BY IDOCK:   -9.77 KCAL/MOL
REMARK 924 INTRA-LIGAND FREE ENERGY PREDICTED BY IDOCK:   -2.61 KCAL/MOL
REMARK 927      BINDING AFFINITY PREDICTED BY RF-SCORE:    0.00 PKD
ROOT
HETATM    1  C   UNL     1      -7.671   4.806  63.491  1.00  0.00    -0.070 C  
HETATM    2  C   UNL     1      -7.307   6.110  64.192  1.00  0.00    -0.070 C  
HETATM    3  C   UNL     1      -7.357   7.280  63.214  1.00  0.00    -0.086 C  
ENDROOT
BRANCH   2   4
HETATM    4  O   UNL     1      -8.265   6.374  65.233  1.00  0.00    -0.132 OA 
BRANCH   4   5
HETATM    5  C   UNL     1      -7.740   6.464  66.487  1.00  0.00    -0.099 C  
HETATM    6  O   UNL     1      -7.120   5.574  67.054  1.00  0.00    -0.067 OA 
BRANCH   5   7
HETATM    7  C   UNL     1      -8.082   7.795  67.102  1.00  0.00    -0.118 C  
BRANCH   7   8
HETATM    8  C   UNL     1      -9.480   8.228  66.660  1.00  0.00    -0.271 C  
BRANCH   8   9
HETATM    9  C   UNL     1     -10.533   8.102  67.757  1.00  0.00    -0.279 C  
BRANCH   9  10
HETATM   10  C   UNL     1     -11.039   6.695  67.920  1.00  0.00    -0.310 C  
HETATM   11  C   UNL     1     -10.747   5.865  68.933  1.00  0.00    -0.370 C  
BRANCH  11  12
HETATM   12  C   UNL     1      -9.795   6.157  70.061  1.00  0.00    -0.207 C  
BRANCH  12  13
HETATM   13  C   UNL     1     -10.495   6.694  71.316  1.00  0.00    -0.244 C  
HETATM   14  C   UNL     1     -10.541   5.732  72.509  1.00  0.00    -0.221 C  
HETATM   15  O   UNL     1      -9.333   4.988  72.633  1.00  0.00    -0.133 OA 
HETATM   16  C   UNL     1     -10.671   6.650  73.718  1.00  0.00    -0.206 C  
HETATM   17  C   UNL     1      -9.749   7.820  73.386  1.00  0.00    -0.290 C  
HETATM   18  H   UNL     1      -9.362   4.392  73.373  1.00  0.00     0.000 HD 
HETATM   19  O   UNL     1      -8.412   7.511  73.794  1.00  0.00    -0.152 OA 
HETATM   20  C   UNL     1      -9.799   7.979  71.846  1.00  0.00    -0.251 C  
HETATM   21  H   UNL     1      -7.838   8.238  73.587  1.00  0.00     0.000 HD 
BRANCH  20  22
HETATM   22  C   UNL     1     -10.512   9.203  71.300  1.00  0.00    -0.398 C  
HETATM   23  C   UNL     1     -11.838   9.341  71.119  1.00  0.00    -0.396 C  
BRANCH  23  24
HETATM   24  C   UNL     1     -12.559  10.532  70.524  1.00  0.00    -0.339 C  
HETATM   25  H   UNL     1     -13.769  11.935  71.163  1.00  0.00     0.000 HD 
HETATM   26  O   UNL     1     -13.316  11.188  71.536  1.00  0.00    -0.315 OA 
BRANCH  24  27
HETATM   27  C   UNL     1     -11.547  11.514  69.900  1.00  0.00    -0.308 C  
BRANCH  27  28
HETATM   28  O   UNL     1     -11.307  11.203  68.517  1.00  0.00    -0.233 OA 
BRANCH  28  29
HETATM   29  C   UNL     1     -11.556  12.242  67.655  1.00  0.00    -0.354 A  
HETATM   30  C   UNL     1     -11.744  13.567  68.056  1.00  0.00    -0.394 A  
HETATM   31  C   UNL     1     -11.981  14.564  67.106  1.00  0.00    -0.373 A  
HETATM   32  C   UNL     1     -12.023  14.241  65.751  1.00  0.00    -0.399 A  
HETATM   33  C   UNL     1     -11.821  12.922  65.328  1.00  0.00    -0.429 A  
HETATM   34  C   UNL     1     -11.867  12.571  63.862  1.00  0.00    -0.463 C  
HETATM   35  C   UNL     1     -11.576  11.927  66.292  1.00  0.00    -0.317 A  
HETATM   36  F   UNL     1     -12.160  13.635  63.059  1.00  0.00    -0.491 F  
HETATM   37  F   UNL     1     -12.808  11.628  63.578  1.00  0.00    -0.612 F  
HETATM   38  F   UNL     1     -10.687  12.076  63.401  1.00  0.00    -0.376 F  
ENDBRANCH  28  29
ENDBRANCH  27  28
ENDBRANCH  24  27
ENDBRANCH  23  24
ENDBRANCH  20  22
ENDBRANCH  12  13
ENDBRANCH  11  12
ENDBRANCH   9  10
ENDBRANCH   8   9
ENDBRANCH   7   8
ENDBRANCH   5   7
ENDBRANCH   4   5
ENDBRANCH   2   4
TORSDOF 13
ENDMDL
MODEL      114
REMARK 921   NORMALIZED FREE ENERGY PREDICTED BY IDOCK:   -5.78 KCAL/MOL
REMARK 922        TOTAL FREE ENERGY PREDICTED BY IDOCK:  -12.39 KCAL/MOL
REMARK 923 INTER-LIGAND FREE ENERGY PREDICTED BY IDOCK:  -10.14 KCAL/MOL
REMARK 924 INTRA-LIGAND FREE ENERGY PREDICTED BY IDOCK:   -2.25 KCAL/MOL
REMARK 927      BINDING AFFINITY PREDICTED BY RF-SCORE:    0.00 PKD
ROOT
HETATM    1  C   UNL     1      -8.385  19.299  66.225  1.00  0.00    -0.327 C  
HETATM    2  C   UNL     1      -9.615  18.576  66.763  1.00  0.00    -0.321 C  
HETATM    3  C   UNL     1     -10.758  19.558  66.999  1.00  0.00    -0.592 C  
ENDROOT
BRANCH   2   4
HETATM    4  O   UNL     1     -10.063  17.614  65.791  1.00  0.00    -0.555 OA 
BRANCH   4   5
HETATM    5  C   UNL     1      -9.650  16.335  66.017  1.00  0.00    -0.337 C  
HETATM    6  O   UNL     1      -8.482  15.972  66.063  1.00  0.00    -0.302 OA 
BRANCH   5   7
HETATM    7  C   UNL     1     -10.836  15.417  66.145  1.00  0.00    -0.313 C  
BRANCH   7   8
HETATM    8  C   UNL     1     -10.486  14.238  67.052  1.00  0.00    -0.271 C  
BRANCH   8   9
HETATM    9  C   UNL     1     -11.707  13.482  67.569  1.00  0.00    -0.403 C  
BRANCH   9  10
HETATM   10  C   UNL     1     -11.862  13.578  69.062  1.00  0.00    -0.385 C  
HETATM   11  C   UNL     1     -11.954  12.543  69.912  1.00  0.00    -0.371 C  
BRANCH  11  12
HETATM   12  C   UNL     1     -11.996  11.090  69.527  1.00  0.00    -0.413 C  
BRANCH  12  13
HETATM   13  C   UNL     1     -11.480  10.159  70.632  1.00  0.00    -0.432 C  
HETATM   14  C   UNL     1     -12.531   9.697  71.649  1.00  0.00    -0.407 C  
HETATM   15  O   UNL     1     -13.786   9.437  71.030  1.00  0.00    -0.561 OA 
HETATM   16  C   UNL     1     -11.972   8.384  72.185  1.00  0.00    -0.438 C  
HETATM   17  C   UNL     1     -11.385   7.709  70.949  1.00  0.00    -0.276 C  
HETATM   18  H   UNL     1     -14.437   9.151  71.661  1.00  0.00     0.000 HD 
HETATM   19  O   UNL     1     -12.407   6.972  70.271  1.00  0.00    -0.623 OA 
HETATM   20  C   UNL     1     -10.878   8.854  70.038  1.00  0.00    -0.239 C  
HETATM   21  H   UNL     1     -12.041   6.552  69.501  1.00  0.00     0.000 HD 
BRANCH  20  22
HETATM   22  C   UNL     1      -9.375   9.010  69.895  1.00  0.00    -0.182 C  
HETATM   23  C   UNL     1      -8.470   8.984  70.890  1.00  0.00    -0.253 C  
BRANCH  23  24
HETATM   24  C   UNL     1      -6.975   9.194  70.771  1.00  0.00    -0.097 C  
HETATM   25  H   UNL     1      -5.401   8.085  70.409  1.00  0.00     0.000 HD 
HETATM   26  O   UNL     1      -6.339   7.953  70.483  1.00  0.00    -0.036 OA 
BRANCH  24  27
HETATM   27  C   UNL     1      -6.665  10.219  69.661  1.00  0.00    -0.085 C  
BRANCH  27  28
HETATM   28  O   UNL     1      -5.840   9.640  68.636  1.00  0.00    -0.040 OA 
BRANCH  28  29
HETATM   29  C   UNL     1      -6.316   9.822  67.362  1.00  0.00    -0.068 A  
HETATM   30  C   UNL     1      -5.506  10.053  66.246  1.00  0.00    -0.046 A  
HETATM   31  C   UNL     1      -6.077  10.214  64.982  1.00  0.00    -0.123 A  
HETATM   32  C   UNL     1      -7.459  10.137  64.825  1.00  0.00    -0.136 A  
HETATM   33  C   UNL     1      -8.287   9.892  65.927  1.00  0.00    -0.126 A  
HETATM   34  C   UNL     1      -9.784   9.810  65.759  1.00  0.00    -0.273 C  
HETATM   35  C   UNL     1      -7.701   9.723  67.195  1.00  0.00    -0.095 A  
HETATM   36  F   UNL     1     -10.198  10.040  64.479  1.00  0.00    -0.387 F  
HETATM   37  F   UNL     1     -10.448  10.716  66.529  1.00  0.00    -0.270 F  
HETATM   38  F   UNL     1     -10.286   8.590  66.095  1.00  0.00    -0.352 F  
ENDBRANCH  28  29
ENDBRANCH  27  28
ENDBRANCH  24  27
ENDBRANCH  23  24
ENDBRANCH  20  22
ENDBRANCH  12  13
ENDBRANCH  11  12
ENDBRANCH   9  10
ENDBRANCH   8   9
ENDBRANCH   7   8
ENDBRANCH   5   7
ENDBRANCH   4   5
ENDBRANCH   2   4
TORSDOF 13
ENDMDL
MODEL      115
REMARK 921   NORMALIZED FREE ENERGY PREDICTED BY IDOCK:   -5.77 KCAL/MOL
REMARK 922        TOTAL FREE ENERGY PREDICTED BY IDOCK:  -12.37 KCAL/MOL
REMARK 923 INTER-LIGAND FREE ENERGY PREDICTED BY IDOCK:  -10.16 KCAL/MOL
REMARK 924 INTRA-LIGAND FREE ENERGY PREDICTED BY IDOCK:   -2.21 KCAL/MOL
REMARK 927      BINDING AFFINITY PREDICTED BY RF-SCORE:    0.00 PKD
ROOT
HETATM    1  C   UNL     1      -5.929   3.049  70.167  1.00  0.00    -0.022 C  
HETATM    2  C   UNL     1      -7.445   2.897  70.230  1.00  0.00    -0.043 C  
HETATM    3  C   UNL     1      -7.881   2.409  71.608  1.00  0.00    -0.044 C  
ENDROOT
BRANCH   2   4
HETATM    4  O   UNL     1      -8.061   4.179  70.010  1.00  0.00    -0.058 OA 
BRANCH   4   5
HETATM    5  C   UNL     1      -9.319   4.129  69.488  1.00  0.00    -0.168 C  
HETATM    6  O   UNL     1      -9.629   3.545  68.458  1.00  0.00    -0.163 OA 
BRANCH   5   7
HETATM    7  C   UNL     1     -10.265   4.947  70.327  1.00  0.00    -0.299 C  
BRANCH   7   8
HETATM    8  C   UNL     1     -10.874   6.065  69.481  1.00  0.00    -0.439 C  
BRANCH   8   9
HETATM    9  C   UNL     1      -9.838   7.012  68.884  1.00  0.00    -0.150 C  
BRANCH   9  10
HETATM   10  C   UNL     1     -10.185   8.461  69.090  1.00  0.00    -0.217 C  
HETATM   11  C   UNL     1     -10.516   9.337  68.128  1.00  0.00    -0.263 C  
BRANCH  11  12
HETATM   12  C   UNL     1     -10.529   9.055  66.651  1.00  0.00    -0.235 C  
BRANCH  12  13
HETATM   13  C   UNL     1      -9.560   9.944  65.860  1.00  0.00    -0.300 C  
HETATM   14  C   UNL     1      -8.360   9.221  65.237  1.00  0.00    -0.145 C  
HETATM   15  O   UNL     1      -8.720   7.940  64.732  1.00  0.00    -0.379 OA 
HETATM   16  C   UNL     1      -7.962  10.111  64.065  1.00  0.00    -0.154 C  
HETATM   17  C   UNL     1      -9.299  10.559  63.480  1.00  0.00    -0.293 C  
HETATM   18  H   UNL     1      -7.976   7.492  64.346  1.00  0.00     0.000 HD 
HETATM   19  O   UNL     1      -9.769   9.580  62.548  1.00  0.00    -0.529 OA 
HETATM   20  C   UNL     1     -10.278  10.651  64.676  1.00  0.00    -0.404 C  
HETATM   21  H   UNL     1     -10.601   9.858  62.184  1.00  0.00     0.000 HD 
BRANCH  20  22
HETATM   22  C   UNL     1     -10.716  12.040  65.106  1.00  0.00    -0.332 C  
HETATM   23  C   UNL     1     -10.412  12.651  66.266  1.00  0.00    -0.270 C  
BRANCH  23  24
HETATM   24  C   UNL     1     -10.886  14.010  66.733  1.00  0.00    -0.294 C  
HETATM   25  H   UNL     1     -11.631  15.624  65.909  1.00  0.00     0.000 HD 
HETATM   26  O   UNL     1     -11.334  14.771  65.616  1.00  0.00    -0.342 OA 
BRANCH  24  27
HETATM   27  C   UNL     1     -12.025  13.857  67.761  1.00  0.00    -0.355 C  
BRANCH  27  28
HETATM   28  O   UNL     1     -11.643  14.384  69.043  1.00  0.00    -0.261 OA 
BRANCH  28  29
HETATM   29  C   UNL     1     -12.306  13.819  70.104  1.00  0.00    -0.323 A  
HETATM   30  C   UNL     1     -13.159  14.520  70.960  1.00  0.00    -0.429 A  
HETATM   31  C   UNL     1     -13.803  13.860  72.009  1.00  0.00    -0.588 A  
HETATM   32  C   UNL     1     -13.603  12.495  72.202  1.00  0.00    -0.458 A  
HETATM   33  C   UNL     1     -12.764  11.771  71.346  1.00  0.00    -0.413 A  
HETATM   34  C   UNL     1     -12.546  10.293  71.554  1.00  0.00    -0.440 C  
HETATM   35  C   UNL     1     -12.127  12.444  70.287  1.00  0.00    -0.377 A  
HETATM   36  F   UNL     1     -13.197   9.799  72.647  1.00  0.00    -0.440 F  
HETATM   37  F   UNL     1     -11.234   9.978  71.735  1.00  0.00    -0.356 F  
HETATM   38  F   UNL     1     -12.972   9.544  70.501  1.00  0.00    -0.173 F  
ENDBRANCH  28  29
ENDBRANCH  27  28
ENDBRANCH  24  27
ENDBRANCH  23  24
ENDBRANCH  20  22
ENDBRANCH  12  13
ENDBRANCH  11  12
ENDBRANCH   9  10
ENDBRANCH   8   9
ENDBRANCH   7   8
ENDBRANCH   5   7
ENDBRANCH   4   5
ENDBRANCH   2   4
TORSDOF 13
ENDMDL
MODEL      116
REMARK 921   NORMALIZED FREE ENERGY PREDICTED BY IDOCK:   -5.76 KCAL/MOL
REMARK 922        TOTAL FREE ENERGY PREDICTED BY IDOCK:  -12.36 KCAL/MOL
REMARK 923 INTER-LIGAND FREE ENERGY PREDICTED BY IDOCK:  -10.57 KCAL/MOL
REMARK 924 INTRA-LIGAND FREE ENERGY PREDICTED BY IDOCK:   -1.79 KCAL/MOL
REMARK 927      BINDING AFFINITY PREDICTED BY RF-SCORE:    0.00 PKD
ROOT
HETATM    1  C   UNL     1     -12.079  13.557  70.137  1.00  0.00    -0.425 C  
HETATM    2  C   UNL     1     -11.989  15.055  70.408  1.00  0.00    -0.323 C  
HETATM    3  C   UNL     1     -12.761  15.423  71.671  1.00  0.00    -0.480 C  
ENDROOT
BRANCH   2   4
HETATM    4  O   UNL     1     -10.613  15.417  70.620  1.00  0.00    -0.290 OA 
BRANCH   4   5
HETATM    5  C   UNL     1      -9.902  15.664  69.483  1.00  0.00    -0.289 C  
HETATM    6  O   UNL     1      -9.001  14.957  69.051  1.00  0.00    -0.194 OA 
BRANCH   5   7
HETATM    7  C   UNL     1     -10.343  16.963  68.863  1.00  0.00    -0.333 C  
BRANCH   7   8
HETATM    8  C   UNL     1      -9.121  17.768  68.420  1.00  0.00    -0.278 C  
BRANCH   8   9
HETATM    9  C   UNL     1      -8.852  17.691  66.920  1.00  0.00    -0.260 C  
BRANCH   9  10
HETATM   10  C   UNL     1     -10.105  17.805  66.096  1.00  0.00    -0.308 C  
HETATM   11  C   UNL     1     -10.639  16.837  65.335  1.00  0.00    -0.218 C  
BRANCH  11  12
HETATM   12  C   UNL     1     -10.043  15.476  65.100  1.00  0.00    -0.263 C  
BRANCH  12  13
HETATM   13  C   UNL     1     -11.013  14.331  65.421  1.00  0.00    -0.335 C  
HETATM   14  C   UNL     1     -12.354  14.375  64.679  1.00  0.00    -0.418 C  
HETATM   15  O   UNL     1     -12.200  14.819  63.336  1.00  0.00    -0.865 OA 
HETATM   16  C   UNL     1     -12.812  12.921  64.660  1.00  0.00    -0.323 C  
HETATM   17  C   UNL     1     -11.528  12.140  64.399  1.00  0.00    -0.350 C  
HETATM   18  H   UNL     1     -13.032  14.846  62.877  1.00  0.00     0.000 HD 
HETATM   19  O   UNL     1     -11.291  12.059  62.989  1.00  0.00    -0.671 OA 
HETATM   20  C   UNL     1     -10.392  12.949  65.071  1.00  0.00    -0.334 C  
HETATM   21  H   UNL     1     -10.491  11.574  62.826  1.00  0.00     0.000 HD 
BRANCH  20  22
HETATM   22  C   UNL     1      -9.759  12.350  66.315  1.00  0.00    -0.253 C  
HETATM   23  C   UNL     1     -10.086  11.180  66.895  1.00  0.00    -0.250 C  
BRANCH  23  24
HETATM   24  C   UNL     1      -9.505  10.597  68.164  1.00  0.00    -0.154 C  
HETATM   25  H   UNL     1      -8.839  11.280  69.877  1.00  0.00     0.000 HD 
HETATM   26  O   UNL     1      -9.204  11.646  69.080  1.00  0.00     0.000 OA 
BRANCH  24  27
HETATM   27  C   UNL     1     -10.499   9.606  68.803  1.00  0.00    -0.215 C  
BRANCH  27  28
HETATM   28  O   UNL     1     -10.626   8.414  68.010  1.00  0.00    -0.204 OA 
BRANCH  28  29
HETATM   29  C   UNL     1     -10.434   7.249  68.710  1.00  0.00    -0.200 A  
HETATM   30  C   UNL     1      -9.828   6.106  68.183  1.00  0.00    -0.142 A  
HETATM   31  C   UNL     1      -9.662   4.967  68.975  1.00  0.00    -0.245 A  
HETATM   32  C   UNL     1     -10.093   4.968  70.299  1.00  0.00    -0.339 A  
HETATM   33  C   UNL     1     -10.689   6.109  70.851  1.00  0.00    -0.316 A  
HETATM   34  C   UNL     1     -11.157   6.112  72.285  1.00  0.00    -0.277 C  
HETATM   35  C   UNL     1     -10.844   7.253  70.048  1.00  0.00    -0.271 A  
HETATM   36  F   UNL     1     -10.977   4.915  72.916  1.00  0.00    -0.253 F  
HETATM   37  F   UNL     1     -12.485   6.392  72.402  1.00  0.00    -0.286 F  
HETATM   38  F   UNL     1     -10.509   7.032  73.050  1.00  0.00    -0.212 F  
ENDBRANCH  28  29
ENDBRANCH  27  28
ENDBRANCH  24  27
ENDBRANCH  23  24
ENDBRANCH  20  22
ENDBRANCH  12  13
ENDBRANCH  11  12
ENDBRANCH   9  10
ENDBRANCH   8   9
ENDBRANCH   7   8
ENDBRANCH   5   7
ENDBRANCH   4   5
ENDBRANCH   2   4
TORSDOF 13
ENDMDL
MODEL      117
REMARK 921   NORMALIZED FREE ENERGY PREDICTED BY IDOCK:   -5.76 KCAL/MOL
REMARK 922        TOTAL FREE ENERGY PREDICTED BY IDOCK:  -12.36 KCAL/MOL
REMARK 923 INTER-LIGAND FREE ENERGY PREDICTED BY IDOCK:  -10.09 KCAL/MOL
REMARK 924 INTRA-LIGAND FREE ENERGY PREDICTED BY IDOCK:   -2.27 KCAL/MOL
REMARK 927      BINDING AFFINITY PREDICTED BY RF-SCORE:    0.00 PKD
ROOT
HETATM    1  C   UNL     1      -6.369  10.296  64.158  1.00  0.00    -0.094 C  
HETATM    2  C   UNL     1      -7.524   9.980  63.215  1.00  0.00    -0.138 C  
HETATM    3  C   UNL     1      -7.292   8.650  62.504  1.00  0.00    -0.098 C  
ENDROOT
BRANCH   2   4
HETATM    4  O   UNL     1      -8.739   9.857  63.977  1.00  0.00    -0.176 OA 
BRANCH   4   5
HETATM    5  C   UNL     1      -9.633  10.871  63.798  1.00  0.00    -0.292 C  
HETATM    6  O   UNL     1      -9.757  11.525  62.771  1.00  0.00    -0.340 OA 
BRANCH   5   7
HETATM    7  C   UNL     1     -10.408  11.113  65.066  1.00  0.00    -0.362 C  
BRANCH   7   8
HETATM    8  C   UNL     1     -11.438  12.220  64.841  1.00  0.00    -0.382 C  
BRANCH   8   9
HETATM    9  C   UNL     1     -11.951  12.848  66.133  1.00  0.00    -0.491 C  
BRANCH   9  10
HETATM   10  C   UNL     1     -10.843  13.359  67.013  1.00  0.00    -0.280 C  
HETATM   11  C   UNL     1     -10.917  13.560  68.338  1.00  0.00    -0.289 C  
BRANCH  11  12
HETATM   12  C   UNL     1     -12.148  13.386  69.185  1.00  0.00    -0.306 C  
BRANCH  12  13
HETATM   13  C   UNL     1     -11.913  13.722  70.663  1.00  0.00    -0.340 C  
HETATM   14  C   UNL     1     -11.561  15.184  70.961  1.00  0.00    -0.347 C  
HETATM   15  O   UNL     1     -12.299  16.081  70.137  1.00  0.00    -0.354 OA 
HETATM   16  C   UNL     1     -12.000  15.382  72.407  1.00  0.00    -0.532 C  
HETATM   17  C   UNL     1     -13.313  14.611  72.496  1.00  0.00    -0.448 C  
HETATM   18  H   UNL     1     -12.080  16.988  70.322  1.00  0.00     0.000 HD 
HETATM   19  O   UNL     1     -14.394  15.451  72.079  1.00  0.00    -0.533 OA 
HETATM   20  C   UNL     1     -13.175  13.417  71.520  1.00  0.00    -0.395 C  
HETATM   21  H   UNL     1     -15.212  14.970  72.134  1.00  0.00     0.000 HD 
BRANCH  20  22
HETATM   22  C   UNL     1     -13.048  12.033  72.133  1.00  0.00    -0.352 C  
HETATM   23  C   UNL     1     -12.707  10.902  71.489  1.00  0.00    -0.533 C  
BRANCH  23  24
HETATM   24  C   UNL     1     -12.631   9.507  72.072  1.00  0.00    -0.376 C  
HETATM   25  H   UNL     1     -13.786   7.925  72.148  1.00  0.00     0.000 HD 
HETATM   26  O   UNL     1     -13.834   8.801  71.782  1.00  0.00    -0.388 OA 
BRANCH  24  27
HETATM   27  C   UNL     1     -11.419   8.750  71.495  1.00  0.00    -0.305 C  
BRANCH  27  28
HETATM   28  O   UNL     1     -10.415   9.662  71.019  1.00  0.00    -0.304 OA 
BRANCH  28  29
HETATM   29  C   UNL     1      -9.824   9.283  69.840  1.00  0.00    -0.199 A  
HETATM   30  C   UNL     1      -9.007  10.114  69.068  1.00  0.00    -0.168 A  
HETATM   31  C   UNL     1      -8.435   9.638  67.885  1.00  0.00    -0.122 A  
HETATM   32  C   UNL     1      -8.671   8.329  67.473  1.00  0.00    -0.129 A  
HETATM   33  C   UNL     1      -9.475   7.476  68.239  1.00  0.00    -0.146 A  
HETATM   34  C   UNL     1      -9.732   6.058  67.793  1.00  0.00    -0.115 C  
HETATM   35  C   UNL     1     -10.039   7.962  69.433  1.00  0.00    -0.196 A  
HETATM   36  F   UNL     1      -9.153   5.755  66.595  1.00  0.00    -0.121 F  
HETATM   37  F   UNL     1     -11.059   5.791  67.638  1.00  0.00    -0.325 F  
HETATM   38  F   UNL     1      -9.262   5.135  68.675  1.00  0.00    -0.113 F  
ENDBRANCH  28  29
ENDBRANCH  27  28
ENDBRANCH  24  27
ENDBRANCH  23  24
ENDBRANCH  20  22
ENDBRANCH  12  13
ENDBRANCH  11  12
ENDBRANCH   9  10
ENDBRANCH   8   9
ENDBRANCH   7   8
ENDBRANCH   5   7
ENDBRANCH   4   5
ENDBRANCH   2   4
TORSDOF 13
ENDMDL
MODEL      118
REMARK 921   NORMALIZED FREE ENERGY PREDICTED BY IDOCK:   -5.75 KCAL/MOL
REMARK 922        TOTAL FREE ENERGY PREDICTED BY IDOCK:  -12.35 KCAL/MOL
REMARK 923 INTER-LIGAND FREE ENERGY PREDICTED BY IDOCK:   -9.56 KCAL/MOL
REMARK 924 INTRA-LIGAND FREE ENERGY PREDICTED BY IDOCK:   -2.79 KCAL/MOL
REMARK 927      BINDING AFFINITY PREDICTED BY RF-SCORE:    0.00 PKD
ROOT
HETATM    1  C   UNL     1     -12.008  15.183  66.683  1.00  0.00     0.142 C  
HETATM    2  C   UNL     1     -11.234  13.933  66.279  1.00  0.00    -0.309 C  
HETATM    3  C   UNL     1     -10.893  13.090  67.503  1.00  0.00    -0.264 C  
ENDROOT
BRANCH   2   4
HETATM    4  O   UNL     1     -12.053  13.127  65.412  1.00  0.00    -0.380 OA 
BRANCH   4   5
HETATM    5  C   UNL     1     -11.837  13.315  64.080  1.00  0.00    -0.455 C  
HETATM    6  O   UNL     1     -12.536  13.999  63.344  1.00  0.00    -0.845 OA 
BRANCH   5   7
HETATM    7  C   UNL     1     -10.647  12.512  63.625  1.00  0.00    -0.446 C  
BRANCH   7   8
HETATM    8  C   UNL     1     -10.761  11.078  64.141  1.00  0.00    -0.344 C  
BRANCH   8   9
HETATM    9  C   UNL     1      -9.651  10.159  63.639  1.00  0.00    -0.268 C  
BRANCH   9  10
HETATM   10  C   UNL     1      -8.318  10.459  64.268  1.00  0.00    -0.138 C  
HETATM   11  C   UNL     1      -7.875   9.984  65.442  1.00  0.00    -0.136 C  
BRANCH  11  12
HETATM   12  C   UNL     1      -8.660   9.121  66.392  1.00  0.00    -0.135 C  
BRANCH  12  13
HETATM   13  C   UNL     1      -9.313   9.918  67.529  1.00  0.00    -0.159 C  
HETATM   14  C   UNL     1     -10.766   9.546  67.846  1.00  0.00    -0.228 C  
HETATM   15  O   UNL     1     -10.985   8.143  67.745  1.00  0.00    -0.492 OA 
HETATM   16  C   UNL     1     -10.944   9.962  69.301  1.00  0.00    -0.244 C  
HETATM   17  C   UNL     1      -9.625   9.564  69.956  1.00  0.00    -0.238 C  
HETATM   18  H   UNL     1     -11.886   7.913  67.942  1.00  0.00     0.000 HD 
HETATM   19  O   UNL     1      -9.683   8.194  70.364  1.00  0.00    -0.177 OA 
HETATM   20  C   UNL     1      -8.539   9.736  68.865  1.00  0.00    -0.134 C  
HETATM   21  H   UNL     1      -8.861   7.946  70.771  1.00  0.00     0.000 HD 
BRANCH  20  22
HETATM   22  C   UNL     1      -7.557  10.881  69.041  1.00  0.00    -0.135 C  
HETATM   23  C   UNL     1      -7.639  12.099  68.474  1.00  0.00    -0.124 C  
BRANCH  23  24
HETATM   24  C   UNL     1      -6.641  13.231  68.594  1.00  0.00    -0.091 C  
HETATM   25  H   UNL     1      -5.105  13.896  67.574  1.00  0.00     0.000 HD 
HETATM   26  O   UNL     1      -5.732  13.185  67.499  1.00  0.00    -0.254 OA 
BRANCH  24  27
HETATM   27  C   UNL     1      -7.372  14.588  68.621  1.00  0.00    -0.128 C  
BRANCH  27  28
HETATM   28  O   UNL     1      -7.951  14.892  67.341  1.00  0.00    -0.170 OA 
BRANCH  28  29
HETATM   29  C   UNL     1      -7.841  16.209  66.971  1.00  0.00    -0.223 A  
HETATM   30  C   UNL     1      -6.627  16.875  66.787  1.00  0.00    -0.260 A  
HETATM   31  C   UNL     1      -6.610  18.217  66.397  1.00  0.00    -0.253 A  
HETATM   32  C   UNL     1      -7.807  18.895  66.181  1.00  0.00    -0.272 A  
HETATM   33  C   UNL     1      -9.035  18.242  66.346  1.00  0.00    -0.257 A  
HETATM   34  C   UNL     1     -10.332  18.977  66.114  1.00  0.00    -0.468 C  
HETATM   35  C   UNL     1      -9.040  16.889  66.731  1.00  0.00    -0.266 A  
HETATM   36  F   UNL     1     -10.159  20.291  65.790  1.00  0.00    -0.530 F  
HETATM   37  F   UNL     1     -11.140  18.971  67.210  1.00  0.00    -0.517 F  
HETATM   38  F   UNL     1     -11.067  18.441  65.102  1.00  0.00    -0.364 F  
ENDBRANCH  28  29
ENDBRANCH  27  28
ENDBRANCH  24  27
ENDBRANCH  23  24
ENDBRANCH  20  22
ENDBRANCH  12  13
ENDBRANCH  11  12
ENDBRANCH   9  10
ENDBRANCH   8   9
ENDBRANCH   7   8
ENDBRANCH   5   7
ENDBRANCH   4   5
ENDBRANCH   2   4
TORSDOF 13
ENDMDL
MODEL      119
REMARK 921   NORMALIZED FREE ENERGY PREDICTED BY IDOCK:   -5.73 KCAL/MOL
REMARK 922        TOTAL FREE ENERGY PREDICTED BY IDOCK:  -12.31 KCAL/MOL
REMARK 923 INTER-LIGAND FREE ENERGY PREDICTED BY IDOCK:  -10.28 KCAL/MOL
REMARK 924 INTRA-LIGAND FREE ENERGY PREDICTED BY IDOCK:   -2.03 KCAL/MOL
REMARK 927      BINDING AFFINITY PREDICTED BY RF-SCORE:    0.00 PKD
ROOT
HETATM    1  C   UNL     1     -12.494  13.344  65.375  1.00  0.00    -0.543 C  
HETATM    2  C   UNL     1     -11.852  12.141  64.693  1.00  0.00    -0.328 C  
HETATM    3  C   UNL     1     -12.515  11.865  63.347  1.00  0.00    -0.582 C  
ENDROOT
BRANCH   2   4
HETATM    4  O   UNL     1     -10.463  12.421  64.443  1.00  0.00    -0.305 OA 
BRANCH   4   5
HETATM    5  C   UNL     1      -9.604  11.961  65.397  1.00  0.00    -0.165 C  
HETATM    6  O   UNL     1      -9.359  12.527  66.453  1.00  0.00    -0.234 OA 
BRANCH   5   7
HETATM    7  C   UNL     1      -8.952  10.683  64.939  1.00  0.00    -0.218 C  
BRANCH   7   8
HETATM    8  C   UNL     1      -9.778   9.484  65.403  1.00  0.00    -0.314 C  
BRANCH   8   9
HETATM    9  C   UNL     1     -10.261   9.597  66.845  1.00  0.00    -0.304 C  
BRANCH   9  10
HETATM   10  C   UNL     1      -9.248   9.099  67.840  1.00  0.00    -0.144 C  
HETATM   11  C   UNL     1      -9.439   8.117  68.735  1.00  0.00    -0.148 C  
BRANCH  11  12
HETATM   12  C   UNL     1     -10.728   7.379  68.967  1.00  0.00    -0.164 C  
BRANCH  12  13
HETATM   13  C   UNL     1     -11.282   7.565  70.386  1.00  0.00    -0.270 C  
HETATM   14  C   UNL     1     -10.979   6.426  71.367  1.00  0.00    -0.267 C  
HETATM   15  O   UNL     1      -9.668   5.903  71.179  1.00  0.00    -0.170 OA 
HETATM   16  C   UNL     1     -11.043   7.093  72.736  1.00  0.00    -0.339 C  
HETATM   17  C   UNL     1     -10.380   8.448  72.511  1.00  0.00    -0.301 C  
HETATM   18  H   UNL     1      -9.481   5.197  71.788  1.00  0.00     0.000 HD 
HETATM   19  O   UNL     1      -8.962   8.322  72.665  1.00  0.00    -0.205 OA 
HETATM   20  C   UNL     1     -10.711   8.849  71.052  1.00  0.00    -0.315 C  
HETATM   21  H   UNL     1      -8.549   9.166  72.524  1.00  0.00     0.000 HD 
BRANCH  20  22
HETATM   22  C   UNL     1     -11.684   9.997  70.854  1.00  0.00    -0.462 C  
HETATM   23  C   UNL     1     -11.428  11.166  70.239  1.00  0.00    -0.329 C  
BRANCH  23  24
HETATM   24  C   UNL     1     -12.368  12.341  70.083  1.00  0.00    -0.138 C  
HETATM   25  H   UNL     1     -13.130  13.726  71.242  1.00  0.00     0.000 HD 
HETATM   26  O   UNL     1     -12.539  12.988  71.340  1.00  0.00    -0.326 OA 
BRANCH  24  27
HETATM   27  C   UNL     1     -11.813  13.338  69.045  1.00  0.00    -0.321 C  
BRANCH  27  28
HETATM   28  O   UNL     1     -11.776  14.673  69.575  1.00  0.00    -0.287 OA 
BRANCH  28  29
HETATM   29  C   UNL     1     -10.684  15.405  69.181  1.00  0.00    -0.246 A  
HETATM   30  C   UNL     1      -9.420  14.862  68.936  1.00  0.00    -0.209 A  
HETATM   31  C   UNL     1      -8.368  15.683  68.524  1.00  0.00    -0.166 A  
HETATM   32  C   UNL     1      -8.576  17.049  68.347  1.00  0.00    -0.243 A  
HETATM   33  C   UNL     1      -9.838  17.610  68.572  1.00  0.00    -0.346 A  
HETATM   34  C   UNL     1     -10.065  19.090  68.382  1.00  0.00    -0.403 C  
HETATM   35  C   UNL     1     -10.894  16.773  68.979  1.00  0.00    -0.291 A  
HETATM   36  F   UNL     1      -8.935  19.769  68.030  1.00  0.00    -0.347 F  
HETATM   37  F   UNL     1     -10.523  19.698  69.510  1.00  0.00    -0.310 F  
HETATM   38  F   UNL     1     -10.977  19.362  67.409  1.00  0.00    -0.541 F  
ENDBRANCH  28  29
ENDBRANCH  27  28
ENDBRANCH  24  27
ENDBRANCH  23  24
ENDBRANCH  20  22
ENDBRANCH  12  13
ENDBRANCH  11  12
ENDBRANCH   9  10
ENDBRANCH   8   9
ENDBRANCH   7   8
ENDBRANCH   5   7
ENDBRANCH   4   5
ENDBRANCH   2   4
TORSDOF 13
ENDMDL
MODEL      120
REMARK 921   NORMALIZED FREE ENERGY PREDICTED BY IDOCK:   -5.72 KCAL/MOL
REMARK 922        TOTAL FREE ENERGY PREDICTED BY IDOCK:  -12.29 KCAL/MOL
REMARK 923 INTER-LIGAND FREE ENERGY PREDICTED BY IDOCK:   -9.65 KCAL/MOL
REMARK 924 INTRA-LIGAND FREE ENERGY PREDICTED BY IDOCK:   -2.64 KCAL/MOL
REMARK 927      BINDING AFFINITY PREDICTED BY RF-SCORE:    0.00 PKD
ROOT
HETATM    1  C   UNL     1     -11.416  14.475  67.950  1.00  0.00    -0.348 C  
HETATM    2  C   UNL     1     -11.194  14.698  66.458  1.00  0.00    -0.346 C  
HETATM    3  C   UNL     1      -9.720  14.532  66.101  1.00  0.00    -0.340 C  
ENDROOT
BRANCH   2   4
HETATM    4  O   UNL     1     -11.934  13.711  65.715  1.00  0.00    -0.353 OA 
BRANCH   4   5
HETATM    5  C   UNL     1     -12.145  14.019  64.404  1.00  0.00    -0.458 C  
HETATM    6  O   UNL     1     -12.371  15.142  63.975  1.00  0.00    -0.675 OA 
BRANCH   5   7
HETATM    7  C   UNL     1     -12.119  12.770  63.564  1.00  0.00    -0.642 C  
BRANCH   7   8
HETATM    8  C   UNL     1     -11.110  11.777  64.141  1.00  0.00    -0.442 C  
BRANCH   8   9
HETATM    9  C   UNL     1      -9.827  11.667  63.322  1.00  0.00    -0.428 C  
BRANCH   9  10
HETATM   10  C   UNL     1      -9.501  10.250  62.938  1.00  0.00    -0.333 C  
HETATM   11  C   UNL     1      -8.909   9.337  63.724  1.00  0.00    -0.150 C  
BRANCH  11  12
HETATM   12  C   UNL     1      -8.388   9.579  65.113  1.00  0.00    -0.148 C  
BRANCH  12  13
HETATM   13  C   UNL     1      -8.898   8.553  66.134  1.00  0.00    -0.200 C  
HETATM   14  C   UNL     1      -8.218   7.180  66.086  1.00  0.00    -0.128 C  
HETATM   15  O   UNL     1      -6.822   7.291  65.827  1.00  0.00    -0.054 OA 
HETATM   16  C   UNL     1      -8.408   6.625  67.492  1.00  0.00    -0.121 C  
HETATM   17  C   UNL     1      -8.192   7.837  68.393  1.00  0.00    -0.124 C  
HETATM   18  H   UNL     1      -6.401   6.440  65.797  1.00  0.00     0.000 HD 
HETATM   19  O   UNL     1      -6.796   7.992  68.667  1.00  0.00    -0.063 OA 
HETATM   20  C   UNL     1      -8.703   9.060  67.591  1.00  0.00    -0.124 C  
HETATM   21  H   UNL     1      -6.662   8.747  69.228  1.00  0.00     0.000 HD 
BRANCH  20  22
HETATM   22  C   UNL     1      -9.984   9.717  68.074  1.00  0.00    -0.190 C  
HETATM   23  C   UNL     1     -10.125  10.485  69.170  1.00  0.00    -0.240 C  
BRANCH  23  24
HETATM   24  C   UNL     1     -11.405  11.100  69.695  1.00  0.00    -0.294 C  
HETATM   25  H   UNL     1     -13.233  11.371  69.042  1.00  0.00     0.000 HD 
HETATM   26  O   UNL     1     -12.430  10.984  68.712  1.00  0.00    -0.468 OA 
BRANCH  24  27
HETATM   27  C   UNL     1     -11.840  10.401  70.999  1.00  0.00    -0.361 C  
BRANCH  27  28
HETATM   28  O   UNL     1     -12.397   9.104  70.732  1.00  0.00    -0.199 OA 
BRANCH  28  29
HETATM   29  C   UNL     1     -11.540   8.061  70.980  1.00  0.00    -0.283 A  
HETATM   30  C   UNL     1     -11.570   6.840  70.301  1.00  0.00    -0.417 A  
HETATM   31  C   UNL     1     -10.648   5.838  70.611  1.00  0.00    -0.346 A  
HETATM   32  C   UNL     1      -9.687   6.054  71.596  1.00  0.00    -0.180 A  
HETATM   33  C   UNL     1      -9.630   7.275  72.278  1.00  0.00    -0.173 A  
HETATM   34  C   UNL     1      -8.591   7.510  73.346  1.00  0.00    -0.166 C  
HETATM   35  C   UNL     1     -10.558   8.281  71.952  1.00  0.00    -0.350 A  
HETATM   36  F   UNL     1      -7.796   6.425  73.576  1.00  0.00    -0.094 F  
HETATM   37  F   UNL     1      -9.140   7.825  74.551  1.00  0.00    -0.231 F  
HETATM   38  F   UNL     1      -7.743   8.530  73.040  1.00  0.00    -0.180 F  
ENDBRANCH  28  29
ENDBRANCH  27  28
ENDBRANCH  24  27
ENDBRANCH  23  24
ENDBRANCH  20  22
ENDBRANCH  12  13
ENDBRANCH  11  12
ENDBRANCH   9  10
ENDBRANCH   8   9
ENDBRANCH   7   8
ENDBRANCH   5   7
ENDBRANCH   4   5
ENDBRANCH   2   4
TORSDOF 13
ENDMDL
MODEL      121
REMARK 921   NORMALIZED FREE ENERGY PREDICTED BY IDOCK:   -5.72 KCAL/MOL
REMARK 922        TOTAL FREE ENERGY PREDICTED BY IDOCK:  -12.28 KCAL/MOL
REMARK 923 INTER-LIGAND FREE ENERGY PREDICTED BY IDOCK:  -10.64 KCAL/MOL
REMARK 924 INTRA-LIGAND FREE ENERGY PREDICTED BY IDOCK:   -1.64 KCAL/MOL
REMARK 927      BINDING AFFINITY PREDICTED BY RF-SCORE:    0.00 PKD
ROOT
HETATM    1  C   UNL     1      -7.474   1.928  70.198  1.00  0.00    -0.036 C  
HETATM    2  C   UNL     1      -8.308   3.186  70.413  1.00  0.00    -0.051 C  
HETATM    3  C   UNL     1      -9.533   3.184  69.504  1.00  0.00    -0.190 C  
ENDROOT
BRANCH   2   4
HETATM    4  O   UNL     1      -8.778   3.219  71.773  1.00  0.00    -0.081 OA 
BRANCH   4   5
HETATM    5  C   UNL     1      -8.749   4.449  72.360  1.00  0.00    -0.113 C  
HETATM    6  O   UNL     1      -9.692   4.974  72.936  1.00  0.00    -0.145 OA 
BRANCH   5   7
HETATM    7  C   UNL     1      -7.406   5.097  72.149  1.00  0.00    -0.091 C  
BRANCH   7   8
HETATM    8  C   UNL     1      -7.590   6.581  71.833  1.00  0.00    -0.094 C  
BRANCH   8   9
HETATM    9  C   UNL     1      -8.403   6.838  70.568  1.00  0.00    -0.129 C  
BRANCH   9  10
HETATM   10  C   UNL     1      -8.443   8.293  70.187  1.00  0.00    -0.126 C  
HETATM   11  C   UNL     1      -9.235   9.229  70.732  1.00  0.00    -0.316 C  
BRANCH  11  12
HETATM   12  C   UNL     1     -10.290   8.987  71.776  1.00  0.00    -0.407 C  
BRANCH  12  13
HETATM   13  C   UNL     1     -11.691   8.791  71.182  1.00  0.00    -0.344 C  
HETATM   14  C   UNL     1     -12.326   7.417  71.427  1.00  0.00    -0.361 C  
HETATM   15  O   UNL     1     -12.033   6.926  72.731  1.00  0.00    -0.498 OA 
HETATM   16  C   UNL     1     -13.824   7.682  71.334  1.00  0.00    -0.413 C  
HETATM   17  C   UNL     1     -13.999   9.026  72.035  1.00  0.00    -0.410 C  
HETATM   18  H   UNL     1     -12.427   6.074  72.883  1.00  0.00     0.000 HD 
HETATM   19  O   UNL     1     -14.147   8.819  73.444  1.00  0.00    -1.167 OA 
HETATM   20  C   UNL     1     -12.700   9.823  71.761  1.00  0.00    -0.519 C  
HETATM   21  H   UNL     1     -14.256   9.655  73.881  1.00  0.00     0.000 HD 
BRANCH  20  22
HETATM   22  C   UNL     1     -12.804  11.011  70.821  1.00  0.00    -0.354 C  
HETATM   23  C   UNL     1     -11.842  11.465  69.997  1.00  0.00    -0.440 C  
BRANCH  23  24
HETATM   24  C   UNL     1     -11.910  12.680  69.096  1.00  0.00    -0.297 C  
HETATM   25  H   UNL     1     -12.395  14.570  69.280  1.00  0.00     0.000 HD 
HETATM   26  O   UNL     1     -12.353  13.807  69.846  1.00  0.00    -0.322 OA 
BRANCH  24  27
HETATM   27  C   UNL     1     -10.527  12.966  68.477  1.00  0.00    -0.247 C  
BRANCH  27  28
HETATM   28  O   UNL     1     -10.005  14.226  68.929  1.00  0.00    -0.221 OA 
BRANCH  28  29
HETATM   29  C   UNL     1     -10.082  15.233  67.999  1.00  0.00    -0.229 A  
HETATM   30  C   UNL     1     -10.422  15.040  66.658  1.00  0.00    -0.284 A  
HETATM   31  C   UNL     1     -10.488  16.127  65.783  1.00  0.00    -0.384 A  
HETATM   32  C   UNL     1     -10.222  17.413  66.248  1.00  0.00    -0.344 A  
HETATM   33  C   UNL     1      -9.893  17.630  67.591  1.00  0.00    -0.294 A  
HETATM   34  C   UNL     1      -9.603  19.022  68.095  1.00  0.00    -0.341 C  
HETATM   35  C   UNL     1      -9.838  16.529  68.465  1.00  0.00    -0.243 A  
HETATM   36  F   UNL     1      -9.654  19.973  67.117  1.00  0.00    -0.407 F  
HETATM   37  F   UNL     1      -8.364  19.131  68.649  1.00  0.00    -0.355 F  
HETATM   38  F   UNL     1     -10.481  19.430  69.051  1.00  0.00    -0.388 F  
ENDBRANCH  28  29
ENDBRANCH  27  28
ENDBRANCH  24  27
ENDBRANCH  23  24
ENDBRANCH  20  22
ENDBRANCH  12  13
ENDBRANCH  11  12
ENDBRANCH   9  10
ENDBRANCH   8   9
ENDBRANCH   7   8
ENDBRANCH   5   7
ENDBRANCH   4   5
ENDBRANCH   2   4
TORSDOF 13
ENDMDL
MODEL      122
REMARK 921   NORMALIZED FREE ENERGY PREDICTED BY IDOCK:   -5.70 KCAL/MOL
REMARK 922        TOTAL FREE ENERGY PREDICTED BY IDOCK:  -12.25 KCAL/MOL
REMARK 923 INTER-LIGAND FREE ENERGY PREDICTED BY IDOCK:   -9.78 KCAL/MOL
REMARK 924 INTRA-LIGAND FREE ENERGY PREDICTED BY IDOCK:   -2.46 KCAL/MOL
REMARK 927      BINDING AFFINITY PREDICTED BY RF-SCORE:    0.00 PKD
ROOT
HETATM    1  C   UNL     1      -9.533   2.329  72.424  1.00  0.00    -0.157 C  
HETATM    2  C   UNL     1     -10.160   3.687  72.719  1.00  0.00    -0.159 C  
HETATM    3  C   UNL     1     -11.500   3.522  73.428  1.00  0.00    -0.130 C  
ENDROOT
BRANCH   2   4
HETATM    4  O   UNL     1      -9.294   4.430  73.596  1.00  0.00    -0.113 OA 
BRANCH   4   5
HETATM    5  C   UNL     1      -8.768   5.566  73.056  1.00  0.00    -0.121 C  
HETATM    6  O   UNL     1      -7.913   5.597  72.182  1.00  0.00    -0.105 OA 
BRANCH   5   7
HETATM    7  C   UNL     1      -9.345   6.781  73.733  1.00  0.00    -0.203 C  
BRANCH   7   8
HETATM    8  C   UNL     1     -10.615   7.225  73.007  1.00  0.00    -0.371 C  
BRANCH   8   9
HETATM    9  C   UNL     1     -10.366   7.701  71.579  1.00  0.00    -0.223 C  
BRANCH   9  10
HETATM   10  C   UNL     1     -11.421   7.230  70.615  1.00  0.00    -0.322 C  
HETATM   11  C   UNL     1     -11.282   6.243  69.716  1.00  0.00    -0.499 C  
BRANCH  11  12
HETATM   12  C   UNL     1     -10.020   5.470  69.448  1.00  0.00    -0.276 C  
BRANCH  12  13
HETATM   13  C   UNL     1      -9.420   5.759  68.066  1.00  0.00    -0.116 C  
HETATM   14  C   UNL     1      -8.737   4.569  67.381  1.00  0.00    -0.104 C  
HETATM   15  O   UNL     1      -9.443   3.354  67.608  1.00  0.00    -0.205 OA 
HETATM   16  C   UNL     1      -8.815   4.905  65.896  1.00  0.00    -0.130 C  
HETATM   17  C   UNL     1     -10.204   5.515  65.735  1.00  0.00     0.183 C  
HETATM   18  H   UNL     1      -9.020   2.617  67.183  1.00  0.00     0.000 HD 
HETATM   19  O   UNL     1     -11.165   4.475  65.526  1.00  0.00    -0.852 OA 
HETATM   20  C   UNL     1     -10.508   6.244  67.066  1.00  0.00    -0.341 C  
HETATM   21  H   UNL     1     -12.031   4.855  65.425  1.00  0.00     0.000 HD 
BRANCH  20  22
HETATM   22  C   UNL     1     -10.525   7.762  67.035  1.00  0.00    -0.419 C  
HETATM   23  C   UNL     1      -9.560   8.582  67.490  1.00  0.00    -0.194 C  
BRANCH  23  24
HETATM   24  C   UNL     1      -9.587  10.096  67.517  1.00  0.00    -0.156 C  
HETATM   25  H   UNL     1      -9.009  11.556  66.345  1.00  0.00     0.000 HD 
HETATM   26  O   UNL     1      -8.993  10.607  66.328  1.00  0.00    -0.157 OA 
BRANCH  24  27
HETATM   27  C   UNL     1     -11.037  10.604  67.646  1.00  0.00    -0.319 C  
BRANCH  27  28
HETATM   28  O   UNL     1     -11.083  11.883  68.299  1.00  0.00    -0.208 OA 
BRANCH  28  29
HETATM   29  C   UNL     1     -11.754  11.880  69.496  1.00  0.00    -0.345 A  
HETATM   30  C   UNL     1     -12.290  10.736  70.094  1.00  0.00    -0.401 A  
HETATM   31  C   UNL     1     -12.948  10.825  71.323  1.00  0.00    -0.502 A  
HETATM   32  C   UNL     1     -13.065  12.056  71.965  1.00  0.00    -0.456 A  
HETATM   33  C   UNL     1     -12.522  13.211  71.390  1.00  0.00    -0.270 A  
HETATM   34  C   UNL     1     -12.650  14.546  72.083  1.00  0.00    -0.314 C  
HETATM   35  C   UNL     1     -11.855  13.109  70.156  1.00  0.00    -0.328 A  
HETATM   36  F   UNL     1     -13.362  14.485  73.246  1.00  0.00    -0.568 F  
HETATM   37  F   UNL     1     -13.280  15.476  71.314  1.00  0.00    -0.439 F  
HETATM   38  F   UNL     1     -11.445  15.084  72.415  1.00  0.00    -0.464 F  
ENDBRANCH  28  29
ENDBRANCH  27  28
ENDBRANCH  24  27
ENDBRANCH  23  24
ENDBRANCH  20  22
ENDBRANCH  12  13
ENDBRANCH  11  12
ENDBRANCH   9  10
ENDBRANCH   8   9
ENDBRANCH   7   8
ENDBRANCH   5   7
ENDBRANCH   4   5
ENDBRANCH   2   4
TORSDOF 13
ENDMDL
MODEL      123
REMARK 921   NORMALIZED FREE ENERGY PREDICTED BY IDOCK:   -5.69 KCAL/MOL
REMARK 922        TOTAL FREE ENERGY PREDICTED BY IDOCK:  -12.24 KCAL/MOL
REMARK 923 INTER-LIGAND FREE ENERGY PREDICTED BY IDOCK:  -10.21 KCAL/MOL
REMARK 924 INTRA-LIGAND FREE ENERGY PREDICTED BY IDOCK:   -2.03 KCAL/MOL
REMARK 927      BINDING AFFINITY PREDICTED BY RF-SCORE:    0.00 PKD
ROOT
HETATM    1  C   UNL     1     -14.003  13.851  72.572  1.00  0.00    -0.565 C  
HETATM    2  C   UNL     1     -12.824  14.052  71.626  1.00  0.00    -0.352 C  
HETATM    3  C   UNL     1     -12.525  12.771  70.855  1.00  0.00    -0.373 C  
ENDROOT
BRANCH   2   4
HETATM    4  O   UNL     1     -13.155  15.070  70.664  1.00  0.00    -0.362 OA 
BRANCH   4   5
HETATM    5  C   UNL     1     -12.084  15.678  70.079  1.00  0.00    -0.359 C  
HETATM    6  O   UNL     1     -11.402  16.550  70.599  1.00  0.00    -0.312 OA 
BRANCH   5   7
HETATM    7  C   UNL     1     -11.895  15.165  68.676  1.00  0.00    -0.329 C  
BRANCH   7   8
HETATM    8  C   UNL     1     -10.414  14.884  68.421  1.00  0.00    -0.243 C  
BRANCH   8   9
HETATM    9  C   UNL     1     -10.119  13.426  68.084  1.00  0.00    -0.244 C  
BRANCH   9  10
HETATM   10  C   UNL     1     -11.284  12.732  67.431  1.00  0.00    -0.337 C  
HETATM   11  C   UNL     1     -11.280  12.159  66.217  1.00  0.00    -0.382 C  
BRANCH  11  12
HETATM   12  C   UNL     1     -10.133  12.169  65.245  1.00  0.00    -0.291 C  
BRANCH  12  13
HETATM   13  C   UNL     1      -9.581  10.768  64.951  1.00  0.00    -0.307 C  
HETATM   14  C   UNL     1      -9.755  10.279  63.508  1.00  0.00    -0.193 C  
HETATM   15  O   UNL     1      -9.560  11.330  62.568  1.00  0.00    -0.558 OA 
HETATM   16  C   UNL     1      -8.640   9.256  63.330  1.00  0.00    -0.207 C  
HETATM   17  C   UNL     1      -7.454   9.881  64.058  1.00  0.00    -0.135 C  
HETATM   18  H   UNL     1      -9.668  11.027  61.674  1.00  0.00     0.000 HD 
HETATM   19  O   UNL     1      -6.755  10.762  63.173  1.00  0.00    -0.354 OA 
HETATM   20  C   UNL     1      -8.054  10.691  65.233  1.00  0.00    -0.086 C  
HETATM   21  H   UNL     1      -6.016  11.152  63.627  1.00  0.00     0.000 HD 
BRANCH  20  22
HETATM   22  C   UNL     1      -7.824  10.152  66.634  1.00  0.00    -0.110 C  
HETATM   23  C   UNL     1      -7.209  10.790  67.646  1.00  0.00    -0.092 C  
BRANCH  23  24
HETATM   24  C   UNL     1      -6.923  10.246  69.029  1.00  0.00    -0.064 C  
HETATM   25  H   UNL     1      -6.513  10.983  70.798  1.00  0.00     0.000 HD 
HETATM   26  O   UNL     1      -6.693  11.325  69.930  1.00  0.00    -0.134 OA 
BRANCH  24  27
HETATM   27  C   UNL     1      -8.105   9.387  69.522  1.00  0.00    -0.114 C  
BRANCH  27  28
HETATM   28  O   UNL     1      -8.326   9.567  70.930  1.00  0.00    -0.280 OA 
BRANCH  28  29
HETATM   29  C   UNL     1      -9.379   8.842  71.432  1.00  0.00    -0.268 A  
HETATM   30  C   UNL     1      -9.253   7.587  72.033  1.00  0.00    -0.163 A  
HETATM   31  C   UNL     1     -10.380   6.926  72.528  1.00  0.00    -0.220 A  
HETATM   32  C   UNL     1     -11.636   7.521  72.432  1.00  0.00    -0.356 A  
HETATM   33  C   UNL     1     -11.781   8.785  71.847  1.00  0.00    -0.429 A  
HETATM   34  C   UNL     1     -13.141   9.429  71.742  1.00  0.00    -0.409 C  
HETATM   35  C   UNL     1     -10.639   9.445  71.359  1.00  0.00    -0.381 A  
HETATM   36  F   UNL     1     -14.150   8.644  72.219  1.00  0.00    -0.406 F  
HETATM   37  F   UNL     1     -13.482   9.725  70.457  1.00  0.00    -0.267 F  
HETATM   38  F   UNL     1     -13.225  10.598  72.433  1.00  0.00    -0.523 F  
ENDBRANCH  28  29
ENDBRANCH  27  28
ENDBRANCH  24  27
ENDBRANCH  23  24
ENDBRANCH  20  22
ENDBRANCH  12  13
ENDBRANCH  11  12
ENDBRANCH   9  10
ENDBRANCH   8   9
ENDBRANCH   7   8
ENDBRANCH   5   7
ENDBRANCH   4   5
ENDBRANCH   2   4
TORSDOF 13
ENDMDL
MODEL      124
REMARK 921   NORMALIZED FREE ENERGY PREDICTED BY IDOCK:   -5.69 KCAL/MOL
REMARK 922        TOTAL FREE ENERGY PREDICTED BY IDOCK:  -12.23 KCAL/MOL
REMARK 923 INTER-LIGAND FREE ENERGY PREDICTED BY IDOCK:  -10.31 KCAL/MOL
REMARK 924 INTRA-LIGAND FREE ENERGY PREDICTED BY IDOCK:   -1.92 KCAL/MOL
REMARK 927      BINDING AFFINITY PREDICTED BY RF-SCORE:    0.00 PKD
ROOT
HETATM    1  C   UNL     1     -11.695  10.078  70.928  1.00  0.00    -0.462 C  
HETATM    2  C   UNL     1     -10.927   8.760  70.949  1.00  0.00    -0.262 C  
HETATM    3  C   UNL     1      -9.484   8.983  71.390  1.00  0.00    -0.334 C  
ENDROOT
BRANCH   2   4
HETATM    4  O   UNL     1     -11.539   7.871  71.901  1.00  0.00    -0.266 OA 
BRANCH   4   5
HETATM    5  C   UNL     1     -11.543   6.557  71.537  1.00  0.00    -0.315 C  
HETATM    6  O   UNL     1     -11.551   5.613  72.315  1.00  0.00    -0.264 OA 
BRANCH   5   7
HETATM    7  C   UNL     1     -11.478   6.430  70.038  1.00  0.00    -0.496 C  
BRANCH   7   8
HETATM    8  C   UNL     1     -10.267   5.586  69.641  1.00  0.00    -0.336 C  
BRANCH   8   9
HETATM    9  C   UNL     1      -9.625   6.021  68.326  1.00  0.00    -0.126 C  
BRANCH   9  10
HETATM   10  C   UNL     1      -8.498   6.999  68.523  1.00  0.00    -0.121 C  
HETATM   11  C   UNL     1      -8.357   8.175  67.893  1.00  0.00    -0.129 C  
BRANCH  11  12
HETATM   12  C   UNL     1      -9.257   8.706  66.812  1.00  0.00    -0.211 C  
BRANCH  12  13
HETATM   13  C   UNL     1      -8.581   9.766  65.932  1.00  0.00    -0.149 C  
HETATM   14  C   UNL     1      -7.114   9.493  65.578  1.00  0.00    -0.090 C  
HETATM   15  O   UNL     1      -6.881   8.111  65.330  1.00  0.00    -0.057 OA 
HETATM   16  C   UNL     1      -6.899  10.263  64.280  1.00  0.00    -0.057 C  
HETATM   17  C   UNL     1      -8.194  10.036  63.506  1.00  0.00    -0.163 C  
HETATM   18  H   UNL     1      -5.971   7.942  65.110  1.00  0.00     0.000 HD 
HETATM   19  O   UNL     1      -8.107   8.813  62.768  1.00  0.00    -0.157 OA 
HETATM   20  C   UNL     1      -9.313   9.923  64.570  1.00  0.00    -0.336 C  
HETATM   21  H   UNL     1      -8.913   8.671  62.286  1.00  0.00     0.000 HD 
BRANCH  20  22
HETATM   22  C   UNL     1     -10.304  11.070  64.656  1.00  0.00    -0.410 C  
HETATM   23  C   UNL     1     -11.011  11.595  63.639  1.00  0.00    -0.507 C  
BRANCH  23  24
HETATM   24  C   UNL     1     -11.958  12.774  63.698  1.00  0.00    -0.539 C  
HETATM   25  H   UNL     1     -13.856  13.064  64.094  1.00  0.00     0.000 HD 
HETATM   26  O   UNL     1     -13.261  12.324  64.057  1.00  0.00    -0.757 OA 
BRANCH  24  27
HETATM   27  C   UNL     1     -11.457  13.814  64.720  1.00  0.00    -0.356 C  
BRANCH  27  28
HETATM   28  O   UNL     1     -12.106  13.648  65.991  1.00  0.00    -0.389 OA 
BRANCH  28  29
HETATM   29  C   UNL     1     -11.330  13.992  67.070  1.00  0.00    -0.330 A  
HETATM   30  C   UNL     1      -9.957  14.243  67.001  1.00  0.00    -0.258 A  
HETATM   31  C   UNL     1      -9.248  14.600  68.150  1.00  0.00    -0.192 A  
HETATM   32  C   UNL     1      -9.909  14.716  69.371  1.00  0.00    -0.008 A  
HETATM   33  C   UNL     1     -11.286  14.483  69.458  1.00  0.00    -0.313 A  
HETATM   34  C   UNL     1     -12.003  14.606  70.780  1.00  0.00    -0.317 C  
HETATM   35  C   UNL     1     -11.993  14.132  68.293  1.00  0.00    -0.367 A  
HETATM   36  F   UNL     1     -11.172  14.908  71.820  1.00  0.00    -0.404 F  
HETATM   37  F   UNL     1     -12.639  13.456  71.140  1.00  0.00    -0.396 F  
HETATM   38  F   UNL     1     -12.955  15.578  70.774  1.00  0.00    -0.436 F  
ENDBRANCH  28  29
ENDBRANCH  27  28
ENDBRANCH  24  27
ENDBRANCH  23  24
ENDBRANCH  20  22
ENDBRANCH  12  13
ENDBRANCH  11  12
ENDBRANCH   9  10
ENDBRANCH   8   9
ENDBRANCH   7   8
ENDBRANCH   5   7
ENDBRANCH   4   5
ENDBRANCH   2   4
TORSDOF 13
ENDMDL
MODEL      125
REMARK 921   NORMALIZED FREE ENERGY PREDICTED BY IDOCK:   -5.69 KCAL/MOL
REMARK 922        TOTAL FREE ENERGY PREDICTED BY IDOCK:  -12.23 KCAL/MOL
REMARK 923 INTER-LIGAND FREE ENERGY PREDICTED BY IDOCK:  -10.32 KCAL/MOL
REMARK 924 INTRA-LIGAND FREE ENERGY PREDICTED BY IDOCK:   -1.90 KCAL/MOL
REMARK 927      BINDING AFFINITY PREDICTED BY RF-SCORE:    0.00 PKD
ROOT
HETATM    1  C   UNL     1      -9.061   2.506  71.407  1.00  0.00    -0.165 C  
HETATM    2  C   UNL     1      -9.204   3.324  72.686  1.00  0.00    -0.093 C  
HETATM    3  C   UNL     1      -7.995   3.123  73.593  1.00  0.00    -0.069 C  
ENDROOT
BRANCH   2   4
HETATM    4  O   UNL     1      -9.267   4.722  72.351  1.00  0.00    -0.128 OA 
BRANCH   4   5
HETATM    5  C   UNL     1     -10.527   5.227  72.230  1.00  0.00    -0.218 C  
HETATM    6  O   UNL     1     -11.418   5.098  73.059  1.00  0.00    -0.316 OA 
BRANCH   5   7
HETATM    7  C   UNL     1     -10.687   5.919  70.902  1.00  0.00    -0.338 C  
BRANCH   7   8
HETATM    8  C   UNL     1      -9.343   5.966  70.176  1.00  0.00    -0.180 C  
BRANCH   8   9
HETATM    9  C   UNL     1      -9.437   5.612  68.694  1.00  0.00    -0.152 C  
BRANCH   9  10
HETATM   10  C   UNL     1     -10.745   6.028  68.078  1.00  0.00    -0.359 C  
HETATM   11  C   UNL     1     -10.910   6.983  67.150  1.00  0.00    -0.427 C  
BRANCH  11  12
HETATM   12  C   UNL     1      -9.828   7.873  66.604  1.00  0.00    -0.311 C  
BRANCH  12  13
HETATM   13  C   UNL     1      -9.870   9.294  67.181  1.00  0.00    -0.251 C  
HETATM   14  C   UNL     1      -9.096   9.499  68.489  1.00  0.00    -0.131 C  
HETATM   15  O   UNL     1      -7.876   8.764  68.500  1.00  0.00    -0.101 OA 
HETATM   16  C   UNL     1      -8.765  10.987  68.492  1.00  0.00    -0.159 C  
HETATM   17  C   UNL     1      -8.407  11.282  67.039  1.00  0.00    -0.153 C  
HETATM   18  H   UNL     1      -7.397   8.891  69.311  1.00  0.00     0.000 HD 
HETATM   19  O   UNL     1      -7.021  10.998  66.817  1.00  0.00    -0.114 OA 
HETATM   20  C   UNL     1      -9.276  10.328  66.183  1.00  0.00    -0.192 C  
HETATM   21  H   UNL     1      -6.798  11.182  65.911  1.00  0.00     0.000 HD 
BRANCH  20  22
HETATM   22  C   UNL     1     -10.400  10.955  65.376  1.00  0.00    -0.326 C  
HETATM   23  C   UNL     1     -10.597  12.269  65.166  1.00  0.00    -0.320 C  
BRANCH  23  24
HETATM   24  C   UNL     1     -11.742  12.912  64.413  1.00  0.00    -0.372 C  
HETATM   25  H   UNL     1     -13.700  12.894  64.502  1.00  0.00     0.000 HD 
HETATM   26  O   UNL     1     -12.981  12.491  64.975  1.00  0.00    -0.779 OA 
BRANCH  24  27
HETATM   27  C   UNL     1     -11.628  14.448  64.473  1.00  0.00    -0.384 C  
BRANCH  27  28
HETATM   28  O   UNL     1     -10.383  14.854  65.065  1.00  0.00    -0.390 OA 
BRANCH  28  29
HETATM   29  C   UNL     1     -10.512  15.789  66.061  1.00  0.00    -0.338 A  
HETATM   30  C   UNL     1     -10.849  15.487  67.383  1.00  0.00    -0.312 A  
HETATM   31  C   UNL     1     -10.945  16.504  68.336  1.00  0.00    -0.348 A  
HETATM   32  C   UNL     1     -10.696  17.826  67.974  1.00  0.00    -0.317 A  
HETATM   33  C   UNL     1     -10.342  18.147  66.658  1.00  0.00    -0.387 A  
HETATM   34  C   UNL     1     -10.074  19.579  66.264  1.00  0.00    -0.468 C  
HETATM   35  C   UNL     1     -10.240  17.115  65.708  1.00  0.00    -0.234 A  
HETATM   36  F   UNL     1     -10.258  20.465  67.286  1.00  0.00    -0.546 F  
HETATM   37  F   UNL     1     -10.886  20.005  65.257  1.00  0.00    -0.577 F  
HETATM   38  F   UNL     1      -8.800  19.776  65.830  1.00  0.00    -0.368 F  
ENDBRANCH  28  29
ENDBRANCH  27  28
ENDBRANCH  24  27
ENDBRANCH  23  24
ENDBRANCH  20  22
ENDBRANCH  12  13
ENDBRANCH  11  12
ENDBRANCH   9  10
ENDBRANCH   8   9
ENDBRANCH   7   8
ENDBRANCH   5   7
ENDBRANCH   4   5
ENDBRANCH   2   4
TORSDOF 13
ENDMDL
MODEL      126
REMARK 921   NORMALIZED FREE ENERGY PREDICTED BY IDOCK:   -5.68 KCAL/MOL
REMARK 922        TOTAL FREE ENERGY PREDICTED BY IDOCK:  -12.21 KCAL/MOL
REMARK 923 INTER-LIGAND FREE ENERGY PREDICTED BY IDOCK:   -8.95 KCAL/MOL
REMARK 924 INTRA-LIGAND FREE ENERGY PREDICTED BY IDOCK:   -3.27 KCAL/MOL
REMARK 927      BINDING AFFINITY PREDICTED BY RF-SCORE:    0.00 PKD
ROOT
HETATM    1  C   UNL     1     -13.023  11.638  63.360  1.00  0.00    -0.024 C  
HETATM    2  C   UNL     1     -11.802  12.467  63.747  1.00  0.00    -0.502 C  
HETATM    3  C   UNL     1     -10.543  11.914  63.087  1.00  0.00    -0.322 C  
ENDROOT
BRANCH   2   4
HETATM    4  O   UNL     1     -11.978  13.817  63.282  1.00  0.00    -0.297 OA 
BRANCH   4   5
HETATM    5  C   UNL     1     -11.698  14.782  64.203  1.00  0.00    -0.147 C  
HETATM    6  O   UNL     1     -11.790  15.987  64.007  1.00  0.00    -0.762 OA 
BRANCH   5   7
HETATM    7  C   UNL     1     -11.200  14.158  65.479  1.00  0.00    -0.317 C  
BRANCH   7   8
HETATM    8  C   UNL     1     -12.307  14.180  66.534  1.00  0.00    -0.405 C  
BRANCH   8   9
HETATM    9  C   UNL     1     -12.274  12.981  67.477  1.00  0.00    -0.127 C  
BRANCH   9  10
HETATM   10  C   UNL     1     -11.303  11.920  67.038  1.00  0.00    -0.392 C  
HETATM   11  C   UNL     1     -10.805  10.940  67.809  1.00  0.00    -0.309 C  
BRANCH  11  12
HETATM   12  C   UNL     1     -11.063  10.763  69.279  1.00  0.00    -0.312 C  
BRANCH  12  13
HETATM   13  C   UNL     1     -10.025   9.867  69.969  1.00  0.00    -0.302 C  
HETATM   14  C   UNL     1     -10.538   8.498  70.431  1.00  0.00    -0.223 C  
HETATM   15  O   UNL     1     -11.453   7.935  69.497  1.00  0.00    -0.433 OA 
HETATM   16  C   UNL     1      -9.286   7.629  70.467  1.00  0.00    -0.159 C  
HETATM   17  C   UNL     1      -8.508   8.062  69.228  1.00  0.00    -0.136 C  
HETATM   18  H   UNL     1     -11.770   7.086  69.783  1.00  0.00     0.000 HD 
HETATM   19  O   UNL     1      -8.962   7.319  68.091  1.00  0.00    -0.133 OA 
HETATM   20  C   UNL     1      -8.825   9.564  69.028  1.00  0.00    -0.143 C  
HETATM   21  H   UNL     1      -8.478   7.589  67.319  1.00  0.00     0.000 HD 
BRANCH  20  22
HETATM   22  C   UNL     1      -7.704  10.550  69.304  1.00  0.00    -0.144 C  
HETATM   23  C   UNL     1      -7.518  11.739  68.702  1.00  0.00    -0.120 C  
BRANCH  23  24
HETATM   24  C   UNL     1      -6.375  12.706  68.926  1.00  0.00    -0.086 C  
HETATM   25  H   UNL     1      -4.557  12.954  68.238  1.00  0.00     0.000 HD 
HETATM   26  O   UNL     1      -5.274  12.347  68.097  1.00  0.00    -0.055 OA 
BRANCH  24  27
HETATM   27  C   UNL     1      -6.825  14.148  68.614  1.00  0.00    -0.101 C  
BRANCH  27  28
HETATM   28  O   UNL     1      -8.019  14.158  67.814  1.00  0.00    -0.140 OA 
BRANCH  28  29
HETATM   29  C   UNL     1      -8.942  15.101  68.192  1.00  0.00    -0.174 A  
HETATM   30  C   UNL     1      -9.079  16.353  67.586  1.00  0.00    -0.198 A  
HETATM   31  C   UNL     1     -10.057  17.247  68.029  1.00  0.00    -0.324 A  
HETATM   32  C   UNL     1     -10.907  16.891  69.074  1.00  0.00    -0.255 A  
HETATM   33  C   UNL     1     -10.795  15.636  69.684  1.00  0.00    -0.287 A  
HETATM   34  C   UNL     1     -11.714  15.250  70.817  1.00  0.00    -0.337 C  
HETATM   35  C   UNL     1      -9.813  14.740  69.225  1.00  0.00    -0.123 A  
HETATM   36  F   UNL     1     -12.580  16.242  71.174  1.00  0.00    -0.419 F  
HETATM   37  F   UNL     1     -11.037  14.927  71.953  1.00  0.00    -0.394 F  
HETATM   38  F   UNL     1     -12.490  14.172  70.521  1.00  0.00    -0.347 F  
ENDBRANCH  28  29
ENDBRANCH  27  28
ENDBRANCH  24  27
ENDBRANCH  23  24
ENDBRANCH  20  22
ENDBRANCH  12  13
ENDBRANCH  11  12
ENDBRANCH   9  10
ENDBRANCH   8   9
ENDBRANCH   7   8
ENDBRANCH   5   7
ENDBRANCH   4   5
ENDBRANCH   2   4
TORSDOF 13
ENDMDL
MODEL      127
REMARK 921   NORMALIZED FREE ENERGY PREDICTED BY IDOCK:   -5.66 KCAL/MOL
REMARK 922        TOTAL FREE ENERGY PREDICTED BY IDOCK:  -12.17 KCAL/MOL
REMARK 923 INTER-LIGAND FREE ENERGY PREDICTED BY IDOCK:  -10.80 KCAL/MOL
REMARK 924 INTRA-LIGAND FREE ENERGY PREDICTED BY IDOCK:   -1.37 KCAL/MOL
REMARK 927      BINDING AFFINITY PREDICTED BY RF-SCORE:    0.00 PKD
ROOT
HETATM    1  C   UNL     1      -6.479   5.521  63.197  1.00  0.00    -0.025 C  
HETATM    2  C   UNL     1      -6.922   4.730  64.423  1.00  0.00    -0.050 C  
HETATM    3  C   UNL     1      -6.064   3.481  64.600  1.00  0.00    -0.023 C  
ENDROOT
BRANCH   2   4
HETATM    4  O   UNL     1      -6.753   5.542  65.599  1.00  0.00    -0.043 OA 
BRANCH   4   5
HETATM    5  C   UNL     1      -7.628   5.278  66.610  1.00  0.00    -0.088 C  
HETATM    6  O   UNL     1      -8.600   4.540  66.522  1.00  0.00    -0.112 OA 
BRANCH   5   7
HETATM    7  C   UNL     1      -7.265   6.072  67.837  1.00  0.00    -0.082 C  
BRANCH   7   8
HETATM    8  C   UNL     1      -8.324   5.868  68.920  1.00  0.00    -0.102 C  
BRANCH   8   9
HETATM    9  C   UNL     1      -9.458   6.888  68.864  1.00  0.00    -0.136 C  
BRANCH   9  10
HETATM   10  C   UNL     1      -9.038   8.252  69.339  1.00  0.00    -0.154 C  
HETATM   11  C   UNL     1      -9.425   8.842  70.481  1.00  0.00    -0.243 C  
BRANCH  11  12
HETATM   12  C   UNL     1     -10.412   8.283  71.468  1.00  0.00    -0.289 C  
BRANCH  12  13
HETATM   13  C   UNL     1     -11.871   8.474  71.032  1.00  0.00    -0.290 C  
HETATM   14  C   UNL     1     -12.794   7.274  71.274  1.00  0.00    -0.346 C  
HETATM   15  O   UNL     1     -12.500   6.622  72.505  1.00  0.00    -0.509 OA 
HETATM   16  C   UNL     1     -14.184   7.893  71.373  1.00  0.00    -0.467 C  
HETATM   17  C   UNL     1     -13.954   9.177  72.163  1.00  0.00    -0.400 C  
HETATM   18  H   UNL     1     -13.073   5.878  72.654  1.00  0.00     0.000 HD 
HETATM   19  O   UNL     1     -14.005   8.896  73.566  1.00  0.00    -1.160 OA 
HETATM   20  C   UNL     1     -12.534   9.664  71.782  1.00  0.00    -0.487 C  
HETATM   21  H   UNL     1     -13.861   9.695  74.058  1.00  0.00     0.000 HD 
BRANCH  20  22
HETATM   22  C   UNL     1     -12.439  10.916  70.928  1.00  0.00    -0.507 C  
HETATM   23  C   UNL     1     -12.547  12.187  71.358  1.00  0.00    -0.314 C  
BRANCH  23  24
HETATM   24  C   UNL     1     -12.510  13.442  70.512  1.00  0.00    -0.279 C  
HETATM   25  H   UNL     1     -11.974  15.312  70.753  1.00  0.00     0.000 HD 
HETATM   26  O   UNL     1     -11.996  14.524  71.283  1.00  0.00    -0.338 OA 
BRANCH  24  27
HETATM   27  C   UNL     1     -11.636  13.221  69.262  1.00  0.00    -0.314 C  
BRANCH  27  28
HETATM   28  O   UNL     1     -10.932  14.421  68.900  1.00  0.00    -0.238 OA 
BRANCH  28  29
HETATM   29  C   UNL     1     -10.948  14.700  67.557  1.00  0.00    -0.298 A  
HETATM   30  C   UNL     1     -10.429  15.867  66.991  1.00  0.00    -0.306 A  
HETATM   31  C   UNL     1     -10.476  16.061  65.608  1.00  0.00    -0.416 A  
HETATM   32  C   UNL     1     -11.035  15.086  64.785  1.00  0.00    -0.389 A  
HETATM   33  C   UNL     1     -11.547  13.903  65.331  1.00  0.00    -0.331 A  
HETATM   34  C   UNL     1     -12.154  12.847  64.441  1.00  0.00    -0.410 C  
HETATM   35  C   UNL     1     -11.487  13.714  66.724  1.00  0.00    -0.370 A  
HETATM   36  F   UNL     1     -12.179  13.200  63.122  1.00  0.00    -0.610 F  
HETATM   37  F   UNL     1     -13.445  12.565  64.769  1.00  0.00    -0.296 F  
HETATM   38  F   UNL     1     -11.484  11.664  64.494  1.00  0.00    -0.378 F  
ENDBRANCH  28  29
ENDBRANCH  27  28
ENDBRANCH  24  27
ENDBRANCH  23  24
ENDBRANCH  20  22
ENDBRANCH  12  13
ENDBRANCH  11  12
ENDBRANCH   9  10
ENDBRANCH   8   9
ENDBRANCH   7   8
ENDBRANCH   5   7
ENDBRANCH   4   5
ENDBRANCH   2   4
TORSDOF 13
ENDMDL
MODEL      128
REMARK 921   NORMALIZED FREE ENERGY PREDICTED BY IDOCK:   -5.65 KCAL/MOL
REMARK 922        TOTAL FREE ENERGY PREDICTED BY IDOCK:  -12.17 KCAL/MOL
REMARK 923 INTER-LIGAND FREE ENERGY PREDICTED BY IDOCK:   -9.81 KCAL/MOL
REMARK 924 INTRA-LIGAND FREE ENERGY PREDICTED BY IDOCK:   -2.36 KCAL/MOL
REMARK 927      BINDING AFFINITY PREDICTED BY RF-SCORE:    0.00 PKD
ROOT
HETATM    1  C   UNL     1      -8.099   2.769  66.658  1.00  0.00    -0.082 C  
HETATM    2  C   UNL     1      -7.610   4.113  66.127  1.00  0.00    -0.089 C  
HETATM    3  C   UNL     1      -7.929   4.255  64.642  1.00  0.00    -0.090 C  
ENDROOT
BRANCH   2   4
HETATM    4  O   UNL     1      -8.292   5.174  66.820  1.00  0.00    -0.108 OA 
BRANCH   4   5
HETATM    5  C   UNL     1      -7.513   6.246  67.137  1.00  0.00    -0.084 C  
HETATM    6  O   UNL     1      -6.424   6.184  67.691  1.00  0.00    -0.042 OA 
BRANCH   5   7
HETATM    7  C   UNL     1      -8.210   7.527  66.761  1.00  0.00    -0.124 C  
BRANCH   7   8
HETATM    8  C   UNL     1      -9.693   7.256  66.509  1.00  0.00    -0.207 C  
BRANCH   8   9
HETATM    9  C   UNL     1     -10.584   7.581  67.705  1.00  0.00    -0.303 C  
BRANCH   9  10
HETATM   10  C   UNL     1     -11.112   6.349  68.389  1.00  0.00    -0.374 C  
HETATM   11  C   UNL     1     -10.617   5.796  69.507  1.00  0.00    -0.390 C  
BRANCH  11  12
HETATM   12  C   UNL     1      -9.392   6.256  70.246  1.00  0.00    -0.170 C  
BRANCH  12  13
HETATM   13  C   UNL     1      -9.685   6.683  71.691  1.00  0.00    -0.170 C  
HETATM   14  C   UNL     1      -8.911   5.922  72.774  1.00  0.00    -0.124 C  
HETATM   15  O   UNL     1      -7.572   5.650  72.372  1.00  0.00    -0.098 OA 
HETATM   16  C   UNL     1      -8.877   6.891  73.951  1.00  0.00    -0.192 C  
HETATM   17  C   UNL     1      -8.645   8.249  73.295  1.00  0.00    -0.203 C  
HETATM   18  H   UNL     1      -7.092   5.179  73.044  1.00  0.00     0.000 HD 
HETATM   19  O   UNL     1      -7.242   8.462  73.110  1.00  0.00    -0.196 OA 
HETATM   20  C   UNL     1      -9.348   8.184  71.917  1.00  0.00    -0.251 C  
HETATM   21  H   UNL     1      -7.098   9.308  72.702  1.00  0.00     0.000 HD 
BRANCH  20  22
HETATM   22  C   UNL     1     -10.606   9.016  71.742  1.00  0.00    -0.426 C  
HETATM   23  C   UNL     1     -11.874   8.565  71.764  1.00  0.00    -0.395 C  
BRANCH  23  24
HETATM   24  C   UNL     1     -13.134   9.371  71.535  1.00  0.00    -0.377 C  
HETATM   25  H   UNL     1     -14.741   9.831  72.558  1.00  0.00     0.000 HD 
HETATM   26  O   UNL     1     -13.950   9.325  72.702  1.00  0.00    -0.438 OA 
BRANCH  24  27
HETATM   27  C   UNL     1     -12.780  10.833  71.194  1.00  0.00    -0.431 C  
BRANCH  27  28
HETATM   28  O   UNL     1     -13.478  11.751  72.052  1.00  0.00    -0.422 OA 
BRANCH  28  29
HETATM   29  C   UNL     1     -13.252  13.073  71.764  1.00  0.00    -0.392 A  
HETATM   30  C   UNL     1     -13.712  14.137  72.544  1.00  0.00    -0.626 A  
HETATM   31  C   UNL     1     -13.423  15.455  72.181  1.00  0.00    -0.570 A  
HETATM   32  C   UNL     1     -12.666  15.714  71.041  1.00  0.00    -0.517 A  
HETATM   33  C   UNL     1     -12.182  14.662  70.254  1.00  0.00    -0.389 A  
HETATM   34  C   UNL     1     -11.363  14.942  69.018  1.00  0.00    -0.292 C  
HETATM   35  C   UNL     1     -12.472  13.339  70.633  1.00  0.00    -0.373 A  
HETATM   36  F   UNL     1     -11.207  16.273  68.762  1.00  0.00    -0.293 F  
HETATM   37  F   UNL     1     -11.916  14.413  67.892  1.00  0.00    -0.351 F  
HETATM   38  F   UNL     1     -10.103  14.432  69.095  1.00  0.00    -0.224 F  
ENDBRANCH  28  29
ENDBRANCH  27  28
ENDBRANCH  24  27
ENDBRANCH  23  24
ENDBRANCH  20  22
ENDBRANCH  12  13
ENDBRANCH  11  12
ENDBRANCH   9  10
ENDBRANCH   8   9
ENDBRANCH   7   8
ENDBRANCH   5   7
ENDBRANCH   4   5
ENDBRANCH   2   4
TORSDOF 13
ENDMDL
MODEL      129
REMARK 921   NORMALIZED FREE ENERGY PREDICTED BY IDOCK:   -5.65 KCAL/MOL
REMARK 922        TOTAL FREE ENERGY PREDICTED BY IDOCK:  -12.16 KCAL/MOL
REMARK 923 INTER-LIGAND FREE ENERGY PREDICTED BY IDOCK:  -10.66 KCAL/MOL
REMARK 924 INTRA-LIGAND FREE ENERGY PREDICTED BY IDOCK:   -1.50 KCAL/MOL
REMARK 927      BINDING AFFINITY PREDICTED BY RF-SCORE:    0.00 PKD
ROOT
HETATM    1  C   UNL     1     -14.134   7.492  71.523  1.00  0.00    -0.550 C  
HETATM    2  C   UNL     1     -12.737   6.951  71.808  1.00  0.00    -0.327 C  
HETATM    3  C   UNL     1     -11.979   6.702  70.508  1.00  0.00    -0.377 C  
ENDROOT
BRANCH   2   4
HETATM    4  O   UNL     1     -11.996   7.926  72.562  1.00  0.00    -0.340 OA 
BRANCH   4   5
HETATM    5  C   UNL     1     -10.800   7.487  73.049  1.00  0.00    -0.392 C  
HETATM    6  O   UNL     1     -10.644   6.472  73.713  1.00  0.00    -0.300 OA 
BRANCH   5   7
HETATM    7  C   UNL     1      -9.706   8.462  72.704  1.00  0.00    -0.332 C  
BRANCH   7   8
HETATM    8  C   UNL     1      -8.343   7.789  72.862  1.00  0.00    -0.188 C  
BRANCH   8   9
HETATM    9  C   UNL     1      -7.574   7.654  71.551  1.00  0.00    -0.081 C  
BRANCH   9  10
HETATM   10  C   UNL     1      -7.173   8.983  70.971  1.00  0.00    -0.114 C  
HETATM   11  C   UNL     1      -7.894   9.715  70.108  1.00  0.00    -0.185 C  
BRANCH  11  12
HETATM   12  C   UNL     1      -9.207   9.310  69.496  1.00  0.00    -0.168 C  
BRANCH  12  13
HETATM   13  C   UNL     1      -9.068   8.808  68.052  1.00  0.00    -0.144 C  
HETATM   14  C   UNL     1      -8.577   7.364  67.900  1.00  0.00    -0.125 C  
HETATM   15  O   UNL     1      -9.129   6.511  68.898  1.00  0.00    -0.131 OA 
HETATM   16  C   UNL     1      -9.117   6.933  66.541  1.00  0.00    -0.179 C  
HETATM   17  C   UNL     1     -10.514   7.545  66.495  1.00  0.00     0.049 C  
HETATM   18  H   UNL     1      -8.825   5.616  68.803  1.00  0.00     0.000 HD 
HETATM   19  O   UNL     1     -11.449   6.660  67.121  1.00  0.00    -0.779 OA 
HETATM   20  C   UNL     1     -10.428   8.865  67.300  1.00  0.00    -0.348 C  
HETATM   21  H   UNL     1     -12.319   7.042  67.093  1.00  0.00     0.000 HD 
BRANCH  20  22
HETATM   22  C   UNL     1     -10.518  10.161  66.514  1.00  0.00    -0.236 C  
HETATM   23  C   UNL     1     -11.020  11.330  66.954  1.00  0.00    -0.348 C  
BRANCH  23  24
HETATM   24  C   UNL     1     -11.168  12.614  66.166  1.00  0.00    -0.309 C  
HETATM   25  H   UNL     1     -12.564  13.959  65.876  1.00  0.00     0.000 HD 
HETATM   26  O   UNL     1     -12.470  13.153  66.371  1.00  0.00    -0.367 OA 
BRANCH  24  27
HETATM   27  C   UNL     1     -10.097  13.635  66.600  1.00  0.00    -0.277 C  
BRANCH  27  28
HETATM   28  O   UNL     1     -10.247  14.877  65.892  1.00  0.00    -0.278 OA 
BRANCH  28  29
HETATM   29  C   UNL     1     -10.306  15.983  66.703  1.00  0.00    -0.298 A  
HETATM   30  C   UNL     1     -10.520  15.936  68.083  1.00  0.00    -0.270 A  
HETATM   31  C   UNL     1     -10.552  17.114  68.832  1.00  0.00    -0.314 A  
HETATM   32  C   UNL     1     -10.363  18.345  68.207  1.00  0.00    -0.384 A  
HETATM   33  C   UNL     1     -10.133  18.413  66.827  1.00  0.00    -0.391 A  
HETATM   34  C   UNL     1      -9.929  19.745  66.149  1.00  0.00    -0.473 C  
HETATM   35  C   UNL     1     -10.094  17.219  66.083  1.00  0.00    -0.312 A  
HETATM   36  F   UNL     1     -10.040  20.807  66.997  1.00  0.00    -0.584 F  
HETATM   37  F   UNL     1     -10.835  19.970  65.157  1.00  0.00    -0.551 F  
HETATM   38  F   UNL     1      -8.702  19.860  65.572  1.00  0.00    -0.258 F  
ENDBRANCH  28  29
ENDBRANCH  27  28
ENDBRANCH  24  27
ENDBRANCH  23  24
ENDBRANCH  20  22
ENDBRANCH  12  13
ENDBRANCH  11  12
ENDBRANCH   9  10
ENDBRANCH   8   9
ENDBRANCH   7   8
ENDBRANCH   5   7
ENDBRANCH   4   5
ENDBRANCH   2   4
TORSDOF 13
ENDMDL
MODEL      130
REMARK 921   NORMALIZED FREE ENERGY PREDICTED BY IDOCK:   -5.64 KCAL/MOL
REMARK 922        TOTAL FREE ENERGY PREDICTED BY IDOCK:  -12.14 KCAL/MOL
REMARK 923 INTER-LIGAND FREE ENERGY PREDICTED BY IDOCK:  -10.20 KCAL/MOL
REMARK 924 INTRA-LIGAND FREE ENERGY PREDICTED BY IDOCK:   -1.94 KCAL/MOL
REMARK 927      BINDING AFFINITY PREDICTED BY RF-SCORE:    0.00 PKD
ROOT
HETATM    1  C   UNL     1     -11.874  13.090  69.159  1.00  0.00    -0.360 C  
HETATM    2  C   UNL     1     -11.990  14.469  69.799  1.00  0.00    -0.332 C  
HETATM    3  C   UNL     1     -12.882  14.418  71.035  1.00  0.00    -0.423 C  
ENDROOT
BRANCH   2   4
HETATM    4  O   UNL     1     -10.686  14.908  70.222  1.00  0.00    -0.165 OA 
BRANCH   4   5
HETATM    5  C   UNL     1      -9.902  15.418  69.231  1.00  0.00    -0.262 C  
HETATM    6  O   UNL     1      -8.906  14.875  68.773  1.00  0.00    -0.172 OA 
BRANCH   5   7
HETATM    7  C   UNL     1     -10.402  16.777  68.818  1.00  0.00    -0.318 C  
BRANCH   7   8
HETATM    8  C   UNL     1      -9.229  17.648  68.368  1.00  0.00    -0.288 C  
BRANCH   8   9
HETATM    9  C   UNL     1      -9.023  17.661  66.856  1.00  0.00    -0.258 C  
BRANCH   9  10
HETATM   10  C   UNL     1     -10.319  17.636  66.092  1.00  0.00    -0.334 C  
HETATM   11  C   UNL     1     -10.824  16.582  65.432  1.00  0.00    -0.216 C  
BRANCH  11  12
HETATM   12  C   UNL     1     -10.153  15.246  65.265  1.00  0.00    -0.362 C  
BRANCH  12  13
HETATM   13  C   UNL     1     -11.086  14.063  65.554  1.00  0.00    -0.309 C  
HETATM   14  C   UNL     1     -12.446  14.108  64.847  1.00  0.00    -0.401 C  
HETATM   15  O   UNL     1     -12.335  14.617  63.522  1.00  0.00    -1.059 OA 
HETATM   16  C   UNL     1     -12.869  12.645  64.770  1.00  0.00    -0.349 C  
HETATM   17  C   UNL     1     -11.573  11.910  64.443  1.00  0.00    -0.292 C  
HETATM   18  H   UNL     1     -13.178  14.645  63.084  1.00  0.00     0.000 HD 
HETATM   19  O   UNL     1     -11.369  11.901  63.026  1.00  0.00    -0.667 OA 
HETATM   20  C   UNL     1     -10.441  12.715  65.126  1.00  0.00    -0.319 C  
HETATM   21  H   UNL     1     -10.562  11.443  62.822  1.00  0.00     0.000 HD 
BRANCH  20  22
HETATM   22  C   UNL     1      -9.764  12.075  66.325  1.00  0.00    -0.251 C  
HETATM   23  C   UNL     1     -10.056  10.876  66.863  1.00  0.00    -0.253 C  
BRANCH  23  24
HETATM   24  C   UNL     1      -9.430  10.250  68.090  1.00  0.00    -0.147 C  
HETATM   25  H   UNL     1      -8.520  10.877  69.709  1.00  0.00     0.000 HD 
HETATM   26  O   UNL     1      -8.913  11.271  68.938  1.00  0.00    -0.142 OA 
BRANCH  24  27
HETATM   27  C   UNL     1     -10.472   9.406  68.852  1.00  0.00    -0.216 C  
BRANCH  27  28
HETATM   28  O   UNL     1      -9.877   8.735  69.975  1.00  0.00    -0.171 OA 
BRANCH  28  29
HETATM   29  C   UNL     1      -9.912   7.365  69.896  1.00  0.00    -0.188 A  
HETATM   30  C   UNL     1      -9.975   6.516  71.003  1.00  0.00    -0.203 A  
HETATM   31  C   UNL     1     -10.020   5.130  70.827  1.00  0.00    -0.285 A  
HETATM   32  C   UNL     1     -10.011   4.589  69.544  1.00  0.00    -0.235 A  
HETATM   33  C   UNL     1      -9.963   5.423  68.421  1.00  0.00    -0.217 A  
HETATM   34  C   UNL     1      -9.951   4.838  67.030  1.00  0.00    -0.204 C  
HETATM   35  C   UNL     1      -9.926   6.817  68.609  1.00  0.00    -0.147 A  
HETATM   36  F   UNL     1      -9.945   3.474  67.018  1.00  0.00    -0.204 F  
HETATM   37  F   UNL     1      -8.858   5.217  66.312  1.00  0.00    -0.120 F  
HETATM   38  F   UNL     1     -11.033   5.209  66.294  1.00  0.00    -0.331 F  
ENDBRANCH  28  29
ENDBRANCH  27  28
ENDBRANCH  24  27
ENDBRANCH  23  24
ENDBRANCH  20  22
ENDBRANCH  12  13
ENDBRANCH  11  12
ENDBRANCH   9  10
ENDBRANCH   8   9
ENDBRANCH   7   8
ENDBRANCH   5   7
ENDBRANCH   4   5
ENDBRANCH   2   4
TORSDOF 13
ENDMDL
MODEL      131
REMARK 921   NORMALIZED FREE ENERGY PREDICTED BY IDOCK:   -5.63 KCAL/MOL
REMARK 922        TOTAL FREE ENERGY PREDICTED BY IDOCK:  -12.13 KCAL/MOL
REMARK 923 INTER-LIGAND FREE ENERGY PREDICTED BY IDOCK:   -9.17 KCAL/MOL
REMARK 924 INTRA-LIGAND FREE ENERGY PREDICTED BY IDOCK:   -2.96 KCAL/MOL
REMARK 927      BINDING AFFINITY PREDICTED BY RF-SCORE:    0.00 PKD
ROOT
HETATM    1  C   UNL     1      -8.208   3.259  65.289  1.00  0.00    -0.094 C  
HETATM    2  C   UNL     1      -8.464   4.361  66.311  1.00  0.00    -0.112 C  
HETATM    3  C   UNL     1      -9.791   5.059  66.033  1.00  0.00    -0.206 C  
ENDROOT
BRANCH   2   4
HETATM    4  O   UNL     1      -8.547   3.780  67.625  1.00  0.00    -0.094 OA 
BRANCH   4   5
HETATM    5  C   UNL     1      -7.848   4.442  68.591  1.00  0.00    -0.074 C  
HETATM    6  O   UNL     1      -6.633   4.582  68.607  1.00  0.00    -0.043 OA 
BRANCH   5   7
HETATM    7  C   UNL     1      -8.780   4.928  69.669  1.00  0.00    -0.109 C  
BRANCH   7   8
HETATM    8  C   UNL     1      -8.512   6.404  69.961  1.00  0.00    -0.135 C  
BRANCH   8   9
HETATM    9  C   UNL     1      -9.415   7.355  69.181  1.00  0.00    -0.149 C  
BRANCH   9  10
HETATM   10  C   UNL     1      -9.072   8.802  69.407  1.00  0.00    -0.145 C  
HETATM   11  C   UNL     1      -9.475   9.554  70.444  1.00  0.00    -0.317 C  
BRANCH  11  12
HETATM   12  C   UNL     1     -10.410   9.115  71.537  1.00  0.00    -0.414 C  
BRANCH  12  13
HETATM   13  C   UNL     1     -11.864   8.980  71.066  1.00  0.00    -0.339 C  
HETATM   14  C   UNL     1     -12.511   7.610  71.303  1.00  0.00    -0.298 C  
HETATM   15  O   UNL     1     -12.112   7.047  72.549  1.00  0.00    -0.488 OA 
HETATM   16  C   UNL     1     -14.003   7.912  71.362  1.00  0.00    -0.384 C  
HETATM   17  C   UNL     1     -14.077   9.222  72.140  1.00  0.00    -0.283 C  
HETATM   18  H   UNL     1     -12.513   6.198  72.695  1.00  0.00     0.000 HD 
HETATM   19  O   UNL     1     -14.101   8.948  73.545  1.00  0.00    -1.189 OA 
HETATM   20  C   UNL     1     -12.789  10.003  71.785  1.00  0.00    -0.546 C  
HETATM   21  H   UNL     1     -14.147   9.764  74.029  1.00  0.00     0.000 HD 
BRANCH  20  22
HETATM   22  C   UNL     1     -12.946  11.239  70.916  1.00  0.00    -0.237 C  
HETATM   23  C   UNL     1     -12.098  12.281  70.847  1.00  0.00    -0.162 C  
BRANCH  23  24
HETATM   24  C   UNL     1     -12.268  13.544  70.030  1.00  0.00    -0.312 C  
HETATM   25  H   UNL     1     -12.781  15.406  70.367  1.00  0.00     0.000 HD 
HETATM   26  O   UNL     1     -12.673  14.613  70.880  1.00  0.00    -0.313 OA 
BRANCH  24  27
HETATM   27  C   UNL     1     -10.949  13.904  69.318  1.00  0.00    -0.183 C  
BRANCH  27  28
HETATM   28  O   UNL     1     -10.990  13.537  67.930  1.00  0.00    -0.245 OA 
BRANCH  28  29
HETATM   29  C   UNL     1      -9.910  12.802  67.509  1.00  0.00    -0.211 A  
HETATM   30  C   UNL     1      -8.585  13.091  67.843  1.00  0.00    -0.189 A  
HETATM   31  C   UNL     1      -7.547  12.279  67.379  1.00  0.00    -0.159 A  
HETATM   32  C   UNL     1      -7.831  11.169  66.586  1.00  0.00    -0.155 A  
HETATM   33  C   UNL     1      -9.154  10.854  66.252  1.00  0.00    -0.192 A  
HETATM   34  C   UNL     1      -9.462   9.653  65.392  1.00  0.00    -0.278 C  
HETATM   35  C   UNL     1     -10.191  11.674  66.732  1.00  0.00    -0.248 A  
HETATM   36  F   UNL     1      -8.347   8.988  64.972  1.00  0.00    -0.129 F  
HETATM   37  F   UNL     1     -10.143   9.982  64.260  1.00  0.00    -0.371 F  
HETATM   38  F   UNL     1     -10.224   8.727  66.035  1.00  0.00    -0.363 F  
ENDBRANCH  28  29
ENDBRANCH  27  28
ENDBRANCH  24  27
ENDBRANCH  23  24
ENDBRANCH  20  22
ENDBRANCH  12  13
ENDBRANCH  11  12
ENDBRANCH   9  10
ENDBRANCH   8   9
ENDBRANCH   7   8
ENDBRANCH   5   7
ENDBRANCH   4   5
ENDBRANCH   2   4
TORSDOF 13
ENDMDL
MODEL      132
REMARK 921   NORMALIZED FREE ENERGY PREDICTED BY IDOCK:   -5.62 KCAL/MOL
REMARK 922        TOTAL FREE ENERGY PREDICTED BY IDOCK:  -12.11 KCAL/MOL
REMARK 923 INTER-LIGAND FREE ENERGY PREDICTED BY IDOCK:   -9.11 KCAL/MOL
REMARK 924 INTRA-LIGAND FREE ENERGY PREDICTED BY IDOCK:   -3.00 KCAL/MOL
REMARK 927      BINDING AFFINITY PREDICTED BY RF-SCORE:    0.00 PKD
ROOT
HETATM    1  C   UNL     1      -8.203   5.682  71.325  1.00  0.00    -0.125 C  
HETATM    2  C   UNL     1      -9.726   5.737  71.276  1.00  0.00    -0.171 C  
HETATM    3  C   UNL     1     -10.334   4.817  72.330  1.00  0.00    -0.261 C  
ENDROOT
BRANCH   2   4
HETATM    4  O   UNL     1     -10.162   7.077  71.566  1.00  0.00    -0.198 OA 
BRANCH   4   5
HETATM    5  C   UNL     1     -11.423   7.375  71.142  1.00  0.00    -0.279 C  
HETATM    6  O   UNL     1     -11.944   6.934  70.127  1.00  0.00    -0.271 OA 
BRANCH   5   7
HETATM    7  C   UNL     1     -12.064   8.372  72.070  1.00  0.00    -0.417 C  
BRANCH   7   8
HETATM    8  C   UNL     1     -12.510   9.603  71.281  1.00  0.00    -0.445 C  
BRANCH   8   9
HETATM    9  C   UNL     1     -11.364  10.327  70.580  1.00  0.00    -0.422 C  
BRANCH   9  10
HETATM   10  C   UNL     1     -11.748  10.851  69.223  1.00  0.00    -0.395 C  
HETATM   11  C   UNL     1     -11.184  10.504  68.056  1.00  0.00    -0.361 C  
BRANCH  11  12
HETATM   12  C   UNL     1     -10.008   9.582  67.888  1.00  0.00    -0.209 C  
BRANCH  12  13
HETATM   13  C   UNL     1      -8.745  10.302  67.397  1.00  0.00    -0.128 C  
HETATM   14  C   UNL     1      -8.059  11.208  68.426  1.00  0.00    -0.141 C  
HETATM   15  O   UNL     1      -8.091  10.641  69.732  1.00  0.00    -0.368 OA 
HETATM   16  C   UNL     1      -6.609  11.265  67.958  1.00  0.00    -0.058 C  
HETATM   17  C   UNL     1      -6.319   9.839  67.502  1.00  0.00    -0.064 C  
HETATM   18  H   UNL     1      -7.666  11.203  70.370  1.00  0.00     0.000 HD 
HETATM   19  O   UNL     1      -5.901   9.050  68.621  1.00  0.00    -0.041 OA 
HETATM   20  C   UNL     1      -7.655   9.288  66.947  1.00  0.00    -0.091 C  
HETATM   21  H   UNL     1      -5.721   8.162  68.337  1.00  0.00     0.000 HD 
BRANCH  20  22
HETATM   22  C   UNL     1      -7.747   9.080  65.445  1.00  0.00    -0.095 C  
HETATM   23  C   UNL     1      -8.335   9.904  64.559  1.00  0.00    -0.168 C  
BRANCH  23  24
HETATM   24  C   UNL     1      -8.485   9.684  63.068  1.00  0.00    -0.184 C  
HETATM   25  H   UNL     1      -8.825   8.167  61.875  1.00  0.00     0.000 HD 
HETATM   26  O   UNL     1      -8.731   8.305  62.810  1.00  0.00    -0.029 OA 
BRANCH  24  27
HETATM   27  C   UNL     1      -9.640  10.542  62.514  1.00  0.00    -0.202 C  
BRANCH  27  28
HETATM   28  O   UNL     1      -9.539  11.903  62.964  1.00  0.00    -0.376 OA 
BRANCH  28  29
HETATM   29  C   UNL     1     -10.576  12.308  63.767  1.00  0.00    -0.451 A  
HETATM   30  C   UNL     1     -11.915  11.970  63.552  1.00  0.00    -0.605 A  
HETATM   31  C   UNL     1     -12.904  12.417  64.431  1.00  0.00    -0.344 A  
HETATM   32  C   UNL     1     -12.559  13.198  65.532  1.00  0.00    -0.468 A  
HETATM   33  C   UNL     1     -11.222  13.535  65.773  1.00  0.00    -0.308 A  
HETATM   34  C   UNL     1     -10.848  14.382  66.964  1.00  0.00    -0.297 C  
HETATM   35  C   UNL     1     -10.232  13.073  64.887  1.00  0.00    -0.304 A  
HETATM   36  F   UNL     1     -11.923  14.788  67.699  1.00  0.00    -0.367 F  
HETATM   37  F   UNL     1     -10.193  15.523  66.611  1.00  0.00    -0.252 F  
HETATM   38  F   UNL     1     -10.029  13.732  67.836  1.00  0.00    -0.217 F  
ENDBRANCH  28  29
ENDBRANCH  27  28
ENDBRANCH  24  27
ENDBRANCH  23  24
ENDBRANCH  20  22
ENDBRANCH  12  13
ENDBRANCH  11  12
ENDBRANCH   9  10
ENDBRANCH   8   9
ENDBRANCH   7   8
ENDBRANCH   5   7
ENDBRANCH   4   5
ENDBRANCH   2   4
TORSDOF 13
ENDMDL
MODEL      133
REMARK 921   NORMALIZED FREE ENERGY PREDICTED BY IDOCK:   -5.62 KCAL/MOL
REMARK 922        TOTAL FREE ENERGY PREDICTED BY IDOCK:  -12.10 KCAL/MOL
REMARK 923 INTER-LIGAND FREE ENERGY PREDICTED BY IDOCK:   -8.81 KCAL/MOL
REMARK 924 INTRA-LIGAND FREE ENERGY PREDICTED BY IDOCK:   -3.29 KCAL/MOL
REMARK 927      BINDING AFFINITY PREDICTED BY RF-SCORE:    0.00 PKD
ROOT
HETATM    1  C   UNL     1      -9.940  10.326  64.846  1.00  0.00    -0.393 C  
HETATM    2  C   UNL     1     -10.191  11.469  63.868  1.00  0.00    -0.362 C  
HETATM    3  C   UNL     1      -9.469  11.218  62.548  1.00  0.00    -0.173 C  
ENDROOT
BRANCH   2   4
HETATM    4  O   UNL     1     -11.599  11.550  63.584  1.00  0.00    -0.394 OA 
BRANCH   4   5
HETATM    5  C   UNL     1     -12.160  12.772  63.807  1.00  0.00    -0.517 C  
HETATM    6  O   UNL     1     -12.208  13.682  62.990  1.00  0.00    -0.559 OA 
BRANCH   5   7
HETATM    7  C   UNL     1     -12.660  12.866  65.224  1.00  0.00    -0.502 C  
BRANCH   7   8
HETATM    8  C   UNL     1     -11.697  13.710  66.059  1.00  0.00    -0.383 C  
BRANCH   8   9
HETATM    9  C   UNL     1     -11.368  13.096  67.417  1.00  0.00    -0.344 C  
BRANCH   9  10
HETATM   10  C   UNL     1     -11.993  11.742  67.610  1.00  0.00    -0.106 C  
HETATM   11  C   UNL     1     -11.736  10.892  68.617  1.00  0.00    -0.334 C  
BRANCH  11  12
HETATM   12  C   UNL     1     -10.716  11.100  69.703  1.00  0.00    -0.144 C  
BRANCH  12  13
HETATM   13  C   UNL     1     -10.029   9.799  70.140  1.00  0.00    -0.315 C  
HETATM   14  C   UNL     1     -10.520   9.205  71.465  1.00  0.00    -0.352 C  
HETATM   15  O   UNL     1     -11.928   9.349  71.617  1.00  0.00    -0.347 OA 
HETATM   16  C   UNL     1     -10.194   7.721  71.347  1.00  0.00    -0.211 C  
HETATM   17  C   UNL     1     -10.529   7.391  69.895  1.00  0.00    -0.231 C  
HETATM   18  H   UNL     1     -12.233   8.981  72.439  1.00  0.00     0.000 HD 
HETATM   19  O   UNL     1     -11.919   7.071  69.782  1.00  0.00    -0.588 OA 
HETATM   20  C   UNL     1     -10.223   8.674  69.084  1.00  0.00    -0.215 C  
HETATM   21  H   UNL     1     -12.128   6.866  68.878  1.00  0.00     0.000 HD 
BRANCH  20  22
HETATM   22  C   UNL     1      -9.021   8.637  68.157  1.00  0.00    -0.141 C  
HETATM   23  C   UNL     1      -7.778   9.067  68.442  1.00  0.00    -0.098 C  
BRANCH  23  24
HETATM   24  C   UNL     1      -6.584   9.088  67.512  1.00  0.00    -0.065 C  
HETATM   25  H   UNL     1      -6.169   8.451  65.705  1.00  0.00     0.000 HD 
HETATM   26  O   UNL     1      -6.918   8.438  66.289  1.00  0.00    -0.071 OA 
BRANCH  24  27
HETATM   27  C   UNL     1      -6.146  10.541  67.236  1.00  0.00    -0.054 C  
BRANCH  27  28
HETATM   28  O   UNL     1      -7.258  11.446  67.328  1.00  0.00    -0.103 OA 
BRANCH  28  29
HETATM   29  C   UNL     1      -6.902  12.757  67.522  1.00  0.00    -0.153 A  
HETATM   30  C   UNL     1      -5.624  13.177  67.900  1.00  0.00    -0.126 A  
HETATM   31  C   UNL     1      -5.348  14.537  68.062  1.00  0.00    -0.111 A  
HETATM   32  C   UNL     1      -6.346  15.483  67.840  1.00  0.00    -0.169 A  
HETATM   33  C   UNL     1      -7.629  15.084  67.446  1.00  0.00    -0.233 A  
HETATM   34  C   UNL     1      -8.710  16.108  67.206  1.00  0.00    -0.183 C  
HETATM   35  C   UNL     1      -7.894  13.713  67.278  1.00  0.00    -0.109 A  
HETATM   36  F   UNL     1      -8.309  17.388  67.455  1.00  0.00    -0.197 F  
HETATM   37  F   UNL     1      -9.805  15.907  67.991  1.00  0.00    -0.213 F  
HETATM   38  F   UNL     1      -9.162  16.106  65.922  1.00  0.00    -0.319 F  
ENDBRANCH  28  29
ENDBRANCH  27  28
ENDBRANCH  24  27
ENDBRANCH  23  24
ENDBRANCH  20  22
ENDBRANCH  12  13
ENDBRANCH  11  12
ENDBRANCH   9  10
ENDBRANCH   8   9
ENDBRANCH   7   8
ENDBRANCH   5   7
ENDBRANCH   4   5
ENDBRANCH   2   4
TORSDOF 13
ENDMDL
MODEL      134
REMARK 921   NORMALIZED FREE ENERGY PREDICTED BY IDOCK:   -5.60 KCAL/MOL
REMARK 922        TOTAL FREE ENERGY PREDICTED BY IDOCK:  -12.08 KCAL/MOL
REMARK 923 INTER-LIGAND FREE ENERGY PREDICTED BY IDOCK:   -9.97 KCAL/MOL
REMARK 924 INTRA-LIGAND FREE ENERGY PREDICTED BY IDOCK:   -2.11 KCAL/MOL
REMARK 927      BINDING AFFINITY PREDICTED BY RF-SCORE:    0.00 PKD
ROOT
HETATM    1  C   UNL     1      -7.715   6.598  65.759  1.00  0.00    -0.092 C  
HETATM    2  C   UNL     1      -8.592   6.778  66.993  1.00  0.00    -0.114 C  
HETATM    3  C   UNL     1     -10.060   6.896  66.599  1.00  0.00    -0.211 C  
ENDROOT
BRANCH   2   4
HETATM    4  O   UNL     1      -8.462   5.622  67.840  1.00  0.00    -0.104 OA 
BRANCH   4   5
HETATM    5  C   UNL     1      -7.473   5.704  68.775  1.00  0.00    -0.084 C  
HETATM    6  O   UNL     1      -6.694   4.803  69.053  1.00  0.00    -0.046 OA 
BRANCH   5   7
HETATM    7  C   UNL     1      -7.514   7.043  69.463  1.00  0.00    -0.096 C  
BRANCH   7   8
HETATM    8  C   UNL     1      -6.226   7.259  70.256  1.00  0.00    -0.030 C  
BRANCH   8   9
HETATM    9  C   UNL     1      -6.455   7.857  71.641  1.00  0.00    -0.040 C  
BRANCH   9  10
HETATM   10  C   UNL     1      -7.183   6.921  72.567  1.00  0.00    -0.081 C  
HETATM   11  C   UNL     1      -8.423   7.098  73.051  1.00  0.00    -0.142 C  
BRANCH  11  12
HETATM   12  C   UNL     1      -9.291   8.304  72.822  1.00  0.00    -0.338 C  
BRANCH  12  13
HETATM   13  C   UNL     1     -10.445   8.038  71.846  1.00  0.00    -0.296 C  
HETATM   14  C   UNL     1     -11.292   6.796  72.148  1.00  0.00    -0.271 C  
HETATM   15  O   UNL     1     -11.491   6.621  73.547  1.00  0.00    -0.365 OA 
HETATM   16  C   UNL     1     -12.638   7.102  71.501  1.00  0.00    -0.427 C  
HETATM   17  C   UNL     1     -12.856   8.582  71.801  1.00  0.00    -0.348 C  
HETATM   18  H   UNL     1     -12.016   5.851  73.733  1.00  0.00     0.000 HD 
HETATM   19  O   UNL     1     -13.467   8.729  73.087  1.00  0.00    -0.953 OA 
HETATM   20  C   UNL     1     -11.448   9.226  71.817  1.00  0.00    -0.448 C  
HETATM   21  H   UNL     1     -13.602   9.650  73.273  1.00  0.00     0.000 HD 
BRANCH  20  22
HETATM   22  C   UNL     1     -11.099  10.155  70.668  1.00  0.00    -0.397 C  
HETATM   23  C   UNL     1     -10.413   9.831  69.557  1.00  0.00    -0.250 C  
BRANCH  23  24
HETATM   24  C   UNL     1     -10.008  10.757  68.431  1.00  0.00    -0.164 C  
HETATM   25  H   UNL     1      -8.444  11.004  67.275  1.00  0.00     0.000 HD 
HETATM   26  O   UNL     1      -8.698  10.422  67.983  1.00  0.00    -0.121 OA 
BRANCH  24  27
HETATM   27  C   UNL     1     -11.010  10.651  67.263  1.00  0.00    -0.284 C  
BRANCH  27  28
HETATM   28  O   UNL     1     -12.023  11.667  67.354  1.00  0.00    -0.621 OA 
BRANCH  28  29
HETATM   29  C   UNL     1     -11.840  12.721  66.495  1.00  0.00    -0.405 A  
HETATM   30  C   UNL     1     -12.207  12.709  65.147  1.00  0.00    -0.539 A  
HETATM   31  C   UNL     1     -11.994  13.836  64.348  1.00  0.00    -0.480 A  
HETATM   32  C   UNL     1     -11.422  14.982  64.896  1.00  0.00    -0.399 A  
HETATM   33  C   UNL     1     -11.062  15.020  66.248  1.00  0.00    -0.334 A  
HETATM   34  C   UNL     1     -10.441  16.260  66.842  1.00  0.00    -0.302 C  
HETATM   35  C   UNL     1     -11.288  13.882  67.045  1.00  0.00    -0.343 A  
HETATM   36  F   UNL     1     -10.248  17.257  65.932  1.00  0.00    -0.319 F  
HETATM   37  F   UNL     1      -9.219  16.021  67.392  1.00  0.00    -0.201 F  
HETATM   38  F   UNL     1     -11.199  16.806  67.832  1.00  0.00    -0.327 F  
ENDBRANCH  28  29
ENDBRANCH  27  28
ENDBRANCH  24  27
ENDBRANCH  23  24
ENDBRANCH  20  22
ENDBRANCH  12  13
ENDBRANCH  11  12
ENDBRANCH   9  10
ENDBRANCH   8   9
ENDBRANCH   7   8
ENDBRANCH   5   7
ENDBRANCH   4   5
ENDBRANCH   2   4
TORSDOF 13
ENDMDL
MODEL      135
REMARK 921   NORMALIZED FREE ENERGY PREDICTED BY IDOCK:   -5.60 KCAL/MOL
REMARK 922        TOTAL FREE ENERGY PREDICTED BY IDOCK:  -12.08 KCAL/MOL
REMARK 923 INTER-LIGAND FREE ENERGY PREDICTED BY IDOCK:  -10.11 KCAL/MOL
REMARK 924 INTRA-LIGAND FREE ENERGY PREDICTED BY IDOCK:   -1.97 KCAL/MOL
REMARK 927      BINDING AFFINITY PREDICTED BY RF-SCORE:    0.00 PKD
ROOT
HETATM    1  C   UNL     1      -9.240   2.192  63.386  1.00  0.00    -0.094 C  
HETATM    2  C   UNL     1      -9.237   3.248  64.486  1.00  0.00    -0.138 C  
HETATM    3  C   UNL     1     -10.534   4.051  64.467  1.00  0.00    -0.215 C  
ENDROOT
BRANCH   2   4
HETATM    4  O   UNL     1      -9.147   2.599  65.767  1.00  0.00    -0.141 OA 
BRANCH   4   5
HETATM    5  C   UNL     1      -8.393   3.258  66.692  1.00  0.00    -0.102 C  
HETATM    6  O   UNL     1      -7.240   3.629  66.523  1.00  0.00    -0.065 OA 
BRANCH   5   7
HETATM    7  C   UNL     1      -9.162   3.412  67.978  1.00  0.00    -0.238 C  
BRANCH   7   8
HETATM    8  C   UNL     1      -9.229   4.889  68.368  1.00  0.00    -0.157 C  
BRANCH   8   9
HETATM    9  C   UNL     1     -10.435   5.620  67.787  1.00  0.00    -0.275 C  
BRANCH   9  10
HETATM   10  C   UNL     1     -10.112   7.022  67.348  1.00  0.00    -0.252 C  
HETATM   11  C   UNL     1      -9.825   8.054  68.157  1.00  0.00    -0.195 C  
BRANCH  11  12
HETATM   12  C   UNL     1      -9.848   8.024  69.661  1.00  0.00    -0.184 C  
BRANCH  12  13
HETATM   13  C   UNL     1     -11.267   8.073  70.242  1.00  0.00    -0.192 C  
HETATM   14  C   UNL     1     -11.834   6.729  70.714  1.00  0.00    -0.392 C  
HETATM   15  O   UNL     1     -10.838   5.928  71.340  1.00  0.00    -0.256 OA 
HETATM   16  C   UNL     1     -12.874   7.115  71.759  1.00  0.00    -0.368 C  
HETATM   17  C   UNL     1     -12.219   8.267  72.515  1.00  0.00    -0.307 C  
HETATM   18  H   UNL     1     -11.189   5.095  71.633  1.00  0.00     0.000 HD 
HETATM   19  O   UNL     1     -11.393   7.748  73.563  1.00  0.00    -0.547 OA 
HETATM   20  C   UNL     1     -11.340   9.011  71.480  1.00  0.00    -0.416 C  
HETATM   21  H   UNL     1     -10.984   8.466  74.033  1.00  0.00     0.000 HD 
BRANCH  20  22
HETATM   22  C   UNL     1     -11.803  10.390  71.044  1.00  0.00    -0.458 C  
HETATM   23  C   UNL     1     -11.598  10.959  69.841  1.00  0.00    -0.410 C  
BRANCH  23  24
HETATM   24  C   UNL     1     -12.004  12.352  69.410  1.00  0.00    -0.260 C  
HETATM   25  H   UNL     1     -12.382  14.065  70.284  1.00  0.00     0.000 HD 
HETATM   26  O   UNL     1     -12.128  13.191  70.555  1.00  0.00    -0.357 OA 
BRANCH  24  27
HETATM   27  C   UNL     1     -10.961  12.936  68.436  1.00  0.00    -0.258 C  
BRANCH  27  28
HETATM   28  O   UNL     1     -11.570  13.848  67.507  1.00  0.00    -0.320 OA 
BRANCH  28  29
HETATM   29  C   UNL     1     -11.607  13.393  66.213  1.00  0.00    -0.344 A  
HETATM   30  C   UNL     1     -12.354  13.986  65.192  1.00  0.00    -0.468 A  
HETATM   31  C   UNL     1     -12.321  13.462  63.898  1.00  0.00    -0.410 A  
HETATM   32  C   UNL     1     -11.534  12.347  63.617  1.00  0.00    -0.568 A  
HETATM   33  C   UNL     1     -10.766  11.747  64.622  1.00  0.00    -0.363 A  
HETATM   34  C   UNL     1      -9.914  10.540  64.318  1.00  0.00    -0.331 C  
HETATM   35  C   UNL     1     -10.800  12.289  65.920  1.00  0.00    -0.306 A  
HETATM   36  F   UNL     1     -10.023  10.110  63.028  1.00  0.00    -0.293 F  
HETATM   37  F   UNL     1     -10.234   9.466  65.092  1.00  0.00    -0.251 F  
HETATM   38  F   UNL     1      -8.587  10.767  64.520  1.00  0.00    -0.176 F  
ENDBRANCH  28  29
ENDBRANCH  27  28
ENDBRANCH  24  27
ENDBRANCH  23  24
ENDBRANCH  20  22
ENDBRANCH  12  13
ENDBRANCH  11  12
ENDBRANCH   9  10
ENDBRANCH   8   9
ENDBRANCH   7   8
ENDBRANCH   5   7
ENDBRANCH   4   5
ENDBRANCH   2   4
TORSDOF 13
ENDMDL
MODEL      136
REMARK 921   NORMALIZED FREE ENERGY PREDICTED BY IDOCK:   -5.60 KCAL/MOL
REMARK 922        TOTAL FREE ENERGY PREDICTED BY IDOCK:  -12.07 KCAL/MOL
REMARK 923 INTER-LIGAND FREE ENERGY PREDICTED BY IDOCK:  -10.12 KCAL/MOL
REMARK 924 INTRA-LIGAND FREE ENERGY PREDICTED BY IDOCK:   -1.95 KCAL/MOL
REMARK 927      BINDING AFFINITY PREDICTED BY RF-SCORE:    0.00 PKD
ROOT
HETATM    1  C   UNL     1     -10.116  11.738  63.085  1.00  0.00    -0.386 C  
HETATM    2  C   UNL     1     -11.157  12.579  63.816  1.00  0.00    -0.448 C  
HETATM    3  C   UNL     1     -12.567  12.110  63.473  1.00  0.00    -0.621 C  
ENDROOT
BRANCH   2   4
HETATM    4  O   UNL     1     -10.982  12.424  65.236  1.00  0.00    -0.283 OA 
BRANCH   4   5
HETATM    5  C   UNL     1     -10.249  13.406  65.834  1.00  0.00    -0.299 C  
HETATM    6  O   UNL     1      -9.117  13.267  66.275  1.00  0.00    -0.126 OA 
BRANCH   5   7
HETATM    7  C   UNL     1     -11.056  14.675  65.929  1.00  0.00    -0.338 C  
BRANCH   7   8
HETATM    8  C   UNL     1     -10.149  15.884  65.702  1.00  0.00    -0.388 C  
BRANCH   8   9
HETATM    9  C   UNL     1      -9.996  16.772  66.934  1.00  0.00    -0.274 C  
BRANCH   9  10
HETATM   10  C   UNL     1      -9.086  16.175  67.973  1.00  0.00    -0.190 C  
HETATM   11  C   UNL     1      -9.425  15.868  69.235  1.00  0.00    -0.260 C  
BRANCH  11  12
HETATM   12  C   UNL     1     -10.760  16.133  69.874  1.00  0.00    -0.328 C  
BRANCH  12  13
HETATM   13  C   UNL     1     -11.180  15.039  70.866  1.00  0.00    -0.268 C  
HETATM   14  C   UNL     1     -11.342  15.494  72.321  1.00  0.00    -0.304 C  
HETATM   15  O   UNL     1     -11.924  16.791  72.406  1.00  0.00    -0.554 OA 
HETATM   16  C   UNL     1     -12.317  14.485  72.916  1.00  0.00    -0.259 C  
HETATM   17  C   UNL     1     -13.332  14.260  71.799  1.00  0.00    -0.371 C  
HETATM   18  H   UNL     1     -12.025  17.073  73.308  1.00  0.00     0.000 HD 
HETATM   19  O   UNL     1     -14.357  15.256  71.871  1.00  0.00    -0.523 OA 
HETATM   20  C   UNL     1     -12.548  14.413  70.473  1.00  0.00    -0.417 C  
HETATM   21  H   UNL     1     -14.988  15.116  71.175  1.00  0.00     0.000 HD 
BRANCH  20  22
HETATM   22  C   UNL     1     -12.313  13.154  69.658  1.00  0.00    -0.129 C  
HETATM   23  C   UNL     1     -11.884  11.967  70.127  1.00  0.00    -0.390 C  
BRANCH  23  24
HETATM   24  C   UNL     1     -11.591  10.720  69.321  1.00  0.00    -0.305 C  
HETATM   25  H   UNL     1     -10.434  10.229  67.817  1.00  0.00     0.000 HD 
HETATM   26  O   UNL     1     -10.618  11.012  68.323  1.00  0.00    -0.170 OA 
BRANCH  24  27
HETATM   27  C   UNL     1     -11.082   9.593  70.243  1.00  0.00    -0.276 C  
BRANCH  27  28
HETATM   28  O   UNL     1     -10.566   8.490  69.480  1.00  0.00    -0.224 OA 
BRANCH  28  29
HETATM   29  C   UNL     1     -10.386   7.339  70.205  1.00  0.00    -0.210 A  
HETATM   30  C   UNL     1     -10.627   6.054  69.712  1.00  0.00    -0.356 A  
HETATM   31  C   UNL     1     -10.403   4.936  70.519  1.00  0.00    -0.242 A  
HETATM   32  C   UNL     1      -9.930   5.097  71.820  1.00  0.00    -0.244 A  
HETATM   33  C   UNL     1      -9.669   6.375  72.328  1.00  0.00    -0.158 A  
HETATM   34  C   UNL     1      -9.158   6.551  73.736  1.00  0.00    -0.136 C  
HETATM   35  C   UNL     1      -9.889   7.494  71.504  1.00  0.00    -0.185 A  
HETATM   36  F   UNL     1      -9.039   5.376  74.419  1.00  0.00    -0.116 F  
HETATM   37  F   UNL     1      -9.972   7.336  74.494  1.00  0.00    -0.237 F  
HETATM   38  F   UNL     1      -7.927   7.130  73.782  1.00  0.00    -0.108 F  
ENDBRANCH  28  29
ENDBRANCH  27  28
ENDBRANCH  24  27
ENDBRANCH  23  24
ENDBRANCH  20  22
ENDBRANCH  12  13
ENDBRANCH  11  12
ENDBRANCH   9  10
ENDBRANCH   8   9
ENDBRANCH   7   8
ENDBRANCH   5   7
ENDBRANCH   4   5
ENDBRANCH   2   4
TORSDOF 13
ENDMDL
MODEL      137
REMARK 921   NORMALIZED FREE ENERGY PREDICTED BY IDOCK:   -5.60 KCAL/MOL
REMARK 922        TOTAL FREE ENERGY PREDICTED BY IDOCK:  -12.07 KCAL/MOL
REMARK 923 INTER-LIGAND FREE ENERGY PREDICTED BY IDOCK:   -8.29 KCAL/MOL
REMARK 924 INTRA-LIGAND FREE ENERGY PREDICTED BY IDOCK:   -3.79 KCAL/MOL
REMARK 927      BINDING AFFINITY PREDICTED BY RF-SCORE:    0.00 PKD
ROOT
HETATM    1  C   UNL     1     -10.652  16.507  67.516  1.00  0.00    -0.313 C  
HETATM    2  C   UNL     1     -11.227  15.702  66.355  1.00  0.00    -0.038 C  
HETATM    3  C   UNL     1     -10.183  15.516  65.258  1.00  0.00    -0.380 C  
ENDROOT
BRANCH   2   4
HETATM    4  O   UNL     1     -11.602  14.394  66.823  1.00  0.00    -0.356 OA 
BRANCH   4   5
HETATM    5  C   UNL     1     -12.284  13.635  65.920  1.00  0.00    -0.461 C  
HETATM    6  O   UNL     1     -13.204  14.035  65.220  1.00  0.00    -0.782 OA 
BRANCH   5   7
HETATM    7  C   UNL     1     -11.785  12.215  65.948  1.00  0.00    -0.393 C  
BRANCH   7   8
HETATM    8  C   UNL     1     -10.685  12.030  64.903  1.00  0.00    -0.346 C  
BRANCH   8   9
HETATM    9  C   UNL     1     -10.245  10.580  64.729  1.00  0.00    -0.373 C  
BRANCH   9  10
HETATM   10  C   UNL     1      -9.070  10.219  65.597  1.00  0.00    -0.208 C  
HETATM   11  C   UNL     1      -9.133   9.640  66.806  1.00  0.00    -0.171 C  
BRANCH  11  12
HETATM   12  C   UNL     1     -10.392   9.311  67.559  1.00  0.00    -0.323 C  
BRANCH  12  13
HETATM   13  C   UNL     1     -10.312   9.664  69.050  1.00  0.00    -0.218 C  
HETATM   14  C   UNL     1     -11.288  10.745  69.527  1.00  0.00    -0.289 C  
HETATM   15  O   UNL     1     -12.558  10.625  68.894  1.00  0.00    -0.742 OA 
HETATM   16  C   UNL     1     -11.459  10.457  71.014  1.00  0.00    -0.304 C  
HETATM   17  C   UNL     1     -11.511   8.934  71.085  1.00  0.00    -0.301 C  
HETATM   18  H   UNL     1     -13.163  11.296  69.190  1.00  0.00     0.000 HD 
HETATM   19  O   UNL     1     -12.853   8.487  70.869  1.00  0.00    -0.500 OA 
HETATM   20  C   UNL     1     -10.601   8.423  69.942  1.00  0.00    -0.228 C  
HETATM   21  H   UNL     1     -12.885   7.538  70.912  1.00  0.00     0.000 HD 
BRANCH  20  22
HETATM   22  C   UNL     1      -9.289   7.770  70.341  1.00  0.00    -0.160 C  
HETATM   23  C   UNL     1      -8.169   7.705  69.597  1.00  0.00    -0.128 C  
BRANCH  23  24
HETATM   24  C   UNL     1      -6.874   7.010  69.957  1.00  0.00    -0.057 C  
HETATM   25  H   UNL     1      -5.887   5.426  69.357  1.00  0.00     0.000 HD 
HETATM   26  O   UNL     1      -6.700   5.863  69.131  1.00  0.00    -0.055 OA 
BRANCH  24  27
HETATM   27  C   UNL     1      -5.682   7.974  69.782  1.00  0.00    -0.023 C  
BRANCH  27  28
HETATM   28  O   UNL     1      -6.048   9.320  70.127  1.00  0.00    -0.033 OA 
BRANCH  28  29
HETATM   29  C   UNL     1      -6.012  10.200  69.075  1.00  0.00    -0.037 A  
HETATM   30  C   UNL     1      -5.148  10.085  67.983  1.00  0.00    -0.035 A  
HETATM   31  C   UNL     1      -5.190  11.023  66.948  1.00  0.00    -0.065 A  
HETATM   32  C   UNL     1      -6.101  12.075  66.997  1.00  0.00    -0.132 A  
HETATM   33  C   UNL     1      -6.986  12.200  68.075  1.00  0.00    -0.090 A  
HETATM   34  C   UNL     1      -7.973  13.340  68.129  1.00  0.00    -0.150 C  
HETATM   35  C   UNL     1      -6.941  11.246  69.107  1.00  0.00    -0.114 A  
HETATM   36  F   UNL     1      -7.861  14.203  67.078  1.00  0.00    -0.187 F  
HETATM   37  F   UNL     1      -7.830  14.103  69.248  1.00  0.00    -0.106 F  
HETATM   38  F   UNL     1      -9.266  12.918  68.123  1.00  0.00    -0.188 F  
ENDBRANCH  28  29
ENDBRANCH  27  28
ENDBRANCH  24  27
ENDBRANCH  23  24
ENDBRANCH  20  22
ENDBRANCH  12  13
ENDBRANCH  11  12
ENDBRANCH   9  10
ENDBRANCH   8   9
ENDBRANCH   7   8
ENDBRANCH   5   7
ENDBRANCH   4   5
ENDBRANCH   2   4
TORSDOF 13
ENDMDL
MODEL      138
REMARK 921   NORMALIZED FREE ENERGY PREDICTED BY IDOCK:   -5.59 KCAL/MOL
REMARK 922        TOTAL FREE ENERGY PREDICTED BY IDOCK:  -12.05 KCAL/MOL
REMARK 923 INTER-LIGAND FREE ENERGY PREDICTED BY IDOCK:   -8.53 KCAL/MOL
REMARK 924 INTRA-LIGAND FREE ENERGY PREDICTED BY IDOCK:   -3.52 KCAL/MOL
REMARK 927      BINDING AFFINITY PREDICTED BY RF-SCORE:    0.00 PKD
ROOT
HETATM    1  C   UNL     1     -12.639  13.721  65.935  1.00  0.00    -0.494 C  
HETATM    2  C   UNL     1     -11.520  12.775  66.356  1.00  0.00    -0.357 C  
HETATM    3  C   UNL     1     -11.800  12.186  67.735  1.00  0.00    -0.327 C  
ENDROOT
BRANCH   2   4
HETATM    4  O   UNL     1     -11.447  11.681  65.424  1.00  0.00    -0.231 OA 
BRANCH   4   5
HETATM    5  C   UNL     1     -10.496  11.813  64.456  1.00  0.00    -0.304 C  
HETATM    6  O   UNL     1     -10.329  12.811  63.768  1.00  0.00    -0.402 OA 
BRANCH   5   7
HETATM    7  C   UNL     1      -9.716  10.533  64.313  1.00  0.00    -0.391 C  
BRANCH   7   8
HETATM    8  C   UNL     1      -9.281  10.033  65.690  1.00  0.00    -0.234 C  
BRANCH   8   9
HETATM    9  C   UNL     1      -9.284   8.512  65.816  1.00  0.00    -0.210 C  
BRANCH   9  10
HETATM   10  C   UNL     1      -8.046   7.980  66.483  1.00  0.00    -0.103 C  
HETATM   11  C   UNL     1      -7.997   7.354  67.670  1.00  0.00    -0.114 C  
BRANCH  11  12
HETATM   12  C   UNL     1      -9.162   7.135  68.595  1.00  0.00    -0.135 C  
BRANCH  12  13
HETATM   13  C   UNL     1      -9.801   8.444  69.079  1.00  0.00    -0.184 C  
HETATM   14  C   UNL     1     -11.276   8.347  69.486  1.00  0.00     0.163 C  
HETATM   15  O   UNL     1     -11.557   7.127  70.164  1.00  0.00    -0.457 OA 
HETATM   16  C   UNL     1     -11.464   9.500  70.465  1.00  0.00    -0.337 C  
HETATM   17  C   UNL     1     -10.177   9.493  71.285  1.00  0.00    -0.175 C  
HETATM   18  H   UNL     1     -12.471   7.068  70.416  1.00  0.00     0.000 HD 
HETATM   19  O   UNL     1     -10.307   8.576  72.377  1.00  0.00    -0.320 OA 
HETATM   20  C   UNL     1      -9.063   9.006  70.327  1.00  0.00    -0.227 C  
HETATM   21  H   UNL     1      -9.505   8.571  72.887  1.00  0.00     0.000 HD 
BRANCH  20  22
HETATM   22  C   UNL     1      -8.034  10.032  69.886  1.00  0.00    -0.184 C  
HETATM   23  C   UNL     1      -8.156  10.900  68.865  1.00  0.00    -0.144 C  
BRANCH  23  24
HETATM   24  C   UNL     1      -7.118  11.888  68.378  1.00  0.00    -0.086 C  
HETATM   25  H   UNL     1      -5.452  11.820  67.347  1.00  0.00     0.000 HD 
HETATM   26  O   UNL     1      -6.104  11.200  67.653  1.00  0.00    -0.047 OA 
BRANCH  24  27
HETATM   27  C   UNL     1      -7.776  12.958  67.482  1.00  0.00    -0.174 C  
BRANCH  27  28
HETATM   28  O   UNL     1      -7.661  14.266  68.066  1.00  0.00    -0.115 OA 
BRANCH  28  29
HETATM   29  C   UNL     1      -8.849  14.947  68.161  1.00  0.00    -0.174 A  
HETATM   30  C   UNL     1      -9.326  15.833  67.193  1.00  0.00    -0.224 A  
HETATM   31  C   UNL     1     -10.556  16.473  67.368  1.00  0.00    -0.300 A  
HETATM   32  C   UNL     1     -11.317  16.223  68.508  1.00  0.00    -0.330 A  
HETATM   33  C   UNL     1     -10.863  15.327  69.483  1.00  0.00    -0.275 A  
HETATM   34  C   UNL     1     -11.686  15.056  70.718  1.00  0.00    -0.320 C  
HETATM   35  C   UNL     1      -9.627  14.681  69.293  1.00  0.00    -0.018 A  
HETATM   36  F   UNL     1     -12.833  15.792  70.776  1.00  0.00    -0.469 F  
HETATM   37  F   UNL     1     -11.011  15.337  71.868  1.00  0.00    -0.459 F  
HETATM   38  F   UNL     1     -12.075  13.756  70.817  1.00  0.00    -0.374 F  
ENDBRANCH  28  29
ENDBRANCH  27  28
ENDBRANCH  24  27
ENDBRANCH  23  24
ENDBRANCH  20  22
ENDBRANCH  12  13
ENDBRANCH  11  12
ENDBRANCH   9  10
ENDBRANCH   8   9
ENDBRANCH   7   8
ENDBRANCH   5   7
ENDBRANCH   4   5
ENDBRANCH   2   4
TORSDOF 13
ENDMDL
MODEL      139
REMARK 921   NORMALIZED FREE ENERGY PREDICTED BY IDOCK:   -5.58 KCAL/MOL
REMARK 922        TOTAL FREE ENERGY PREDICTED BY IDOCK:  -12.04 KCAL/MOL
REMARK 923 INTER-LIGAND FREE ENERGY PREDICTED BY IDOCK:  -10.36 KCAL/MOL
REMARK 924 INTRA-LIGAND FREE ENERGY PREDICTED BY IDOCK:   -1.68 KCAL/MOL
REMARK 927      BINDING AFFINITY PREDICTED BY RF-SCORE:    0.00 PKD
ROOT
HETATM    1  C   UNL     1     -10.069  20.080  68.201  1.00  0.00    -0.547 C  
HETATM    2  C   UNL     1     -10.165  19.028  67.102  1.00  0.00    -0.388 C  
HETATM    3  C   UNL     1     -10.650  19.652  65.798  1.00  0.00    -0.537 C  
ENDROOT
BRANCH   2   4
HETATM    4  O   UNL     1      -8.859  18.475  66.858  1.00  0.00    -0.267 OA 
BRANCH   4   5
HETATM    5  C   UNL     1      -8.031  18.460  67.941  1.00  0.00    -0.258 C  
HETATM    6  O   UNL     1      -7.211  19.328  68.210  1.00  0.00    -0.261 OA 
BRANCH   5   7
HETATM    7  C   UNL     1      -8.226  17.193  68.730  1.00  0.00    -0.238 C  
BRANCH   7   8
HETATM    8  C   UNL     1      -8.161  15.984  67.796  1.00  0.00    -0.159 C  
BRANCH   8   9
HETATM    9  C   UNL     1      -8.237  14.646  68.524  1.00  0.00    -0.152 C  
BRANCH   9  10
HETATM   10  C   UNL     1      -7.764  13.495  67.679  1.00  0.00    -0.180 C  
HETATM   11  C   UNL     1      -8.488  12.416  67.340  1.00  0.00    -0.179 C  
BRANCH  11  12
HETATM   12  C   UNL     1      -9.885  12.115  67.807  1.00  0.00    -0.199 C  
BRANCH  12  13
HETATM   13  C   UNL     1     -10.843  11.774  66.657  1.00  0.00    -0.318 C  
HETATM   14  C   UNL     1     -11.844  12.874  66.284  1.00  0.00    -0.416 C  
HETATM   15  O   UNL     1     -11.258  14.169  66.359  1.00  0.00    -0.315 OA 
HETATM   16  C   UNL     1     -12.188  12.581  64.829  1.00  0.00    -0.532 C  
HETATM   17  C   UNL     1     -10.853  12.168  64.217  1.00  0.00    -0.341 C  
HETATM   18  H   UNL     1     -11.879  14.850  66.128  1.00  0.00     0.000 HD 
HETATM   19  O   UNL     1     -10.138  13.332  63.789  1.00  0.00    -0.712 OA 
HETATM   20  C   UNL     1     -10.066  11.461  65.347  1.00  0.00    -0.308 C  
HETATM   21  H   UNL     1      -9.307  13.075  63.408  1.00  0.00     0.000 HD 
BRANCH  20  22
HETATM   22  C   UNL     1      -9.872   9.960  65.221  1.00  0.00    -0.373 C  
HETATM   23  C   UNL     1      -8.751   9.272  65.503  1.00  0.00    -0.204 C  
BRANCH  23  24
HETATM   24  C   UNL     1      -8.524   7.785  65.329  1.00  0.00    -0.084 C  
HETATM   25  H   UNL     1      -7.304   6.635  64.314  1.00  0.00     0.000 HD 
HETATM   26  O   UNL     1      -7.446   7.568  64.424  1.00  0.00    -0.082 OA 
BRANCH  24  27
HETATM   27  C   UNL     1      -8.214   7.128  66.689  1.00  0.00    -0.112 C  
BRANCH  27  28
HETATM   28  O   UNL     1      -8.494   8.026  67.776  1.00  0.00    -0.126 OA 
BRANCH  28  29
HETATM   29  C   UNL     1      -9.506   7.609  68.604  1.00  0.00    -0.151 A  
HETATM   30  C   UNL     1     -10.274   6.462  68.391  1.00  0.00    -0.198 A  
HETATM   31  C   UNL     1     -11.277   6.107  69.296  1.00  0.00    -0.438 A  
HETATM   32  C   UNL     1     -11.512   6.893  70.422  1.00  0.00    -0.387 A  
HETATM   33  C   UNL     1     -10.743   8.038  70.662  1.00  0.00    -0.235 A  
HETATM   34  C   UNL     1     -10.996   8.891  71.880  1.00  0.00    -0.369 C  
HETATM   35  C   UNL     1      -9.729   8.382  69.748  1.00  0.00    -0.180 A  
HETATM   36  F   UNL     1     -12.040   8.450  72.641  1.00  0.00    -0.427 F  
HETATM   37  F   UNL     1     -11.292  10.182  71.563  1.00  0.00    -0.411 F  
HETATM   38  F   UNL     1      -9.925   8.944  72.718  1.00  0.00    -0.273 F  
ENDBRANCH  28  29
ENDBRANCH  27  28
ENDBRANCH  24  27
ENDBRANCH  23  24
ENDBRANCH  20  22
ENDBRANCH  12  13
ENDBRANCH  11  12
ENDBRANCH   9  10
ENDBRANCH   8   9
ENDBRANCH   7   8
ENDBRANCH   5   7
ENDBRANCH   4   5
ENDBRANCH   2   4
TORSDOF 13
ENDMDL
MODEL      140
REMARK 921   NORMALIZED FREE ENERGY PREDICTED BY IDOCK:   -5.58 KCAL/MOL
REMARK 922        TOTAL FREE ENERGY PREDICTED BY IDOCK:  -12.04 KCAL/MOL
REMARK 923 INTER-LIGAND FREE ENERGY PREDICTED BY IDOCK:   -8.70 KCAL/MOL
REMARK 924 INTRA-LIGAND FREE ENERGY PREDICTED BY IDOCK:   -3.34 KCAL/MOL
REMARK 927      BINDING AFFINITY PREDICTED BY RF-SCORE:    0.00 PKD
ROOT
HETATM    1  C   UNL     1     -10.768   4.242  73.350  1.00  0.00    -0.310 C  
HETATM    2  C   UNL     1     -11.217   5.625  72.891  1.00  0.00    -0.290 C  
HETATM    3  C   UNL     1     -10.829   6.687  73.915  1.00  0.00     0.012 C  
ENDROOT
BRANCH   2   4
HETATM    4  O   UNL     1     -10.558   5.953  71.655  1.00  0.00    -0.225 OA 
BRANCH   4   5
HETATM    5  C   UNL     1     -11.321   6.648  70.764  1.00  0.00    -0.336 C  
HETATM    6  O   UNL     1     -12.545   6.655  70.743  1.00  0.00    -0.261 OA 
BRANCH   5   7
HETATM    7  C   UNL     1     -10.444   7.359  69.768  1.00  0.00    -0.235 C  
BRANCH   7   8
HETATM    8  C   UNL     1      -9.553   8.370  70.491  1.00  0.00    -0.188 C  
BRANCH   8   9
HETATM    9  C   UNL     1     -10.142   9.777  70.539  1.00  0.00    -0.289 C  
BRANCH   9  10
HETATM   10  C   UNL     1     -11.502   9.861  69.901  1.00  0.00    -0.234 C  
HETATM   11  C   UNL     1     -12.467  10.740  70.217  1.00  0.00    -0.395 C  
BRANCH  11  12
HETATM   12  C   UNL     1     -12.401  11.757  71.322  1.00  0.00    -0.250 C  
BRANCH  12  13
HETATM   13  C   UNL     1     -13.193  13.034  71.012  1.00  0.00     0.011 C  
HETATM   14  C   UNL     1     -13.850  13.713  72.220  1.00  0.00    -0.590 C  
HETATM   15  O   UNL     1     -13.018  13.656  73.374  1.00  0.00    -0.184 OA 
HETATM   16  C   UNL     1     -13.989  15.170  71.794  1.00  0.00    -0.627 C  
HETATM   17  C   UNL     1     -12.690  15.454  71.047  1.00  0.00    -0.448 C  
HETATM   18  H   UNL     1     -13.426  14.077  74.122  1.00  0.00     0.000 HD 
HETATM   19  O   UNL     1     -11.675  15.848  71.977  1.00  0.00    -0.426 OA 
HETATM   20  C   UNL     1     -12.286  14.121  70.370  1.00  0.00    -0.427 C  
HETATM   21  H   UNL     1     -10.866  16.024  71.512  1.00  0.00     0.000 HD 
BRANCH  20  22
HETATM   22  C   UNL     1     -12.405  14.050  68.858  1.00  0.00    -0.106 C  
HETATM   23  C   UNL     1     -11.401  14.175  67.970  1.00  0.00    -0.324 C  
BRANCH  23  24
HETATM   24  C   UNL     1     -11.511  14.163  66.460  1.00  0.00    -0.358 C  
HETATM   25  H   UNL     1     -11.132  15.402  64.990  1.00  0.00     0.000 HD 
HETATM   26  O   UNL     1     -11.062  15.409  65.937  1.00  0.00    -0.321 OA 
BRANCH  24  27
HETATM   27  C   UNL     1     -10.673  13.009  65.871  1.00  0.00    -0.276 C  
BRANCH  27  28
HETATM   28  O   UNL     1     -11.146  11.734  66.335  1.00  0.00    -0.287 OA 
BRANCH  28  29
HETATM   29  C   UNL     1     -10.150  10.846  66.654  1.00  0.00    -0.219 A  
HETATM   30  C   UNL     1     -10.169   9.490  66.316  1.00  0.00    -0.290 A  
HETATM   31  C   UNL     1      -9.102   8.660  66.672  1.00  0.00    -0.203 A  
HETATM   32  C   UNL     1      -8.009   9.184  67.359  1.00  0.00    -0.103 A  
HETATM   33  C   UNL     1      -7.965  10.543  67.693  1.00  0.00    -0.106 A  
HETATM   34  C   UNL     1      -6.782  11.111  68.438  1.00  0.00    -0.060 C  
HETATM   35  C   UNL     1      -9.040  11.371  67.323  1.00  0.00    -0.162 A  
HETATM   36  F   UNL     1      -5.846  10.173  68.763  1.00  0.00    -0.039 F  
HETATM   37  F   UNL     1      -7.138  11.698  69.614  1.00  0.00    -0.100 F  
HETATM   38  F   UNL     1      -6.119  12.063  67.727  1.00  0.00    -0.054 F  
ENDBRANCH  28  29
ENDBRANCH  27  28
ENDBRANCH  24  27
ENDBRANCH  23  24
ENDBRANCH  20  22
ENDBRANCH  12  13
ENDBRANCH  11  12
ENDBRANCH   9  10
ENDBRANCH   8   9
ENDBRANCH   7   8
ENDBRANCH   5   7
ENDBRANCH   4   5
ENDBRANCH   2   4
TORSDOF 13
ENDMDL
MODEL      141
REMARK 921   NORMALIZED FREE ENERGY PREDICTED BY IDOCK:   -5.58 KCAL/MOL
REMARK 922        TOTAL FREE ENERGY PREDICTED BY IDOCK:  -12.03 KCAL/MOL
REMARK 923 INTER-LIGAND FREE ENERGY PREDICTED BY IDOCK:   -9.61 KCAL/MOL
REMARK 924 INTRA-LIGAND FREE ENERGY PREDICTED BY IDOCK:   -2.42 KCAL/MOL
REMARK 927      BINDING AFFINITY PREDICTED BY RF-SCORE:    0.00 PKD
ROOT
HETATM    1  C   UNL     1      -8.959   5.382  73.521  1.00  0.00    -0.125 C  
HETATM    2  C   UNL     1     -10.376   5.389  72.959  1.00  0.00    -0.197 C  
HETATM    3  C   UNL     1     -11.204   4.261  73.566  1.00  0.00    -0.361 C  
ENDROOT
BRANCH   2   4
HETATM    4  O   UNL     1     -11.018   6.631  73.303  1.00  0.00    -0.267 OA 
BRANCH   4   5
HETATM    5  C   UNL     1     -11.745   7.198  72.299  1.00  0.00    -0.258 C  
HETATM    6  O   UNL     1     -12.671   6.656  71.710  1.00  0.00    -0.350 OA 
BRANCH   5   7
HETATM    7  C   UNL     1     -11.209   8.567  71.976  1.00  0.00    -0.418 C  
BRANCH   7   8
HETATM    8  C   UNL     1     -11.953   9.145  70.772  1.00  0.00    -0.243 C  
BRANCH   8   9
HETATM    9  C   UNL     1     -11.307  10.404  70.202  1.00  0.00    -0.397 C  
BRANCH   9  10
HETATM   10  C   UNL     1      -9.921  10.158  69.670  1.00  0.00    -0.262 C  
HETATM   11  C   UNL     1      -9.555  10.193  68.379  1.00  0.00    -0.150 C  
BRANCH  11  12
HETATM   12  C   UNL     1     -10.477  10.408  67.211  1.00  0.00    -0.304 C  
BRANCH  12  13
HETATM   13  C   UNL     1     -10.447  11.847  66.678  1.00  0.00    -0.250 C  
HETATM   14  C   UNL     1     -10.149  11.990  65.180  1.00  0.00    -0.266 C  
HETATM   15  O   UNL     1     -10.774  10.963  64.418  1.00  0.00    -0.340 OA 
HETATM   16  C   UNL     1     -10.781  13.326  64.806  1.00  0.00    -0.393 C  
HETATM   17  C   UNL     1     -12.089  13.341  65.591  1.00  0.00    -0.441 C  
HETATM   18  H   UNL     1     -10.589  11.053  63.490  1.00  0.00     0.000 HD 
HETATM   19  O   UNL     1     -13.109  12.675  64.840  1.00  0.00    -0.850 OA 
HETATM   20  C   UNL     1     -11.811  12.560  66.898  1.00  0.00    -0.404 C  
HETATM   21  H   UNL     1     -13.924  12.684  65.329  1.00  0.00     0.000 HD 
BRANCH  20  22
HETATM   22  C   UNL     1     -11.759  13.364  68.186  1.00  0.00    -0.397 C  
HETATM   23  C   UNL     1     -12.189  14.628  68.358  1.00  0.00    -0.129 C  
BRANCH  23  24
HETATM   24  C   UNL     1     -12.093  15.461  69.618  1.00  0.00    -0.327 C  
HETATM   25  H   UNL     1     -12.411  15.196  71.534  1.00  0.00     0.000 HD 
HETATM   26  O   UNL     1     -12.470  14.673  70.743  1.00  0.00    -0.299 OA 
BRANCH  24  27
HETATM   27  C   UNL     1     -10.657  15.992  69.801  1.00  0.00    -0.323 C  
BRANCH  27  28
HETATM   28  O   UNL     1     -10.322  16.949  68.782  1.00  0.00    -0.282 OA 
BRANCH  28  29
HETATM   29  C   UNL     1      -9.050  16.821  68.285  1.00  0.00    -0.228 A  
HETATM   30  C   UNL     1      -8.309  17.873  67.742  1.00  0.00    -0.241 A  
HETATM   31  C   UNL     1      -7.012  17.653  67.271  1.00  0.00    -0.189 A  
HETATM   32  C   UNL     1      -6.447  16.382  67.349  1.00  0.00    -0.206 A  
HETATM   33  C   UNL     1      -7.167  15.317  67.904  1.00  0.00    -0.158 A  
HETATM   34  C   UNL     1      -6.557  13.940  67.988  1.00  0.00    -0.143 C  
HETATM   35  C   UNL     1      -8.469  15.552  68.383  1.00  0.00    -0.163 A  
HETATM   36  F   UNL     1      -5.309  13.867  67.441  1.00  0.00    -0.035 F  
HETATM   37  F   UNL     1      -7.298  12.999  67.339  1.00  0.00    -0.124 F  
HETATM   38  F   UNL     1      -6.426  13.499  69.268  1.00  0.00    -0.091 F  
ENDBRANCH  28  29
ENDBRANCH  27  28
ENDBRANCH  24  27
ENDBRANCH  23  24
ENDBRANCH  20  22
ENDBRANCH  12  13
ENDBRANCH  11  12
ENDBRANCH   9  10
ENDBRANCH   8   9
ENDBRANCH   7   8
ENDBRANCH   5   7
ENDBRANCH   4   5
ENDBRANCH   2   4
TORSDOF 13
ENDMDL
MODEL      142
REMARK 921   NORMALIZED FREE ENERGY PREDICTED BY IDOCK:   -5.56 KCAL/MOL
REMARK 922        TOTAL FREE ENERGY PREDICTED BY IDOCK:  -12.01 KCAL/MOL
REMARK 923 INTER-LIGAND FREE ENERGY PREDICTED BY IDOCK:   -8.88 KCAL/MOL
REMARK 924 INTRA-LIGAND FREE ENERGY PREDICTED BY IDOCK:   -3.14 KCAL/MOL
REMARK 927      BINDING AFFINITY PREDICTED BY RF-SCORE:    0.00 PKD
ROOT
HETATM    1  C   UNL     1     -11.088   9.166  71.502  1.00  0.00    -0.436 C  
HETATM    2  C   UNL     1     -11.984  10.160  70.772  1.00  0.00    -0.348 C  
HETATM    3  C   UNL     1     -12.997  10.779  71.730  1.00  0.00    -0.568 C  
ENDROOT
BRANCH   2   4
HETATM    4  O   UNL     1     -11.177  11.229  70.244  1.00  0.00    -0.191 OA 
BRANCH   4   5
HETATM    5  C   UNL     1     -11.451  11.571  68.953  1.00  0.00    -0.289 C  
HETATM    6  O   UNL     1     -12.163  10.929  68.193  1.00  0.00    -0.503 OA 
BRANCH   5   7
HETATM    7  C   UNL     1     -10.704  12.822  68.575  1.00  0.00    -0.275 C  
BRANCH   7   8
HETATM    8  C   UNL     1     -11.191  13.327  67.217  1.00  0.00    -0.320 C  
BRANCH   8   9
HETATM    9  C   UNL     1     -10.229  13.022  66.073  1.00  0.00    -0.292 C  
BRANCH   9  10
HETATM   10  C   UNL     1     -10.848  12.164  65.003  1.00  0.00    -0.344 C  
HETATM   11  C   UNL     1     -10.450  10.931  64.653  1.00  0.00    -0.384 C  
BRANCH  11  12
HETATM   12  C   UNL     1      -9.259  10.202  65.210  1.00  0.00    -0.257 C  
BRANCH  12  13
HETATM   13  C   UNL     1      -9.455   9.752  66.665  1.00  0.00    -0.220 C  
HETATM   14  C   UNL     1     -10.217   8.435  66.852  1.00  0.00    -0.313 C  
HETATM   15  O   UNL     1      -9.871   7.480  65.854  1.00  0.00    -0.401 OA 
HETATM   16  C   UNL     1      -9.736   7.920  68.203  1.00  0.00    -0.177 C  
HETATM   17  C   UNL     1      -8.245   8.245  68.205  1.00  0.00    -0.128 C  
HETATM   18  H   UNL     1     -10.343   6.663  65.970  1.00  0.00     0.000 HD 
HETATM   19  O   UNL     1      -7.520   7.187  67.571  1.00  0.00    -0.096 OA 
HETATM   20  C   UNL     1      -8.091   9.548  67.382  1.00  0.00    -0.110 C  
HETATM   21  H   UNL     1      -6.592   7.389  67.572  1.00  0.00     0.000 HD 
BRANCH  20  22
HETATM   22  C   UNL     1      -7.726  10.809  68.145  1.00  0.00    -0.102 C  
HETATM   23  C   UNL     1      -7.085  11.885  67.652  1.00  0.00    -0.112 C  
BRANCH  23  24
HETATM   24  C   UNL     1      -6.665  13.124  68.412  1.00  0.00    -0.095 C  
HETATM   25  H   UNL     1      -4.988  14.059  68.806  1.00  0.00     0.000 HD 
HETATM   26  O   UNL     1      -5.251  13.280  68.329  1.00  0.00    -0.078 OA 
BRANCH  24  27
HETATM   27  C   UNL     1      -7.370  14.370  67.838  1.00  0.00    -0.154 C  
BRANCH  27  28
HETATM   28  O   UNL     1      -7.301  15.475  68.753  1.00  0.00    -0.126 OA 
BRANCH  28  29
HETATM   29  C   UNL     1      -8.483  16.153  68.908  1.00  0.00    -0.241 A  
HETATM   30  C   UNL     1      -8.810  17.328  68.227  1.00  0.00    -0.258 A  
HETATM   31  C   UNL     1     -10.046  17.945  68.438  1.00  0.00    -0.385 A  
HETATM   32  C   UNL     1     -10.964  17.385  69.324  1.00  0.00     0.367 A  
HETATM   33  C   UNL     1     -10.661  16.200  70.005  1.00  0.00    -0.318 A  
HETATM   34  C   UNL     1     -11.654  15.593  70.966  1.00  0.00    -0.392 C  
HETATM   35  C   UNL     1      -9.417  15.582  69.779  1.00  0.00    -0.178 A  
HETATM   36  F   UNL     1     -12.791  16.333  71.108  1.00  0.00    -0.371 F  
HETATM   37  F   UNL     1     -11.147  15.453  72.222  1.00  0.00    -0.471 F  
HETATM   38  F   UNL     1     -12.066  14.353  70.585  1.00  0.00    -0.313 F  
ENDBRANCH  28  29
ENDBRANCH  27  28
ENDBRANCH  24  27
ENDBRANCH  23  24
ENDBRANCH  20  22
ENDBRANCH  12  13
ENDBRANCH  11  12
ENDBRANCH   9  10
ENDBRANCH   8   9
ENDBRANCH   7   8
ENDBRANCH   5   7
ENDBRANCH   4   5
ENDBRANCH   2   4
TORSDOF 13
ENDMDL
MODEL      143
REMARK 921   NORMALIZED FREE ENERGY PREDICTED BY IDOCK:   -5.56 KCAL/MOL
REMARK 922        TOTAL FREE ENERGY PREDICTED BY IDOCK:  -12.00 KCAL/MOL
REMARK 923 INTER-LIGAND FREE ENERGY PREDICTED BY IDOCK:   -8.73 KCAL/MOL
REMARK 924 INTRA-LIGAND FREE ENERGY PREDICTED BY IDOCK:   -3.27 KCAL/MOL
REMARK 927      BINDING AFFINITY PREDICTED BY RF-SCORE:    0.00 PKD
ROOT
HETATM    1  C   UNL     1     -11.898  13.197  63.924  1.00  0.00    -0.533 C  
HETATM    2  C   UNL     1     -11.565  14.286  64.938  1.00  0.00    -0.384 C  
HETATM    3  C   UNL     1     -11.632  15.666  64.291  1.00  0.00    -0.191 C  
ENDROOT
BRANCH   2   4
HETATM    4  O   UNL     1     -12.535  14.258  66.001  1.00  0.00    -0.442 OA 
BRANCH   4   5
HETATM    5  C   UNL     1     -12.012  14.329  67.257  1.00  0.00    -0.405 C  
HETATM    6  O   UNL     1     -11.637  15.357  67.804  1.00  0.00    -0.322 OA 
BRANCH   5   7
HETATM    7  C   UNL     1     -11.905  12.952  67.857  1.00  0.00    -0.388 C  
BRANCH   7   8
HETATM    8  C   UNL     1     -10.548  12.339  67.508  1.00  0.00    -0.242 C  
BRANCH   8   9
HETATM    9  C   UNL     1     -10.432  10.863  67.881  1.00  0.00    -0.227 C  
BRANCH   9  10
HETATM   10  C   UNL     1      -9.157  10.546  68.613  1.00  0.00    -0.158 C  
HETATM   11  C   UNL     1      -9.043   9.754  69.691  1.00  0.00    -0.235 C  
BRANCH  11  12
HETATM   12  C   UNL     1     -10.181   9.094  70.419  1.00  0.00    -0.268 C  
BRANCH  12  13
HETATM   13  C   UNL     1      -9.952   7.596  70.662  1.00  0.00    -0.183 C  
HETATM   14  C   UNL     1      -9.582   7.209  72.099  1.00  0.00    -0.142 C  
HETATM   15  O   UNL     1     -10.300   7.982  73.055  1.00  0.00    -0.329 OA 
HETATM   16  C   UNL     1     -10.027   5.756  72.216  1.00  0.00    -0.197 C  
HETATM   17  C   UNL     1     -11.352   5.721  71.460  1.00  0.00    -0.125 C  
HETATM   18  H   UNL     1     -10.070   7.742  73.945  1.00  0.00     0.000 HD 
HETATM   19  O   UNL     1     -12.418   6.094  72.340  1.00  0.00    -0.542 OA 
HETATM   20  C   UNL     1     -11.224   6.767  70.325  1.00  0.00    -0.385 C  
HETATM   21  H   UNL     1     -13.243   6.073  71.869  1.00  0.00     0.000 HD 
BRANCH  20  22
HETATM   22  C   UNL     1     -11.121   6.238  68.906  1.00  0.00    -0.434 C  
HETATM   23  C   UNL     1     -10.052   5.638  68.351  1.00  0.00    -0.224 C  
BRANCH  23  24
HETATM   24  C   UNL     1      -9.914   5.156  66.923  1.00  0.00    -0.201 C  
HETATM   25  H   UNL     1     -11.061   5.036  65.338  1.00  0.00     0.000 HD 
HETATM   26  O   UNL     1     -11.148   5.339  66.235  1.00  0.00    -0.156 OA 
BRANCH  24  27
HETATM   27  C   UNL     1      -8.787   5.925  66.204  1.00  0.00    -0.147 C  
BRANCH  27  28
HETATM   28  O   UNL     1      -8.077   6.779  67.117  1.00  0.00    -0.114 OA 
BRANCH  28  29
HETATM   29  C   UNL     1      -7.752   8.008  66.600  1.00  0.00    -0.094 A  
HETATM   30  C   UNL     1      -6.606   8.728  66.946  1.00  0.00    -0.061 A  
HETATM   31  C   UNL     1      -6.348   9.969  66.358  1.00  0.00    -0.073 A  
HETATM   32  C   UNL     1      -7.230  10.492  65.416  1.00  0.00    -0.077 A  
HETATM   33  C   UNL     1      -8.377   9.780  65.044  1.00  0.00    -0.149 A  
HETATM   34  C   UNL     1      -9.334  10.345  64.024  1.00  0.00    -0.277 C  
HETATM   35  C   UNL     1      -8.623   8.527  65.636  1.00  0.00    -0.200 A  
HETATM   36  F   UNL     1      -8.979  11.585  63.579  1.00  0.00    -0.124 F  
HETATM   37  F   UNL     1     -10.599  10.478  64.511  1.00  0.00    -0.426 F  
HETATM   38  F   UNL     1      -9.438   9.569  62.911  1.00  0.00    -0.275 F  
ENDBRANCH  28  29
ENDBRANCH  27  28
ENDBRANCH  24  27
ENDBRANCH  23  24
ENDBRANCH  20  22
ENDBRANCH  12  13
ENDBRANCH  11  12
ENDBRANCH   9  10
ENDBRANCH   8   9
ENDBRANCH   7   8
ENDBRANCH   5   7
ENDBRANCH   4   5
ENDBRANCH   2   4
TORSDOF 13
ENDMDL
MODEL      144
REMARK 921   NORMALIZED FREE ENERGY PREDICTED BY IDOCK:   -5.55 KCAL/MOL
REMARK 922        TOTAL FREE ENERGY PREDICTED BY IDOCK:  -11.98 KCAL/MOL
REMARK 923 INTER-LIGAND FREE ENERGY PREDICTED BY IDOCK:  -10.82 KCAL/MOL
REMARK 924 INTRA-LIGAND FREE ENERGY PREDICTED BY IDOCK:   -1.16 KCAL/MOL
REMARK 927      BINDING AFFINITY PREDICTED BY RF-SCORE:    0.00 PKD
ROOT
HETATM    1  C   UNL     1      -6.226  10.023  64.119  1.00  0.00    -0.132 C  
HETATM    2  C   UNL     1      -7.511   9.628  63.400  1.00  0.00    -0.118 C  
HETATM    3  C   UNL     1      -7.400   8.217  62.831  1.00  0.00    -0.101 C  
ENDROOT
BRANCH   2   4
HETATM    4  O   UNL     1      -8.601   9.633  64.339  1.00  0.00    -0.164 OA 
BRANCH   4   5
HETATM    5  C   UNL     1      -9.581  10.544  64.076  1.00  0.00    -0.311 C  
HETATM    6  O   UNL     1      -9.824  11.015  62.973  1.00  0.00    -0.324 OA 
BRANCH   5   7
HETATM    7  C   UNL     1     -10.285  10.936  65.348  1.00  0.00    -0.339 C  
BRANCH   7   8
HETATM    8  C   UNL     1     -11.280  12.061  65.065  1.00  0.00    -0.374 C  
BRANCH   8   9
HETATM    9  C   UNL     1     -11.790  12.755  66.324  1.00  0.00    -0.485 C  
BRANCH   9  10
HETATM   10  C   UNL     1     -10.681  13.157  67.258  1.00  0.00    -0.262 C  
HETATM   11  C   UNL     1     -10.815  13.443  68.563  1.00  0.00    -0.285 C  
BRANCH  11  12
HETATM   12  C   UNL     1     -12.112  13.492  69.323  1.00  0.00    -0.335 C  
BRANCH  12  13
HETATM   13  C   UNL     1     -11.921  13.765  70.821  1.00  0.00    -0.318 C  
HETATM   14  C   UNL     1     -11.502  15.195  71.183  1.00  0.00    -0.343 C  
HETATM   15  O   UNL     1     -12.154  16.159  70.362  1.00  0.00    -0.418 OA 
HETATM   16  C   UNL     1     -11.989  15.370  72.616  1.00  0.00    -0.553 C  
HETATM   17  C   UNL     1     -13.346  14.672  72.626  1.00  0.00    -0.482 C  
HETATM   18  H   UNL     1     -11.894  17.045  70.587  1.00  0.00     0.000 HD 
HETATM   19  O   UNL     1     -14.361  15.584  72.195  1.00  0.00    -0.548 OA 
HETATM   20  C   UNL     1     -13.233  13.504  71.615  1.00  0.00    -0.449 C  
HETATM   21  H   UNL     1     -15.205  15.149  72.200  1.00  0.00     0.000 HD 
BRANCH  20  22
HETATM   22  C   UNL     1     -13.208  12.097  72.183  1.00  0.00    -0.438 C  
HETATM   23  C   UNL     1     -12.955  10.964  71.503  1.00  0.00    -0.556 C  
BRANCH  23  24
HETATM   24  C   UNL     1     -12.982   9.550  72.042  1.00  0.00    -0.426 C  
HETATM   25  H   UNL     1     -14.343   8.191  72.423  1.00  0.00     0.000 HD 
HETATM   26  O   UNL     1     -14.326   9.079  72.084  1.00  0.00    -0.377 OA 
BRANCH  24  27
HETATM   27  C   UNL     1     -12.124   8.622  71.159  1.00  0.00    -0.260 C  
BRANCH  27  28
HETATM   28  O   UNL     1     -12.088   7.287  71.688  1.00  0.00    -0.293 OA 
BRANCH  28  29
HETATM   29  C   UNL     1     -11.325   6.412  70.956  1.00  0.00    -0.328 A  
HETATM   30  C   UNL     1     -10.951   6.617  69.626  1.00  0.00    -0.367 A  
HETATM   31  C   UNL     1     -10.159   5.676  68.962  1.00  0.00    -0.259 A  
HETATM   32  C   UNL     1      -9.732   4.530  69.628  1.00  0.00    -0.288 A  
HETATM   33  C   UNL     1     -10.082   4.313  70.966  1.00  0.00    -0.165 A  
HETATM   34  C   UNL     1      -9.621   3.071  71.688  1.00  0.00    -0.151 C  
HETATM   35  C   UNL     1     -10.873   5.271  71.628  1.00  0.00    -0.181 A  
HETATM   36  F   UNL     1      -8.902   2.221  70.898  1.00  0.00    -0.087 F  
HETATM   37  F   UNL     1     -10.657   2.333  72.175  1.00  0.00    -0.222 F  
HETATM   38  F   UNL     1      -8.822   3.348  72.754  1.00  0.00    -0.083 F  
ENDBRANCH  28  29
ENDBRANCH  27  28
ENDBRANCH  24  27
ENDBRANCH  23  24
ENDBRANCH  20  22
ENDBRANCH  12  13
ENDBRANCH  11  12
ENDBRANCH   9  10
ENDBRANCH   8   9
ENDBRANCH   7   8
ENDBRANCH   5   7
ENDBRANCH   4   5
ENDBRANCH   2   4
TORSDOF 13
ENDMDL
MODEL      145
REMARK 921   NORMALIZED FREE ENERGY PREDICTED BY IDOCK:   -5.53 KCAL/MOL
REMARK 922        TOTAL FREE ENERGY PREDICTED BY IDOCK:  -11.95 KCAL/MOL
REMARK 923 INTER-LIGAND FREE ENERGY PREDICTED BY IDOCK:   -9.28 KCAL/MOL
REMARK 924 INTRA-LIGAND FREE ENERGY PREDICTED BY IDOCK:   -2.67 KCAL/MOL
REMARK 927      BINDING AFFINITY PREDICTED BY RF-SCORE:    0.00 PKD
ROOT
HETATM    1  C   UNL     1      -9.540  11.072  62.719  1.00  0.00    -0.337 C  
HETATM    2  C   UNL     1     -10.325  11.841  63.776  1.00  0.00    -0.410 C  
HETATM    3  C   UNL     1     -11.673  12.295  63.224  1.00  0.00    -0.451 C  
ENDROOT
BRANCH   2   4
HETATM    4  O   UNL     1     -10.585  10.976  64.897  1.00  0.00    -0.302 OA 
BRANCH   4   5
HETATM    5  C   UNL     1      -9.476  10.566  65.574  1.00  0.00    -0.216 C  
HETATM    6  O   UNL     1      -8.580  11.302  65.966  1.00  0.00    -0.175 OA 
BRANCH   5   7
HETATM    7  C   UNL     1      -9.478   9.068  65.722  1.00  0.00    -0.305 C  
BRANCH   7   8
HETATM    8  C   UNL     1      -9.005   8.684  67.124  1.00  0.00    -0.148 C  
BRANCH   8   9
HETATM    9  C   UNL     1     -10.144   8.325  68.075  1.00  0.00    -0.243 C  
BRANCH   9  10
HETATM   10  C   UNL     1     -10.787   7.006  67.743  1.00  0.00    -0.276 C  
HETATM   11  C   UNL     1     -10.670   5.872  68.451  1.00  0.00    -0.323 C  
BRANCH  11  12
HETATM   12  C   UNL     1      -9.811   5.684  69.671  1.00  0.00    -0.243 C  
BRANCH  12  13
HETATM   13  C   UNL     1     -10.619   5.630  70.974  1.00  0.00    -0.318 C  
HETATM   14  C   UNL     1     -10.258   4.485  71.928  1.00  0.00    -0.171 C  
HETATM   15  O   UNL     1      -8.856   4.240  71.952  1.00  0.00    -0.108 OA 
HETATM   16  C   UNL     1     -10.685   4.998  73.298  1.00  0.00    -0.315 C  
HETATM   17  C   UNL     1     -10.283   6.470  73.274  1.00  0.00    -0.224 C  
HETATM   18  H   UNL     1      -8.633   3.530  72.543  1.00  0.00     0.000 HD 
HETATM   19  O   UNL     1      -8.916   6.603  73.676  1.00  0.00    -0.126 OA 
HETATM   20  C   UNL     1     -10.441   6.932  71.805  1.00  0.00    -0.224 C  
HETATM   21  H   UNL     1      -8.666   7.519  73.661  1.00  0.00     0.000 HD 
BRANCH  20  22
HETATM   22  C   UNL     1     -11.581   7.887  71.499  1.00  0.00    -0.306 C  
HETATM   23  C   UNL     1     -11.468   9.139  71.019  1.00  0.00    -0.372 C  
BRANCH  23  24
HETATM   24  C   UNL     1     -12.590  10.123  70.762  1.00  0.00    -0.317 C  
HETATM   25  H   UNL     1     -14.148  10.801  71.740  1.00  0.00     0.000 HD 
HETATM   26  O   UNL     1     -13.443  10.184  71.901  1.00  0.00    -0.385 OA 
BRANCH  24  27
HETATM   27  C   UNL     1     -12.016  11.521  70.455  1.00  0.00    -0.368 C  
BRANCH  27  28
HETATM   28  O   UNL     1     -10.881  11.436  69.577  1.00  0.00    -0.204 OA 
BRANCH  28  29
HETATM   29  C   UNL     1     -10.890  12.351  68.555  1.00  0.00    -0.242 A  
HETATM   30  C   UNL     1     -11.992  12.600  67.733  1.00  0.00    -0.303 A  
HETATM   31  C   UNL     1     -11.914  13.562  66.722  1.00  0.00    -0.453 A  
HETATM   32  C   UNL     1     -10.738  14.284  66.535  1.00  0.00    -0.297 A  
HETATM   33  C   UNL     1      -9.627  14.060  67.357  1.00  0.00    -0.227 A  
HETATM   34  C   UNL     1      -8.352  14.840  67.154  1.00  0.00    -0.214 C  
HETATM   35  C   UNL     1      -9.719  13.095  68.377  1.00  0.00    -0.196 A  
HETATM   36  F   UNL     1      -8.408  15.703  66.099  1.00  0.00    -0.313 F  
HETATM   37  F   UNL     1      -7.279  14.036  66.915  1.00  0.00    -0.038 F  
HETATM   38  F   UNL     1      -8.022  15.599  68.234  1.00  0.00    -0.124 F  
ENDBRANCH  28  29
ENDBRANCH  27  28
ENDBRANCH  24  27
ENDBRANCH  23  24
ENDBRANCH  20  22
ENDBRANCH  12  13
ENDBRANCH  11  12
ENDBRANCH   9  10
ENDBRANCH   8   9
ENDBRANCH   7   8
ENDBRANCH   5   7
ENDBRANCH   4   5
ENDBRANCH   2   4
TORSDOF 13
ENDMDL
MODEL      146
REMARK 921   NORMALIZED FREE ENERGY PREDICTED BY IDOCK:   -5.50 KCAL/MOL
REMARK 922        TOTAL FREE ENERGY PREDICTED BY IDOCK:  -11.91 KCAL/MOL
REMARK 923 INTER-LIGAND FREE ENERGY PREDICTED BY IDOCK:   -9.57 KCAL/MOL
REMARK 924 INTRA-LIGAND FREE ENERGY PREDICTED BY IDOCK:   -2.33 KCAL/MOL
REMARK 927      BINDING AFFINITY PREDICTED BY RF-SCORE:    0.00 PKD
ROOT
HETATM    1  C   UNL     1     -13.830  13.370  72.224  1.00  0.00    -0.671 C  
HETATM    2  C   UNL     1     -12.644  13.611  71.296  1.00  0.00    -0.351 C  
HETATM    3  C   UNL     1     -12.295  12.342  70.526  1.00  0.00    -0.349 C  
ENDROOT
BRANCH   2   4
HETATM    4  O   UNL     1     -12.992  14.621  70.332  1.00  0.00    -0.323 OA 
BRANCH   4   5
HETATM    5  C   UNL     1     -12.024  15.552  70.102  1.00  0.00    -0.366 C  
HETATM    6  O   UNL     1     -11.487  16.235  70.963  1.00  0.00    -0.407 OA 
BRANCH   5   7
HETATM    7  C   UNL     1     -11.749  15.665  68.626  1.00  0.00    -0.364 C  
BRANCH   7   8
HETATM    8  C   UNL     1     -10.329  15.184  68.324  1.00  0.00    -0.231 C  
BRANCH   8   9
HETATM    9  C   UNL     1     -10.275  13.785  67.719  1.00  0.00    -0.241 C  
BRANCH   9  10
HETATM   10  C   UNL     1     -11.548  13.405  67.013  1.00  0.00    -0.396 C  
HETATM   11  C   UNL     1     -11.639  12.890  65.777  1.00  0.00    -0.411 C  
BRANCH  11  12
HETATM   12  C   UNL     1     -10.492  12.665  64.832  1.00  0.00    -0.331 C  
BRANCH  12  13
HETATM   13  C   UNL     1     -10.014  11.207  64.802  1.00  0.00    -0.339 C  
HETATM   14  C   UNL     1      -9.590  10.679  63.426  1.00  0.00    -0.332 C  
HETATM   15  O   UNL     1      -8.897  11.669  62.672  1.00  0.00    -0.611 OA 
HETATM   16  C   UNL     1      -8.620   9.548  63.748  1.00  0.00    -0.222 C  
HETATM   17  C   UNL     1      -7.814  10.087  64.926  1.00  0.00    -0.141 C  
HETATM   18  H   UNL     1      -8.634  11.342  61.820  1.00  0.00     0.000 HD 
HETATM   19  O   UNL     1      -6.712  10.862  64.443  1.00  0.00    -0.329 OA 
HETATM   20  C   UNL     1      -8.780  10.997  65.724  1.00  0.00    -0.179 C  
HETATM   21  H   UNL     1      -6.210  11.197  65.176  1.00  0.00     0.000 HD 
BRANCH  20  22
HETATM   22  C   UNL     1      -9.242  10.494  67.080  1.00  0.00    -0.158 C  
HETATM   23  C   UNL     1     -10.020   9.421  67.313  1.00  0.00    -0.252 C  
BRANCH  23  24
HETATM   24  C   UNL     1     -10.535   8.940  68.653  1.00  0.00    -0.193 C  
HETATM   25  H   UNL     1     -11.508   7.380  69.333  1.00  0.00     0.000 HD 
HETATM   26  O   UNL     1     -11.184   7.682  68.492  1.00  0.00     0.191 OA 
BRANCH  24  27
HETATM   27  C   UNL     1      -9.373   8.812  69.659  1.00  0.00    -0.158 C  
BRANCH  27  28
HETATM   28  O   UNL     1      -9.729   9.368  70.936  1.00  0.00    -0.272 OA 
BRANCH  28  29
HETATM   29  C   UNL     1      -9.618   8.488  71.983  1.00  0.00    -0.301 A  
HETATM   30  C   UNL     1      -8.821   8.703  73.110  1.00  0.00     0.082 A  
HETATM   31  C   UNL     1      -8.779   7.756  74.136  1.00  0.00    -0.293 A  
HETATM   32  C   UNL     1      -9.541   6.593  74.044  1.00  0.00    -0.257 A  
HETATM   33  C   UNL     1     -10.358   6.365  72.930  1.00  0.00    -0.229 A  
HETATM   34  C   UNL     1     -11.183   5.106  72.828  1.00  0.00    -0.255 C  
HETATM   35  C   UNL     1     -10.399   7.329  71.906  1.00  0.00    -0.210 A  
HETATM   36  F   UNL     1     -10.999   4.253  73.877  1.00  0.00    -0.268 F  
HETATM   37  F   UNL     1     -10.896   4.381  71.711  1.00  0.00    -0.121 F  
HETATM   38  F   UNL     1     -12.520   5.354  72.784  1.00  0.00    -0.282 F  
ENDBRANCH  28  29
ENDBRANCH  27  28
ENDBRANCH  24  27
ENDBRANCH  23  24
ENDBRANCH  20  22
ENDBRANCH  12  13
ENDBRANCH  11  12
ENDBRANCH   9  10
ENDBRANCH   8   9
ENDBRANCH   7   8
ENDBRANCH   5   7
ENDBRANCH   4   5
ENDBRANCH   2   4
TORSDOF 13
ENDMDL
MODEL      147
REMARK 921   NORMALIZED FREE ENERGY PREDICTED BY IDOCK:   -5.50 KCAL/MOL
REMARK 922        TOTAL FREE ENERGY PREDICTED BY IDOCK:  -11.90 KCAL/MOL
REMARK 923 INTER-LIGAND FREE ENERGY PREDICTED BY IDOCK:  -10.07 KCAL/MOL
REMARK 924 INTRA-LIGAND FREE ENERGY PREDICTED BY IDOCK:   -1.83 KCAL/MOL
REMARK 927      BINDING AFFINITY PREDICTED BY RF-SCORE:    0.00 PKD
ROOT
HETATM    1  C   UNL     1     -14.226  15.595  72.526  1.00  0.00    -0.472 C  
HETATM    2  C   UNL     1     -12.723  15.693  72.768  1.00  0.00    -0.436 C  
HETATM    3  C   UNL     1     -12.424  15.831  74.258  1.00  0.00    -0.800 C  
ENDROOT
BRANCH   2   4
HETATM    4  O   UNL     1     -12.088  14.486  72.308  1.00  0.00    -0.264 OA 
BRANCH   4   5
HETATM    5  C   UNL     1     -12.707  13.876  71.258  1.00  0.00    -0.367 C  
HETATM    6  O   UNL     1     -12.625  14.235  70.091  1.00  0.00    -0.350 OA 
BRANCH   5   7
HETATM    7  C   UNL     1     -13.556  12.732  71.745  1.00  0.00    -0.214 C  
BRANCH   7   8
HETATM    8  C   UNL     1     -12.766  11.426  71.658  1.00  0.00    -0.427 C  
BRANCH   8   9
HETATM    9  C   UNL     1     -12.773  10.800  70.266  1.00  0.00    -0.286 C  
BRANCH   9  10
HETATM   10  C   UNL     1     -11.685   9.778  70.081  1.00  0.00    -0.190 C  
HETATM   11  C   UNL     1     -10.573   9.935  69.346  1.00  0.00    -0.250 C  
BRANCH  11  12
HETATM   12  C   UNL     1     -10.240  11.136  68.504  1.00  0.00    -0.209 C  
BRANCH  12  13
HETATM   13  C   UNL     1     -10.963  11.142  67.151  1.00  0.00    -0.350 C  
HETATM   14  C   UNL     1     -11.868  12.352  66.891  1.00  0.00    -0.307 C  
HETATM   15  O   UNL     1     -11.298  13.555  67.397  1.00  0.00    -0.287 OA 
HETATM   16  C   UNL     1     -11.930  12.446  65.371  1.00  0.00    -0.457 C  
HETATM   17  C   UNL     1     -10.505  12.125  64.930  1.00  0.00    -0.288 C  
HETATM   18  H   UNL     1     -11.860  14.304  67.236  1.00  0.00     0.000 HD 
HETATM   19  O   UNL     1      -9.715  13.319  64.948  1.00  0.00    -0.551 OA 
HETATM   20  C   UNL     1      -9.953  11.120  65.969  1.00  0.00    -0.280 C  
HETATM   21  H   UNL     1      -8.828  13.119  64.673  1.00  0.00     0.000 HD 
BRANCH  20  22
HETATM   22  C   UNL     1      -9.748   9.688  65.505  1.00  0.00    -0.372 C  
HETATM   23  C   UNL     1      -8.584   9.128  65.129  1.00  0.00    -0.200 C  
BRANCH  23  24
HETATM   24  C   UNL     1      -8.373   7.721  64.611  1.00  0.00    -0.018 C  
HETATM   25  H   UNL     1      -7.071   6.798  63.474  1.00  0.00     0.000 HD 
HETATM   26  O   UNL     1      -7.203   7.681  63.799  1.00  0.00    -0.075 OA 
BRANCH  24  27
HETATM   27  C   UNL     1      -8.235   6.733  65.787  1.00  0.00    -0.135 C  
BRANCH  27  28
HETATM   28  O   UNL     1      -9.364   5.845  65.854  1.00  0.00    -0.140 OA 
BRANCH  28  29
HETATM   29  C   UNL     1      -9.449   5.130  67.022  1.00  0.00    -0.137 A  
HETATM   30  C   UNL     1      -9.050   3.798  67.160  1.00  0.00    -0.178 A  
HETATM   31  C   UNL     1      -9.162   3.153  68.393  1.00  0.00    -0.235 A  
HETATM   32  C   UNL     1      -9.665   3.838  69.497  1.00  0.00    -0.152 A  
HETATM   33  C   UNL     1     -10.057   5.177  69.384  1.00  0.00    -0.305 A  
HETATM   34  C   UNL     1     -10.604   5.920  70.577  1.00  0.00    -0.275 C  
HETATM   35  C   UNL     1      -9.932   5.821  68.139  1.00  0.00    -0.181 A  
HETATM   36  F   UNL     1     -10.703   5.146  71.697  1.00  0.00    -0.279 F  
HETATM   37  F   UNL     1     -11.854   6.414  70.359  1.00  0.00    -0.423 F  
HETATM   38  F   UNL     1      -9.835   6.985  70.933  1.00  0.00    -0.182 F  
ENDBRANCH  28  29
ENDBRANCH  27  28
ENDBRANCH  24  27
ENDBRANCH  23  24
ENDBRANCH  20  22
ENDBRANCH  12  13
ENDBRANCH  11  12
ENDBRANCH   9  10
ENDBRANCH   8   9
ENDBRANCH   7   8
ENDBRANCH   5   7
ENDBRANCH   4   5
ENDBRANCH   2   4
TORSDOF 13
ENDMDL
MODEL      148
REMARK 921   NORMALIZED FREE ENERGY PREDICTED BY IDOCK:   -5.49 KCAL/MOL
REMARK 922        TOTAL FREE ENERGY PREDICTED BY IDOCK:  -11.89 KCAL/MOL
REMARK 923 INTER-LIGAND FREE ENERGY PREDICTED BY IDOCK:   -9.70 KCAL/MOL
REMARK 924 INTRA-LIGAND FREE ENERGY PREDICTED BY IDOCK:   -2.19 KCAL/MOL
REMARK 927      BINDING AFFINITY PREDICTED BY RF-SCORE:    0.00 PKD
ROOT
HETATM    1  C   UNL     1      -6.376  10.296  64.166  1.00  0.00    -0.094 C  
HETATM    2  C   UNL     1      -7.562  10.010  63.251  1.00  0.00    -0.140 C  
HETATM    3  C   UNL     1      -7.388   8.669  62.546  1.00  0.00    -0.098 C  
ENDROOT
BRANCH   2   4
HETATM    4  O   UNL     1      -8.763   9.933  64.039  1.00  0.00    -0.176 OA 
BRANCH   4   5
HETATM    5  C   UNL     1      -9.642  10.957  63.848  1.00  0.00    -0.284 C  
HETATM    6  O   UNL     1      -9.759  11.597  62.812  1.00  0.00    -0.321 OA 
BRANCH   5   7
HETATM    7  C   UNL     1     -10.410  11.229  65.114  1.00  0.00    -0.353 C  
BRANCH   7   8
HETATM    8  C   UNL     1     -11.396  12.376  64.886  1.00  0.00    -0.361 C  
BRANCH   8   9
HETATM    9  C   UNL     1     -11.908  13.005  66.179  1.00  0.00    -0.466 C  
BRANCH   9  10
HETATM   10  C   UNL     1     -10.797  13.464  67.083  1.00  0.00    -0.284 C  
HETATM   11  C   UNL     1     -10.896  13.680  68.405  1.00  0.00    -0.274 C  
BRANCH  11  12
HETATM   12  C   UNL     1     -12.156  13.579  69.219  1.00  0.00    -0.335 C  
BRANCH  12  13
HETATM   13  C   UNL     1     -11.945  13.923  70.700  1.00  0.00    -0.364 C  
HETATM   14  C   UNL     1     -11.553  15.377  70.989  1.00  0.00    -0.367 C  
HETATM   15  O   UNL     1     -12.242  16.288  70.140  1.00  0.00    -0.303 OA 
HETATM   16  C   UNL     1     -12.018  15.605  72.423  1.00  0.00    -0.569 C  
HETATM   17  C   UNL     1     -13.357  14.877  72.490  1.00  0.00    -0.428 C  
HETATM   18  H   UNL     1     -11.999  17.189  70.320  1.00  0.00     0.000 HD 
HETATM   19  O   UNL     1     -14.401  15.746  72.039  1.00  0.00    -0.419 OA 
HETATM   20  C   UNL     1     -13.235  13.669  71.530  1.00  0.00    -0.409 C  
HETATM   21  H   UNL     1     -15.235  15.293  72.080  1.00  0.00     0.000 HD 
BRANCH  20  22
HETATM   22  C   UNL     1     -13.166  12.289  72.160  1.00  0.00    -0.466 C  
HETATM   23  C   UNL     1     -12.834  11.142  71.539  1.00  0.00    -0.542 C  
BRANCH  23  24
HETATM   24  C   UNL     1     -12.816   9.752  72.138  1.00  0.00    -0.360 C  
HETATM   25  H   UNL     1     -13.996   8.187  72.153  1.00  0.00     0.000 HD 
HETATM   26  O   UNL     1     -14.007   9.059  71.776  1.00  0.00    -0.392 OA 
BRANCH  24  27
HETATM   27  C   UNL     1     -11.580   8.973  71.647  1.00  0.00    -0.356 C  
BRANCH  27  28
HETATM   28  O   UNL     1     -11.938   8.009  70.642  1.00  0.00    -0.185 OA 
BRANCH  28  29
HETATM   29  C   UNL     1     -10.992   7.838  69.663  1.00  0.00    -0.122 A  
HETATM   30  C   UNL     1     -10.965   6.759  68.776  1.00  0.00    -0.267 A  
HETATM   31  C   UNL     1      -9.969   6.673  67.800  1.00  0.00    -0.158 A  
HETATM   32  C   UNL     1      -9.000   7.669  67.702  1.00  0.00    -0.127 A  
HETATM   33  C   UNL     1      -9.018   8.766  68.571  1.00  0.00    -0.138 A  
HETATM   34  C   UNL     1      -7.969   9.845  68.466  1.00  0.00    -0.086 C  
HETATM   35  C   UNL     1     -10.031   8.848  69.545  1.00  0.00    -0.191 A  
HETATM   36  F   UNL     1      -7.034   9.599  67.504  1.00  0.00    -0.078 F  
HETATM   37  F   UNL     1      -7.271  10.011  69.624  1.00  0.00    -0.067 F  
HETATM   38  F   UNL     1      -8.495  11.064  68.166  1.00  0.00    -0.116 F  
ENDBRANCH  28  29
ENDBRANCH  27  28
ENDBRANCH  24  27
ENDBRANCH  23  24
ENDBRANCH  20  22
ENDBRANCH  12  13
ENDBRANCH  11  12
ENDBRANCH   9  10
ENDBRANCH   8   9
ENDBRANCH   7   8
ENDBRANCH   5   7
ENDBRANCH   4   5
ENDBRANCH   2   4
TORSDOF 13
ENDMDL
MODEL      149
REMARK 921   NORMALIZED FREE ENERGY PREDICTED BY IDOCK:   -5.49 KCAL/MOL
REMARK 922        TOTAL FREE ENERGY PREDICTED BY IDOCK:  -11.88 KCAL/MOL
REMARK 923 INTER-LIGAND FREE ENERGY PREDICTED BY IDOCK:  -10.14 KCAL/MOL
REMARK 924 INTRA-LIGAND FREE ENERGY PREDICTED BY IDOCK:   -1.74 KCAL/MOL
REMARK 927      BINDING AFFINITY PREDICTED BY RF-SCORE:    0.00 PKD
ROOT
HETATM    1  C   UNL     1     -10.241  11.392  63.542  1.00  0.00    -0.461 C  
HETATM    2  C   UNL     1     -11.283  12.432  63.939  1.00  0.00    -0.422 C  
HETATM    3  C   UNL     1     -12.650  12.074  63.364  1.00  0.00    -0.592 C  
ENDROOT
BRANCH   2   4
HETATM    4  O   UNL     1     -11.409  12.455  65.373  1.00  0.00    -0.313 OA 
BRANCH   4   5
HETATM    5  C   UNL     1     -10.713  13.449  65.994  1.00  0.00    -0.278 C  
HETATM    6  O   UNL     1      -9.662  13.296  66.602  1.00  0.00    -0.255 OA 
BRANCH   5   7
HETATM    7  C   UNL     1     -11.452  14.755  65.877  1.00  0.00    -0.319 C  
BRANCH   7   8
HETATM    8  C   UNL     1     -10.454  15.912  65.814  1.00  0.00    -0.386 C  
BRANCH   8   9
HETATM    9  C   UNL     1     -10.672  16.965  66.897  1.00  0.00    -0.130 C  
BRANCH   9  10
HETATM   10  C   UNL     1      -9.704  16.833  68.041  1.00  0.00    -0.243 C  
HETATM   11  C   UNL     1     -10.003  16.417  69.281  1.00  0.00    -0.259 C  
BRANCH  11  12
HETATM   12  C   UNL     1     -11.378  16.076  69.786  1.00  0.00    -0.331 C  
BRANCH  12  13
HETATM   13  C   UNL     1     -11.363  15.047  70.925  1.00  0.00    -0.305 C  
HETATM   14  C   UNL     1     -11.559  15.620  72.334  1.00  0.00    -0.425 C  
HETATM   15  O   UNL     1     -12.512  16.678  72.345  1.00  0.00    -0.334 OA 
HETATM   16  C   UNL     1     -12.125  14.450  73.131  1.00  0.00     0.017 C  
HETATM   17  C   UNL     1     -13.092  13.782  72.158  1.00  0.00    -0.406 C  
HETATM   18  H   UNL     1     -12.633  17.033  73.218  1.00  0.00     0.000 HD 
HETATM   19  O   UNL     1     -14.370  14.421  72.235  1.00  0.00    -0.505 OA 
HETATM   20  C   UNL     1     -12.489  13.990  70.747  1.00  0.00    -0.442 C  
HETATM   21  H   UNL     1     -14.972  14.005  71.628  1.00  0.00     0.000 HD 
BRANCH  20  22
HETATM   22  C   UNL     1     -11.927  12.765  70.048  1.00  0.00    -0.371 C  
HETATM   23  C   UNL     1     -12.125  11.481  70.401  1.00  0.00    -0.471 C  
BRANCH  23  24
HETATM   24  C   UNL     1     -11.527  10.253  69.750  1.00  0.00    -0.256 C  
HETATM   25  H   UNL     1      -9.756   9.681  69.133  1.00  0.00     0.000 HD 
HETATM   26  O   UNL     1     -10.132  10.452  69.542  1.00  0.00    -0.229 OA 
BRANCH  24  27
HETATM   27  C   UNL     1     -11.759   9.011  70.633  1.00  0.00    -0.198 C  
BRANCH  27  28
HETATM   28  O   UNL     1     -10.540   8.586  71.263  1.00  0.00    -0.211 OA 
BRANCH  28  29
HETATM   29  C   UNL     1     -10.473   7.237  71.507  1.00  0.00    -0.202 A  
HETATM   30  C   UNL     1     -10.972   6.621  72.658  1.00  0.00    -0.288 A  
HETATM   31  C   UNL     1     -10.871   5.237  72.817  1.00  0.00    -0.313 A  
HETATM   32  C   UNL     1     -10.279   4.461  71.823  1.00  0.00    -0.201 A  
HETATM   33  C   UNL     1      -9.787   5.057  70.655  1.00  0.00    -0.282 A  
HETATM   34  C   UNL     1      -9.144   4.218  69.578  1.00  0.00    -0.120 C  
HETATM   35  C   UNL     1      -9.900   6.451  70.502  1.00  0.00    -0.207 A  
HETATM   36  F   UNL     1      -9.069   2.894  69.896  1.00  0.00    -0.131 F  
HETATM   37  F   UNL     1      -7.866   4.604  69.307  1.00  0.00    -0.061 F  
HETATM   38  F   UNL     1      -9.814   4.277  68.395  1.00  0.00    -0.212 F  
ENDBRANCH  28  29
ENDBRANCH  27  28
ENDBRANCH  24  27
ENDBRANCH  23  24
ENDBRANCH  20  22
ENDBRANCH  12  13
ENDBRANCH  11  12
ENDBRANCH   9  10
ENDBRANCH   8   9
ENDBRANCH   7   8
ENDBRANCH   5   7
ENDBRANCH   4   5
ENDBRANCH   2   4
TORSDOF 13
ENDMDL
MODEL      150
REMARK 921   NORMALIZED FREE ENERGY PREDICTED BY IDOCK:   -5.49 KCAL/MOL
REMARK 922        TOTAL FREE ENERGY PREDICTED BY IDOCK:  -11.88 KCAL/MOL
REMARK 923 INTER-LIGAND FREE ENERGY PREDICTED BY IDOCK:   -9.51 KCAL/MOL
REMARK 924 INTRA-LIGAND FREE ENERGY PREDICTED BY IDOCK:   -2.37 KCAL/MOL
REMARK 927      BINDING AFFINITY PREDICTED BY RF-SCORE:    0.00 PKD
ROOT
HETATM    1  C   UNL     1     -11.105   6.223  66.955  1.00  0.00    -0.329 C  
HETATM    2  C   UNL     1     -10.059   5.327  67.609  1.00  0.00    -0.171 C  
HETATM    3  C   UNL     1      -9.703   4.157  66.698  1.00  0.00    -0.233 C  
ENDROOT
BRANCH   2   4
HETATM    4  O   UNL     1      -8.856   6.085  67.831  1.00  0.00    -0.112 OA 
BRANCH   4   5
HETATM    5  C   UNL     1      -8.614   6.411  69.133  1.00  0.00    -0.125 C  
HETATM    6  O   UNL     1      -7.668   7.080  69.525  1.00  0.00    -0.102 OA 
BRANCH   5   7
HETATM    7  C   UNL     1      -9.646   5.779  70.029  1.00  0.00    -0.206 C  
BRANCH   7   8
HETATM    8  C   UNL     1      -8.956   4.939  71.103  1.00  0.00    -0.167 C  
BRANCH   8   9
HETATM    9  C   UNL     1      -9.311   5.357  72.527  1.00  0.00    -0.155 C  
BRANCH   9  10
HETATM   10  C   UNL     1      -8.961   6.791  72.817  1.00  0.00    -0.139 C  
HETATM   11  C   UNL     1      -9.833   7.775  73.091  1.00  0.00    -0.361 C  
BRANCH  11  12
HETATM   12  C   UNL     1     -11.331   7.648  73.084  1.00  0.00    -0.231 C  
BRANCH  12  13
HETATM   13  C   UNL     1     -11.983   8.280  71.847  1.00  0.00    -0.383 C  
HETATM   14  C   UNL     1     -13.503   8.464  71.922  1.00  0.00    -0.363 C  
HETATM   15  O   UNL     1     -13.922   8.857  73.225  1.00  0.00    -1.203 OA 
HETATM   16  C   UNL     1     -13.784   9.608  70.956  1.00  0.00    -0.086 C  
HETATM   17  C   UNL     1     -12.628  10.575  71.192  1.00  0.00    -0.417 C  
HETATM   18  H   UNL     1     -14.865   8.971  73.271  1.00  0.00     0.000 HD 
HETATM   19  O   UNL     1     -12.945  11.448  72.281  1.00  0.00    -0.389 OA 
HETATM   20  C   UNL     1     -11.408   9.698  71.566  1.00  0.00    -0.420 C  
HETATM   21  H   UNL     1     -12.224  12.050  72.429  1.00  0.00     0.000 HD 
BRANCH  20  22
HETATM   22  C   UNL     1     -10.289   9.597  70.545  1.00  0.00    -0.359 C  
HETATM   23  C   UNL     1     -10.284  10.130  69.309  1.00  0.00    -0.238 C  
BRANCH  23  24
HETATM   24  C   UNL     1      -9.203   9.991  68.259  1.00  0.00    -0.129 C  
HETATM   25  H   UNL     1      -9.066   9.300  66.430  1.00  0.00     0.000 HD 
HETATM   26  O   UNL     1      -9.745   9.387  67.089  1.00  0.00    -0.156 OA 
BRANCH  24  27
HETATM   27  C   UNL     1      -8.609  11.373  67.916  1.00  0.00    -0.140 C  
BRANCH  27  28
HETATM   28  O   UNL     1      -9.186  11.901  66.711  1.00  0.00    -0.183 OA 
BRANCH  28  29
HETATM   29  C   UNL     1     -10.073  12.929  66.915  1.00  0.00    -0.241 A  
HETATM   30  C   UNL     1     -11.458  12.766  67.001  1.00  0.00    -0.397 A  
HETATM   31  C   UNL     1     -12.285  13.869  67.223  1.00  0.00    -0.324 A  
HETATM   32  C   UNL     1     -11.731  15.139  67.369  1.00  0.00    -0.189 A  
HETATM   33  C   UNL     1     -10.345  15.321  67.302  1.00  0.00    -0.264 A  
HETATM   34  C   UNL     1      -9.743  16.696  67.458  1.00  0.00    -0.247 C  
HETATM   35  C   UNL     1      -9.520  14.202  67.085  1.00  0.00    -0.237 A  
HETATM   36  F   UNL     1     -10.676  17.680  67.616  1.00  0.00    -0.354 F  
HETATM   37  F   UNL     1      -8.997  17.067  66.381  1.00  0.00    -0.248 F  
HETATM   38  F   UNL     1      -8.920  16.791  68.538  1.00  0.00    -0.209 F  
ENDBRANCH  28  29
ENDBRANCH  27  28
ENDBRANCH  24  27
ENDBRANCH  23  24
ENDBRANCH  20  22
ENDBRANCH  12  13
ENDBRANCH  11  12
ENDBRANCH   9  10
ENDBRANCH   8   9
ENDBRANCH   7   8
ENDBRANCH   5   7
ENDBRANCH   4   5
ENDBRANCH   2   4
TORSDOF 13
ENDMDL
MODEL      151
REMARK 921   NORMALIZED FREE ENERGY PREDICTED BY IDOCK:   -5.48 KCAL/MOL
REMARK 922        TOTAL FREE ENERGY PREDICTED BY IDOCK:  -11.87 KCAL/MOL
REMARK 923 INTER-LIGAND FREE ENERGY PREDICTED BY IDOCK:   -9.96 KCAL/MOL
REMARK 924 INTRA-LIGAND FREE ENERGY PREDICTED BY IDOCK:   -1.92 KCAL/MOL
REMARK 927      BINDING AFFINITY PREDICTED BY RF-SCORE:    0.00 PKD
ROOT
HETATM    1  C   UNL     1     -11.311   3.572  73.293  1.00  0.00    -0.149 C  
HETATM    2  C   UNL     1     -11.457   5.088  73.221  1.00  0.00    -0.259 C  
HETATM    3  C   UNL     1     -10.435   5.773  74.122  1.00  0.00    -0.266 C  
ENDROOT
BRANCH   2   4
HETATM    4  O   UNL     1     -11.208   5.526  71.873  1.00  0.00    -0.216 OA 
BRANCH   4   5
HETATM    5  C   UNL     1     -12.040   6.509  71.425  1.00  0.00    -0.287 C  
HETATM    6  O   UNL     1     -13.197   6.669  71.789  1.00  0.00    -0.266 OA 
BRANCH   5   7
HETATM    7  C   UNL     1     -11.352   7.336  70.373  1.00  0.00    -0.299 C  
BRANCH   7   8
HETATM    8  C   UNL     1     -10.274   8.207  71.020  1.00  0.00    -0.221 C  
BRANCH   8   9
HETATM    9  C   UNL     1     -10.497   9.703  70.819  1.00  0.00    -0.375 C  
BRANCH   9  10
HETATM   10  C   UNL     1     -11.722  10.005  69.999  1.00  0.00    -0.242 C  
HETATM   11  C   UNL     1     -12.603  10.990  70.233  1.00  0.00    -0.321 C  
BRANCH  11  12
HETATM   12  C   UNL     1     -12.576  11.933  71.404  1.00  0.00    -0.346 C  
BRANCH  12  13
HETATM   13  C   UNL     1     -13.274  13.269  71.118  1.00  0.00    -0.145 C  
HETATM   14  C   UNL     1     -13.931  13.944  72.328  1.00  0.00    -0.565 C  
HETATM   15  O   UNL     1     -13.147  13.791  73.507  1.00  0.00    -0.191 OA 
HETATM   16  C   UNL     1     -13.961  15.421  71.954  1.00  0.00    -0.629 C  
HETATM   17  C   UNL     1     -12.620  15.648  71.264  1.00  0.00    -0.463 C  
HETATM   18  H   UNL     1     -13.554  14.209  74.256  1.00  0.00     0.000 HD 
HETATM   19  O   UNL     1     -11.617  15.941  72.243  1.00  0.00    -0.427 OA 
HETATM   20  C   UNL     1     -12.276  14.318  70.550  1.00  0.00    -0.427 C  
HETATM   21  H   UNL     1     -10.782  16.082  71.814  1.00  0.00     0.000 HD 
BRANCH  20  22
HETATM   22  C   UNL     1     -12.343  14.311  69.033  1.00  0.00    -0.147 C  
HETATM   23  C   UNL     1     -11.350  14.641  68.187  1.00  0.00    -0.321 C  
BRANCH  23  24
HETATM   24  C   UNL     1     -11.418  14.692  66.676  1.00  0.00    -0.357 C  
HETATM   25  H   UNL     1     -10.944  15.970  65.267  1.00  0.00     0.000 HD 
HETATM   26  O   UNL     1     -10.901  15.937  66.215  1.00  0.00    -0.292 OA 
BRANCH  24  27
HETATM   27  C   UNL     1     -10.616  13.526  66.063  1.00  0.00    -0.285 C  
BRANCH  27  28
HETATM   28  O   UNL     1     -11.220  12.260  66.375  1.00  0.00    -0.290 OA 
BRANCH  28  29
HETATM   29  C   UNL     1     -10.377  11.186  66.238  1.00  0.00    -0.249 A  
HETATM   30  C   UNL     1     -10.041  10.314  67.277  1.00  0.00    -0.249 A  
HETATM   31  C   UNL     1      -9.183   9.236  67.043  1.00  0.00    -0.169 A  
HETATM   32  C   UNL     1      -8.664   9.021  65.769  1.00  0.00    -0.197 A  
HETATM   33  C   UNL     1      -9.001   9.874  64.711  1.00  0.00    -0.255 A  
HETATM   34  C   UNL     1      -8.438   9.643  63.330  1.00  0.00    -0.188 C  
HETATM   35  C   UNL     1      -9.872  10.951  64.955  1.00  0.00    -0.336 A  
HETATM   36  F   UNL     1      -7.576   8.587  63.267  1.00  0.00    -0.099 F  
HETATM   37  F   UNL     1      -7.741  10.715  62.863  1.00  0.00    -0.153 F  
HETATM   38  F   UNL     1      -9.402   9.387  62.405  1.00  0.00    -0.276 F  
ENDBRANCH  28  29
ENDBRANCH  27  28
ENDBRANCH  24  27
ENDBRANCH  23  24
ENDBRANCH  20  22
ENDBRANCH  12  13
ENDBRANCH  11  12
ENDBRANCH   9  10
ENDBRANCH   8   9
ENDBRANCH   7   8
ENDBRANCH   5   7
ENDBRANCH   4   5
ENDBRANCH   2   4
TORSDOF 13
ENDMDL
MODEL      152
REMARK 921   NORMALIZED FREE ENERGY PREDICTED BY IDOCK:   -5.48 KCAL/MOL
REMARK 922        TOTAL FREE ENERGY PREDICTED BY IDOCK:  -11.87 KCAL/MOL
REMARK 923 INTER-LIGAND FREE ENERGY PREDICTED BY IDOCK:   -9.14 KCAL/MOL
REMARK 924 INTRA-LIGAND FREE ENERGY PREDICTED BY IDOCK:   -2.73 KCAL/MOL
REMARK 927      BINDING AFFINITY PREDICTED BY RF-SCORE:    0.00 PKD
ROOT
HETATM    1  C   UNL     1     -10.302   4.944  66.228  1.00  0.00    -0.336 C  
HETATM    2  C   UNL     1     -10.499   6.311  66.875  1.00  0.00    -0.272 C  
HETATM    3  C   UNL     1     -10.979   6.162  68.315  1.00  0.00    -0.397 C  
ENDROOT
BRANCH   2   4
HETATM    4  O   UNL     1      -9.240   7.007  66.906  1.00  0.00    -0.138 OA 
BRANCH   4   5
HETATM    5  C   UNL     1      -9.332   8.363  66.803  1.00  0.00    -0.184 C  
HETATM    6  O   UNL     1     -10.130   8.961  66.094  1.00  0.00    -0.291 OA 
BRANCH   5   7
HETATM    7  C   UNL     1      -8.270   9.024  67.642  1.00  0.00    -0.109 C  
BRANCH   7   8
HETATM    8  C   UNL     1      -7.974   8.167  68.873  1.00  0.00    -0.114 C  
BRANCH   8   9
HETATM    9  C   UNL     1      -7.380   8.956  70.036  1.00  0.00    -0.056 C  
BRANCH   9  10
HETATM   10  C   UNL     1      -7.201   8.122  71.275  1.00  0.00    -0.066 C  
HETATM   11  C   UNL     1      -8.077   8.017  72.287  1.00  0.00    -0.179 C  
BRANCH  11  12
HETATM   12  C   UNL     1      -9.371   8.774  72.411  1.00  0.00    -0.159 C  
BRANCH  12  13
HETATM   13  C   UNL     1     -10.517   8.141  71.612  1.00  0.00    -0.288 C  
HETATM   14  C   UNL     1     -11.228   6.966  72.294  1.00  0.00    -0.263 C  
HETATM   15  O   UNL     1     -11.371   7.179  73.695  1.00  0.00    -0.507 OA 
HETATM   16  C   UNL     1     -12.614   6.956  71.660  1.00  0.00    -0.410 C  
HETATM   17  C   UNL     1     -12.971   8.435  71.545  1.00  0.00    -0.301 C  
HETATM   18  H   UNL     1     -11.812   6.450  74.117  1.00  0.00     0.000 HD 
HETATM   19  O   UNL     1     -13.559   8.886  72.769  1.00  0.00    -0.737 OA 
HETATM   20  C   UNL     1     -11.634   9.179  71.305  1.00  0.00    -0.401 C  
HETATM   21  H   UNL     1     -13.781   9.807  72.697  1.00  0.00     0.000 HD 
BRANCH  20  22
HETATM   22  C   UNL     1     -11.410   9.771  69.925  1.00  0.00    -0.238 C  
HETATM   23  C   UNL     1     -10.968  11.012  69.649  1.00  0.00    -0.286 C  
BRANCH  23  24
HETATM   24  C   UNL     1     -10.793  11.636  68.281  1.00  0.00    -0.219 C  
HETATM   25  H   UNL     1     -11.917  12.593  66.993  1.00  0.00     0.000 HD 
HETATM   26  O   UNL     1     -12.027  12.202  67.852  1.00  0.00    -0.489 OA 
BRANCH  24  27
HETATM   27  C   UNL     1      -9.698  12.721  68.323  1.00  0.00    -0.216 C  
BRANCH  27  28
HETATM   28  O   UNL     1     -10.254  14.009  68.636  1.00  0.00    -0.236 OA 
BRANCH  28  29
HETATM   29  C   UNL     1      -9.826  15.021  67.814  1.00  0.00    -0.220 A  
HETATM   30  C   UNL     1     -10.409  15.334  66.583  1.00  0.00    -0.281 A  
HETATM   31  C   UNL     1      -9.914  16.393  65.818  1.00  0.00    -0.331 A  
HETATM   32  C   UNL     1      -8.840  17.149  66.283  1.00  0.00    -0.266 A  
HETATM   33  C   UNL     1      -8.252  16.861  67.521  1.00  0.00    -0.191 A  
HETATM   34  C   UNL     1      -7.089  17.678  68.026  1.00  0.00    -0.200 C  
HETATM   35  C   UNL     1      -8.764  15.798  68.288  1.00  0.00    -0.172 A  
HETATM   36  F   UNL     1      -6.683  18.641  67.148  1.00  0.00    -0.190 F  
HETATM   37  F   UNL     1      -5.986  16.920  68.275  1.00  0.00    -0.121 F  
HETATM   38  F   UNL     1      -7.368  18.331  69.187  1.00  0.00    -0.274 F  
ENDBRANCH  28  29
ENDBRANCH  27  28
ENDBRANCH  24  27
ENDBRANCH  23  24
ENDBRANCH  20  22
ENDBRANCH  12  13
ENDBRANCH  11  12
ENDBRANCH   9  10
ENDBRANCH   8   9
ENDBRANCH   7   8
ENDBRANCH   5   7
ENDBRANCH   4   5
ENDBRANCH   2   4
TORSDOF 13
ENDMDL
MODEL      153
REMARK 921   NORMALIZED FREE ENERGY PREDICTED BY IDOCK:   -5.46 KCAL/MOL
REMARK 922        TOTAL FREE ENERGY PREDICTED BY IDOCK:  -11.84 KCAL/MOL
REMARK 923 INTER-LIGAND FREE ENERGY PREDICTED BY IDOCK:   -9.85 KCAL/MOL
REMARK 924 INTRA-LIGAND FREE ENERGY PREDICTED BY IDOCK:   -1.99 KCAL/MOL
REMARK 927      BINDING AFFINITY PREDICTED BY RF-SCORE:    0.00 PKD
ROOT
HETATM    1  C   UNL     1     -12.745  13.860  65.249  1.00  0.00    -0.485 C  
HETATM    2  C   UNL     1     -11.631  13.313  64.363  1.00  0.00    -0.382 C  
HETATM    3  C   UNL     1     -10.279  13.877  64.787  1.00  0.00    -0.353 C  
ENDROOT
BRANCH   2   4
HETATM    4  O   UNL     1     -11.569  11.883  64.506  1.00  0.00    -0.322 OA 
BRANCH   4   5
HETATM    5  C   UNL     1     -11.389  11.441  65.783  1.00  0.00    -0.008 C  
HETATM    6  O   UNL     1     -11.963  11.886  66.768  1.00  0.00    -0.613 OA 
BRANCH   5   7
HETATM    7  C   UNL     1     -10.336  10.365  65.819  1.00  0.00    -0.257 C  
BRANCH   7   8
HETATM    8  C   UNL     1     -10.694   9.325  66.881  1.00  0.00    -0.164 C  
BRANCH   8   9
HETATM    9  C   UNL     1      -9.903   8.026  66.753  1.00  0.00    -0.327 C  
BRANCH   9  10
HETATM   10  C   UNL     1     -10.761   6.802  66.919  1.00  0.00    -0.394 C  
HETATM   11  C   UNL     1     -10.954   6.124  68.061  1.00  0.00    -0.399 C  
BRANCH  11  12
HETATM   12  C   UNL     1     -10.287   6.413  69.378  1.00  0.00    -0.252 C  
BRANCH  12  13
HETATM   13  C   UNL     1     -10.973   7.537  70.165  1.00  0.00    -0.267 C  
HETATM   14  C   UNL     1     -12.058   7.087  71.151  1.00  0.00    -0.369 C  
HETATM   15  O   UNL     1     -11.703   5.874  71.807  1.00  0.00    -0.235 OA 
HETATM   16  C   UNL     1     -12.102   8.204  72.186  1.00  0.00    -0.408 C  
HETATM   17  C   UNL     1     -10.634   8.573  72.384  1.00  0.00    -0.298 C  
HETATM   18  H   UNL     1     -12.375   5.595  72.418  1.00  0.00     0.000 HD 
HETATM   19  O   UNL     1     -10.050   7.715  73.369  1.00  0.00    -0.311 OA 
HETATM   20  C   UNL     1      -9.947   8.338  71.016  1.00  0.00    -0.226 C  
HETATM   21  H   UNL     1      -9.136   7.945  73.492  1.00  0.00     0.000 HD 
BRANCH  20  22
HETATM   22  C   UNL     1      -9.502   9.569  70.246  1.00  0.00    -0.307 C  
HETATM   23  C   UNL     1      -8.321   9.739  69.624  1.00  0.00    -0.180 C  
BRANCH  23  24
HETATM   24  C   UNL     1      -7.840  10.978  68.901  1.00  0.00    -0.138 C  
HETATM   25  H   UNL     1      -6.979  11.390  67.189  1.00  0.00     0.000 HD 
HETATM   26  O   UNL     1      -7.281  10.612  67.643  1.00  0.00    -0.086 OA 
BRANCH  24  27
HETATM   27  C   UNL     1      -9.007  11.965  68.695  1.00  0.00    -0.041 C  
BRANCH  27  28
HETATM   28  O   UNL     1      -8.529  13.313  68.553  1.00  0.00    -0.148 OA 
BRANCH  28  29
HETATM   29  C   UNL     1      -9.521  14.261  68.520  1.00  0.00    -0.206 A  
HETATM   30  C   UNL     1     -10.843  14.030  68.909  1.00  0.00    -0.278 A  
HETATM   31  C   UNL     1     -11.784  15.060  68.854  1.00  0.00    -0.354 A  
HETATM   32  C   UNL     1     -11.407  16.328  68.417  1.00  0.00    -0.312 A  
HETATM   33  C   UNL     1     -10.084  16.584  68.037  1.00  0.00    -0.255 A  
HETATM   34  C   UNL     1      -9.675  17.957  67.562  1.00  0.00    -0.278 C  
HETATM   35  C   UNL     1      -9.142  15.542  68.104  1.00  0.00    -0.184 A  
HETATM   36  F   UNL     1     -10.711  18.843  67.512  1.00  0.00    -0.437 F  
HETATM   37  F   UNL     1      -9.143  17.940  66.308  1.00  0.00    -0.272 F  
HETATM   38  F   UNL     1      -8.736  18.532  68.362  1.00  0.00    -0.300 F  
ENDBRANCH  28  29
ENDBRANCH  27  28
ENDBRANCH  24  27
ENDBRANCH  23  24
ENDBRANCH  20  22
ENDBRANCH  12  13
ENDBRANCH  11  12
ENDBRANCH   9  10
ENDBRANCH   8   9
ENDBRANCH   7   8
ENDBRANCH   5   7
ENDBRANCH   4   5
ENDBRANCH   2   4
TORSDOF 13
ENDMDL
MODEL      154
REMARK 921   NORMALIZED FREE ENERGY PREDICTED BY IDOCK:   -5.46 KCAL/MOL
REMARK 922        TOTAL FREE ENERGY PREDICTED BY IDOCK:  -11.83 KCAL/MOL
REMARK 923 INTER-LIGAND FREE ENERGY PREDICTED BY IDOCK:   -9.15 KCAL/MOL
REMARK 924 INTRA-LIGAND FREE ENERGY PREDICTED BY IDOCK:   -2.68 KCAL/MOL
REMARK 927      BINDING AFFINITY PREDICTED BY RF-SCORE:    0.00 PKD
ROOT
HETATM    1  C   UNL     1      -9.532   8.428  66.635  1.00  0.00    -0.267 C  
HETATM    2  C   UNL     1     -10.747   7.893  67.385  1.00  0.00    -0.208 C  
HETATM    3  C   UNL     1     -11.036   6.449  66.986  1.00  0.00    -0.463 C  
ENDROOT
BRANCH   2   4
HETATM    4  O   UNL     1     -10.476   7.906  68.798  1.00  0.00    -0.207 OA 
BRANCH   4   5
HETATM    5  C   UNL     1      -9.302   7.318  69.163  1.00  0.00    -0.146 C  
HETATM    6  O   UNL     1      -9.093   6.112  69.169  1.00  0.00    -0.128 OA 
BRANCH   5   7
HETATM    7  C   UNL     1      -8.315   8.360  69.617  1.00  0.00    -0.122 C  
BRANCH   7   8
HETATM    8  C   UNL     1      -8.749   8.934  70.966  1.00  0.00    -0.276 C  
BRANCH   8   9
HETATM    9  C   UNL     1      -7.960   8.379  72.148  1.00  0.00    -0.181 C  
BRANCH   9  10
HETATM   10  C   UNL     1      -8.788   8.263  73.398  1.00  0.00    -0.270 C  
HETATM   11  C   UNL     1      -8.924   7.162  74.154  1.00  0.00    -0.255 C  
BRANCH  11  12
HETATM   12  C   UNL     1      -8.336   5.811  73.853  1.00  0.00    -0.112 C  
BRANCH  12  13
HETATM   13  C   UNL     1      -9.067   5.075  72.723  1.00  0.00    -0.137 C  
HETATM   14  C   UNL     1      -8.318   3.881  72.119  1.00  0.00    -0.092 C  
HETATM   15  O   UNL     1      -7.619   3.140  73.113  1.00  0.00    -0.053 OA 
HETATM   16  C   UNL     1      -9.425   3.003  71.548  1.00  0.00    -0.216 C  
HETATM   17  C   UNL     1     -10.532   3.088  72.594  1.00  0.00    -0.094 C  
HETATM   18  H   UNL     1      -7.155   2.400  72.739  1.00  0.00     0.000 HD 
HETATM   19  O   UNL     1     -10.310   2.106  73.612  1.00  0.00    -0.097 OA 
HETATM   20  C   UNL     1     -10.431   4.506  73.208  1.00  0.00    -0.259 C  
HETATM   21  H   UNL     1     -10.999   2.160  74.263  1.00  0.00     0.000 HD 
BRANCH  20  22
HETATM   22  C   UNL     1     -11.538   5.487  72.869  1.00  0.00    -0.280 C  
HETATM   23  C   UNL     1     -11.585   6.302  71.798  1.00  0.00    -0.358 C  
BRANCH  23  24
HETATM   24  C   UNL     1     -12.653   7.325  71.476  1.00  0.00    -0.379 C  
HETATM   25  H   UNL     1     -14.588   7.500  71.732  1.00  0.00     0.000 HD 
HETATM   26  O   UNL     1     -13.918   6.858  71.935  1.00  0.00    -0.276 OA 
BRANCH  24  27
HETATM   27  C   UNL     1     -12.316   8.677  72.135  1.00  0.00    -0.386 C  
BRANCH  27  28
HETATM   28  O   UNL     1     -13.379   9.626  71.947  1.00  0.00    -0.393 OA 
BRANCH  28  29
HETATM   29  C   UNL     1     -12.978  10.820  71.403  1.00  0.00    -0.432 A  
HETATM   30  C   UNL     1     -13.235  12.069  71.974  1.00  0.00    -0.481 A  
HETATM   31  C   UNL     1     -12.776  13.235  71.355  1.00  0.00    -0.401 A  
HETATM   32  C   UNL     1     -12.051  13.157  70.168  1.00  0.00    -0.392 A  
HETATM   33  C   UNL     1     -11.770  11.914  69.588  1.00  0.00    -0.413 A  
HETATM   34  C   UNL     1     -10.986  11.828  68.302  1.00  0.00    -0.229 C  
HETATM   35  C   UNL     1     -12.230  10.746  70.224  1.00  0.00    -0.431 A  
HETATM   36  F   UNL     1     -10.652  13.047  67.789  1.00  0.00    -0.215 F  
HETATM   37  F   UNL     1     -11.671  11.188  67.314  1.00  0.00    -0.342 F  
HETATM   38  F   UNL     1      -9.813  11.153  68.445  1.00  0.00    -0.159 F  
ENDBRANCH  28  29
ENDBRANCH  27  28
ENDBRANCH  24  27
ENDBRANCH  23  24
ENDBRANCH  20  22
ENDBRANCH  12  13
ENDBRANCH  11  12
ENDBRANCH   9  10
ENDBRANCH   8   9
ENDBRANCH   7   8
ENDBRANCH   5   7
ENDBRANCH   4   5
ENDBRANCH   2   4
TORSDOF 13
ENDMDL
MODEL      155
REMARK 921   NORMALIZED FREE ENERGY PREDICTED BY IDOCK:   -5.45 KCAL/MOL
REMARK 922        TOTAL FREE ENERGY PREDICTED BY IDOCK:  -11.82 KCAL/MOL
REMARK 923 INTER-LIGAND FREE ENERGY PREDICTED BY IDOCK:   -9.40 KCAL/MOL
REMARK 924 INTRA-LIGAND FREE ENERGY PREDICTED BY IDOCK:   -2.42 KCAL/MOL
REMARK 927      BINDING AFFINITY PREDICTED BY RF-SCORE:    0.00 PKD
ROOT
HETATM    1  C   UNL     1     -13.855  13.315  72.211  1.00  0.00    -0.637 C  
HETATM    2  C   UNL     1     -12.636  13.428  71.302  1.00  0.00    -0.322 C  
HETATM    3  C   UNL     1     -12.332  12.089  70.638  1.00  0.00    -0.394 C  
ENDROOT
BRANCH   2   4
HETATM    4  O   UNL     1     -12.909  14.378  70.256  1.00  0.00    -0.327 OA 
BRANCH   4   5
HETATM    5  C   UNL     1     -11.888  15.239  69.982  1.00  0.00    -0.334 C  
HETATM    6  O   UNL     1     -11.346  15.969  70.801  1.00  0.00    -0.369 OA 
BRANCH   5   7
HETATM    7  C   UNL     1     -11.560  15.208  68.513  1.00  0.00    -0.354 C  
BRANCH   7   8
HETATM    8  C   UNL     1     -10.153  14.646  68.307  1.00  0.00    -0.228 C  
BRANCH   8   9
HETATM    9  C   UNL     1     -10.139  13.219  67.767  1.00  0.00    -0.229 C  
BRANCH   9  10
HETATM   10  C   UNL     1     -11.421  12.846  67.074  1.00  0.00    -0.390 C  
HETATM   11  C   UNL     1     -11.537  12.437  65.800  1.00  0.00    -0.449 C  
BRANCH  11  12
HETATM   12  C   UNL     1     -10.418  12.347  64.800  1.00  0.00    -0.333 C  
BRANCH  12  13
HETATM   13  C   UNL     1      -9.935  10.910  64.564  1.00  0.00    -0.376 C  
HETATM   14  C   UNL     1      -9.494  10.589  63.131  1.00  0.00    -0.336 C  
HETATM   15  O   UNL     1      -8.796  11.679  62.538  1.00  0.00    -0.567 OA 
HETATM   16  C   UNL     1      -8.525   9.424  63.297  1.00  0.00    -0.202 C  
HETATM   17  C   UNL     1      -7.734   9.787  64.551  1.00  0.00    -0.137 C  
HETATM   18  H   UNL     1      -8.522  11.479  61.650  1.00  0.00     0.000 HD 
HETATM   19  O   UNL     1      -6.629  10.625  64.198  1.00  0.00    -0.354 OA 
HETATM   20  C   UNL     1      -8.711  10.570  65.461  1.00  0.00    -0.197 C  
HETATM   21  H   UNL     1      -6.137  10.851  64.978  1.00  0.00     0.000 HD 
BRANCH  20  22
HETATM   22  C   UNL     1      -9.187   9.874  66.724  1.00  0.00    -0.176 C  
HETATM   23  C   UNL     1      -9.953   8.770  66.789  1.00  0.00    -0.338 C  
BRANCH  23  24
HETATM   24  C   UNL     1     -10.482   8.098  68.037  1.00  0.00    -0.183 C  
HETATM   25  H   UNL     1     -10.655   6.265  68.710  1.00  0.00     0.000 HD 
HETATM   26  O   UNL     1     -10.322   6.687  67.926  1.00  0.00    -0.156 OA 
BRANCH  24  27
HETATM   27  C   UNL     1      -9.737   8.619  69.283  1.00  0.00    -0.173 C  
BRANCH  27  28
HETATM   28  O   UNL     1     -10.643   8.833  70.378  1.00  0.00    -0.207 OA 
BRANCH  28  29
HETATM   29  C   UNL     1     -10.246   8.255  71.558  1.00  0.00    -0.214 A  
HETATM   30  C   UNL     1     -11.094   8.028  72.646  1.00  0.00    -0.453 A  
HETATM   31  C   UNL     1     -10.606   7.420  73.805  1.00  0.00    -0.188 A  
HETATM   32  C   UNL     1      -9.271   7.028  73.878  1.00  0.00    -0.250 A  
HETATM   33  C   UNL     1      -8.410   7.232  72.794  1.00  0.00    -0.127 A  
HETATM   34  C   UNL     1      -6.963   6.809  72.873  1.00  0.00    -0.075 C  
HETATM   35  C   UNL     1      -8.913   7.838  71.628  1.00  0.00    -0.157 A  
HETATM   36  F   UNL     1      -6.620   6.279  74.083  1.00  0.00    -0.068 F  
HETATM   37  F   UNL     1      -6.103   7.845  72.668  1.00  0.00    -0.045 F  
HETATM   38  F   UNL     1      -6.640   5.863  71.951  1.00  0.00    -0.050 F  
ENDBRANCH  28  29
ENDBRANCH  27  28
ENDBRANCH  24  27
ENDBRANCH  23  24
ENDBRANCH  20  22
ENDBRANCH  12  13
ENDBRANCH  11  12
ENDBRANCH   9  10
ENDBRANCH   8   9
ENDBRANCH   7   8
ENDBRANCH   5   7
ENDBRANCH   4   5
ENDBRANCH   2   4
TORSDOF 13
ENDMDL
MODEL      156
REMARK 921   NORMALIZED FREE ENERGY PREDICTED BY IDOCK:   -5.45 KCAL/MOL
REMARK 922        TOTAL FREE ENERGY PREDICTED BY IDOCK:  -11.82 KCAL/MOL
REMARK 923 INTER-LIGAND FREE ENERGY PREDICTED BY IDOCK:   -7.88 KCAL/MOL
REMARK 924 INTRA-LIGAND FREE ENERGY PREDICTED BY IDOCK:   -3.94 KCAL/MOL
REMARK 927      BINDING AFFINITY PREDICTED BY RF-SCORE:    0.00 PKD
ROOT
HETATM    1  C   UNL     1      -5.962  12.128  67.167  1.00  0.00    -0.143 C  
HETATM    2  C   UNL     1      -5.645  10.914  66.300  1.00  0.00    -0.126 C  
HETATM    3  C   UNL     1      -5.459   9.669  67.162  1.00  0.00    -0.043 C  
ENDROOT
BRANCH   2   4
HETATM    4  O   UNL     1      -6.749  10.664  65.411  1.00  0.00    -0.107 OA 
BRANCH   4   5
HETATM    5  C   UNL     1      -6.415  10.056  64.238  1.00  0.00    -0.131 C  
HETATM    6  O   UNL     1      -5.735  10.561  63.355  1.00  0.00    -0.148 OA 
BRANCH   5   7
HETATM    7  C   UNL     1      -7.051   8.694  64.155  1.00  0.00    -0.090 C  
BRANCH   7   8
HETATM    8  C   UNL     1      -8.508   8.774  64.610  1.00  0.00    -0.169 C  
BRANCH   8   9
HETATM    9  C   UNL     1      -8.765   8.100  65.954  1.00  0.00    -0.184 C  
BRANCH   9  10
HETATM   10  C   UNL     1     -10.101   8.465  66.543  1.00  0.00    -0.317 C  
HETATM   11  C   UNL     1     -10.375   9.577  67.243  1.00  0.00    -0.319 C  
BRANCH  11  12
HETATM   12  C   UNL     1      -9.381  10.634  67.638  1.00  0.00    -0.156 C  
BRANCH  12  13
HETATM   13  C   UNL     1      -9.989  11.730  68.524  1.00  0.00    -0.203 C  
HETATM   14  C   UNL     1      -9.434  13.142  68.300  1.00  0.00    -0.210 C  
HETATM   15  O   UNL     1      -9.186  13.399  66.922  1.00  0.00    -0.236 OA 
HETATM   16  C   UNL     1     -10.558  14.058  68.770  1.00  0.00    -0.260 C  
HETATM   17  C   UNL     1     -11.822  13.368  68.266  1.00  0.00    -0.358 C  
HETATM   18  H   UNL     1      -8.842  14.274  66.784  1.00  0.00     0.000 HD 
HETATM   19  O   UNL     1     -12.087  13.772  66.919  1.00  0.00    -0.414 OA 
HETATM   20  C   UNL     1     -11.524  11.849  68.305  1.00  0.00    -0.372 C  
HETATM   21  H   UNL     1     -12.874  13.341  66.605  1.00  0.00     0.000 HD 
BRANCH  20  22
HETATM   22  C   UNL     1     -12.250  11.028  69.356  1.00  0.00    -0.329 C  
HETATM   23  C   UNL     1     -11.994  11.014  70.677  1.00  0.00    -0.464 C  
BRANCH  23  24
HETATM   24  C   UNL     1     -12.670  10.161  71.729  1.00  0.00    -0.434 C  
HETATM   25  H   UNL     1     -14.347   9.160  71.895  1.00  0.00     0.000 HD 
HETATM   26  O   UNL     1     -13.923   9.695  71.235  1.00  0.00    -0.202 OA 
BRANCH  24  27
HETATM   27  C   UNL     1     -11.772   8.966  72.107  1.00  0.00    -0.341 C  
BRANCH  27  28
HETATM   28  O   UNL     1     -11.867   7.915  71.130  1.00  0.00    -0.288 OA 
BRANCH  28  29
HETATM   29  C   UNL     1     -10.674   7.595  70.531  1.00  0.00    -0.236 A  
HETATM   30  C   UNL     1      -9.487   8.309  70.713  1.00  0.00    -0.185 A  
HETATM   31  C   UNL     1      -8.314   7.902  70.071  1.00  0.00    -0.121 A  
HETATM   32  C   UNL     1      -8.322   6.776  69.252  1.00  0.00    -0.125 A  
HETATM   33  C   UNL     1      -9.498   6.038  69.069  1.00  0.00    -0.143 A  
HETATM   34  C   UNL     1      -9.508   4.819  68.180  1.00  0.00    -0.141 C  
HETATM   35  C   UNL     1     -10.671   6.452  69.726  1.00  0.00    -0.341 A  
HETATM   36  F   UNL     1      -8.306   4.576  67.581  1.00  0.00    -0.098 F  
HETATM   37  F   UNL     1     -10.411   4.917  67.166  1.00  0.00    -0.214 F  
HETATM   38  F   UNL     1      -9.821   3.679  68.854  1.00  0.00    -0.234 F  
ENDBRANCH  28  29
ENDBRANCH  27  28
ENDBRANCH  24  27
ENDBRANCH  23  24
ENDBRANCH  20  22
ENDBRANCH  12  13
ENDBRANCH  11  12
ENDBRANCH   9  10
ENDBRANCH   8   9
ENDBRANCH   7   8
ENDBRANCH   5   7
ENDBRANCH   4   5
ENDBRANCH   2   4
TORSDOF 13
ENDMDL
MODEL      157
REMARK 921   NORMALIZED FREE ENERGY PREDICTED BY IDOCK:   -5.45 KCAL/MOL
REMARK 922        TOTAL FREE ENERGY PREDICTED BY IDOCK:  -11.81 KCAL/MOL
REMARK 923 INTER-LIGAND FREE ENERGY PREDICTED BY IDOCK:   -9.65 KCAL/MOL
REMARK 924 INTRA-LIGAND FREE ENERGY PREDICTED BY IDOCK:   -2.16 KCAL/MOL
REMARK 927      BINDING AFFINITY PREDICTED BY RF-SCORE:    0.00 PKD
ROOT
HETATM    1  C   UNL     1      -7.317   8.945  62.598  1.00  0.00    -0.099 C  
HETATM    2  C   UNL     1      -7.353   8.741  64.108  1.00  0.00    -0.101 C  
HETATM    3  C   UNL     1      -6.598   9.857  64.822  1.00  0.00    -0.121 C  
ENDROOT
BRANCH   2   4
HETATM    4  O   UNL     1      -8.718   8.782  64.561  1.00  0.00    -0.148 OA 
BRANCH   4   5
HETATM    5  C   UNL     1      -9.287  10.021  64.558  1.00  0.00    -0.286 C  
HETATM    6  O   UNL     1      -9.699  10.601  63.563  1.00  0.00    -0.291 OA 
BRANCH   5   7
HETATM    7  C   UNL     1      -9.282  10.601  65.947  1.00  0.00    -0.209 C  
BRANCH   7   8
HETATM    8  C   UNL     1     -10.265   9.836  66.833  1.00  0.00    -0.310 C  
BRANCH   8   9
HETATM    9  C   UNL     1      -9.601   9.125  68.009  1.00  0.00    -0.165 C  
BRANCH   9  10
HETATM   10  C   UNL     1      -9.655   7.627  67.890  1.00  0.00    -0.164 C  
HETATM   11  C   UNL     1      -9.471   6.750  68.891  1.00  0.00    -0.128 C  
BRANCH  11  12
HETATM   12  C   UNL     1      -9.100   7.098  70.306  1.00  0.00    -0.156 C  
BRANCH  12  13
HETATM   13  C   UNL     1     -10.174   6.696  71.326  1.00  0.00    -0.222 C  
HETATM   14  C   UNL     1      -9.896   5.405  72.104  1.00  0.00    -0.169 C  
HETATM   15  O   UNL     1      -8.518   5.277  72.437  1.00  0.00    -0.120 OA 
HETATM   16  C   UNL     1     -10.693   5.572  73.392  1.00  0.00    -0.317 C  
HETATM   17  C   UNL     1     -10.496   7.042  73.752  1.00  0.00    -0.354 C  
HETATM   18  H   UNL     1      -8.345   4.476  72.919  1.00  0.00     0.000 HD 
HETATM   19  O   UNL     1      -9.289   7.196  74.506  1.00  0.00    -0.389 OA 
HETATM   20  C   UNL     1     -10.368   7.797  72.406  1.00  0.00    -0.311 C  
HETATM   21  H   UNL     1      -9.166   8.111  74.730  1.00  0.00     0.000 HD 
BRANCH  20  22
HETATM   22  C   UNL     1     -11.523   8.699  72.008  1.00  0.00    -0.437 C  
HETATM   23  C   UNL     1     -11.463   9.755  71.175  1.00  0.00    -0.472 C  
BRANCH  23  24
HETATM   24  C   UNL     1     -12.590  10.697  70.813  1.00  0.00    -0.386 C  
HETATM   25  H   UNL     1     -13.504  12.219  71.643  1.00  0.00     0.000 HD 
HETATM   26  O   UNL     1     -12.796  11.628  71.871  1.00  0.00    -0.364 OA 
BRANCH  24  27
HETATM   27  C   UNL     1     -12.263  11.446  69.505  1.00  0.00    -0.235 C  
BRANCH  27  28
HETATM   28  O   UNL     1     -11.305  12.493  69.731  1.00  0.00    -0.169 OA 
BRANCH  28  29
HETATM   29  C   UNL     1     -10.877  13.121  68.588  1.00  0.00    -0.259 A  
HETATM   30  C   UNL     1      -9.624  13.722  68.444  1.00  0.00    -0.206 A  
HETATM   31  C   UNL     1      -9.268  14.328  67.237  1.00  0.00    -0.218 A  
HETATM   32  C   UNL     1     -10.159  14.328  66.166  1.00  0.00    -0.325 A  
HETATM   33  C   UNL     1     -11.413  13.718  66.285  1.00  0.00    -0.349 A  
HETATM   34  C   UNL     1     -12.379  13.718  65.126  1.00  0.00    -0.448 C  
HETATM   35  C   UNL     1     -11.759  13.103  67.502  1.00  0.00    -0.414 A  
HETATM   36  F   UNL     1     -11.914  14.392  64.034  1.00  0.00    -0.440 F  
HETATM   37  F   UNL     1     -13.570  14.300  65.437  1.00  0.00    -0.343 F  
HETATM   38  F   UNL     1     -12.675  12.465  64.687  1.00  0.00    -0.523 F  
ENDBRANCH  28  29
ENDBRANCH  27  28
ENDBRANCH  24  27
ENDBRANCH  23  24
ENDBRANCH  20  22
ENDBRANCH  12  13
ENDBRANCH  11  12
ENDBRANCH   9  10
ENDBRANCH   8   9
ENDBRANCH   7   8
ENDBRANCH   5   7
ENDBRANCH   4   5
ENDBRANCH   2   4
TORSDOF 13
ENDMDL
MODEL      158
REMARK 921   NORMALIZED FREE ENERGY PREDICTED BY IDOCK:   -5.44 KCAL/MOL
REMARK 922        TOTAL FREE ENERGY PREDICTED BY IDOCK:  -11.79 KCAL/MOL
REMARK 923 INTER-LIGAND FREE ENERGY PREDICTED BY IDOCK:  -10.09 KCAL/MOL
REMARK 924 INTRA-LIGAND FREE ENERGY PREDICTED BY IDOCK:   -1.70 KCAL/MOL
REMARK 927      BINDING AFFINITY PREDICTED BY RF-SCORE:    0.00 PKD
ROOT
HETATM    1  C   UNL     1     -12.832  14.997  73.247  1.00  0.00    -0.647 C  
HETATM    2  C   UNL     1     -12.842  15.920  72.034  1.00  0.00    -0.403 C  
HETATM    3  C   UNL     1     -11.427  16.374  71.689  1.00  0.00    -0.230 C  
ENDROOT
BRANCH   2   4
HETATM    4  O   UNL     1     -13.358  15.205  70.897  1.00  0.00    -0.427 OA 
BRANCH   4   5
HETATM    5  C   UNL     1     -12.496  14.305  70.345  1.00  0.00    -0.362 C  
HETATM    6  O   UNL     1     -12.188  13.231  70.844  1.00  0.00    -0.356 OA 
BRANCH   5   7
HETATM    7  C   UNL     1     -11.927  14.847  69.061  1.00  0.00    -0.307 C  
BRANCH   7   8
HETATM    8  C   UNL     1     -12.002  13.780  67.969  1.00  0.00    -0.390 C  
BRANCH   8   9
HETATM    9  C   UNL     1     -12.001  14.353  66.555  1.00  0.00    -0.406 C  
BRANCH   9  10
HETATM   10  C   UNL     1     -10.629  14.380  65.938  1.00  0.00    -0.312 C  
HETATM   11  C   UNL     1     -10.219  13.640  64.895  1.00  0.00    -0.363 C  
BRANCH  11  12
HETATM   12  C   UNL     1     -11.031  12.587  64.193  1.00  0.00    -0.425 C  
BRANCH  12  13
HETATM   13  C   UNL     1     -10.511  11.164  64.438  1.00  0.00    -0.418 C  
HETATM   14  C   UNL     1      -9.743  10.531  63.272  1.00  0.00    -0.312 C  
HETATM   15  O   UNL     1      -8.920  11.483  62.605  1.00  0.00    -0.514 OA 
HETATM   16  C   UNL     1      -8.845   9.497  63.940  1.00  0.00    -0.240 C  
HETATM   17  C   UNL     1      -8.374  10.194  65.212  1.00  0.00    -0.159 C  
HETATM   18  H   UNL     1      -8.444  11.090  61.882  1.00  0.00     0.000 HD 
HETATM   19  O   UNL     1      -7.213  10.983  64.928  1.00  0.00    -0.293 OA 
HETATM   20  C   UNL     1      -9.536  11.118  65.649  1.00  0.00    -0.259 C  
HETATM   21  H   UNL     1      -6.920  11.417  65.720  1.00  0.00     0.000 HD 
BRANCH  20  22
HETATM   22  C   UNL     1     -10.301  10.723  66.900  1.00  0.00    -0.290 C  
HETATM   23  C   UNL     1      -9.878  10.853  68.171  1.00  0.00    -0.187 C  
BRANCH  23  24
HETATM   24  C   UNL     1     -10.604  10.413  69.424  1.00  0.00    -0.239 C  
HETATM   25  H   UNL     1     -12.460  10.082  69.959  1.00  0.00     0.000 HD 
HETATM   26  O   UNL     1     -12.005  10.358  69.172  1.00  0.00    -0.150 OA 
BRANCH  24  27
HETATM   27  C   UNL     1     -10.093   9.032  69.882  1.00  0.00    -0.201 C  
BRANCH  27  28
HETATM   28  O   UNL     1     -11.111   8.028  69.739  1.00  0.00    -0.190 OA 
BRANCH  28  29
HETATM   29  C   UNL     1     -10.768   6.995  68.903  1.00  0.00    -0.200 A  
HETATM   30  C   UNL     1     -10.905   7.030  67.513  1.00  0.00    -0.338 A  
HETATM   31  C   UNL     1     -10.518   5.933  66.739  1.00  0.00    -0.344 A  
HETATM   32  C   UNL     1      -9.984   4.801  67.350  1.00  0.00    -0.204 A  
HETATM   33  C   UNL     1      -9.825   4.752  68.740  1.00  0.00    -0.218 A  
HETATM   34  C   UNL     1      -9.248   3.525  69.403  1.00  0.00    -0.157 C  
HETATM   35  C   UNL     1     -10.210   5.864  69.509  1.00  0.00    -0.288 A  
HETATM   36  F   UNL     1      -8.966   2.518  68.526  1.00  0.00    -0.104 F  
HETATM   37  F   UNL     1     -10.090   2.984  70.326  1.00  0.00    -0.106 F  
HETATM   38  F   UNL     1      -8.083   3.780  70.059  1.00  0.00    -0.053 F  
ENDBRANCH  28  29
ENDBRANCH  27  28
ENDBRANCH  24  27
ENDBRANCH  23  24
ENDBRANCH  20  22
ENDBRANCH  12  13
ENDBRANCH  11  12
ENDBRANCH   9  10
ENDBRANCH   8   9
ENDBRANCH   7   8
ENDBRANCH   5   7
ENDBRANCH   4   5
ENDBRANCH   2   4
TORSDOF 13
ENDMDL
MODEL      159
REMARK 921   NORMALIZED FREE ENERGY PREDICTED BY IDOCK:   -5.44 KCAL/MOL
REMARK 922        TOTAL FREE ENERGY PREDICTED BY IDOCK:  -11.79 KCAL/MOL
REMARK 923 INTER-LIGAND FREE ENERGY PREDICTED BY IDOCK:   -8.16 KCAL/MOL
REMARK 924 INTRA-LIGAND FREE ENERGY PREDICTED BY IDOCK:   -3.63 KCAL/MOL
REMARK 927      BINDING AFFINITY PREDICTED BY RF-SCORE:    0.00 PKD
ROOT
HETATM    1  C   UNL     1     -11.059  15.336  69.527  1.00  0.00    -0.286 C  
HETATM    2  C   UNL     1     -10.898  15.051  68.038  1.00  0.00    -0.270 C  
HETATM    3  C   UNL     1      -9.437  14.776  67.696  1.00  0.00    -0.204 C  
ENDROOT
BRANCH   2   4
HETATM    4  O   UNL     1     -11.652  13.875  67.695  1.00  0.00    -0.308 OA 
BRANCH   4   5
HETATM    5  C   UNL     1     -11.854  13.691  66.359  1.00  0.00    -0.398 C  
HETATM    6  O   UNL     1     -12.103  14.582  65.558  1.00  0.00    -0.357 OA 
BRANCH   5   7
HETATM    7  C   UNL     1     -11.785  12.227  66.017  1.00  0.00    -0.451 C  
BRANCH   7   8
HETATM    8  C   UNL     1     -10.331  11.816  65.781  1.00  0.00    -0.293 C  
BRANCH   8   9
HETATM    9  C   UNL     1      -9.861  10.685  66.691  1.00  0.00    -0.245 C  
BRANCH   9  10
HETATM   10  C   UNL     1      -9.536  11.153  68.083  1.00  0.00    -0.180 C  
HETATM   11  C   UNL     1      -9.878  10.532  69.223  1.00  0.00    -0.225 C  
BRANCH  11  12
HETATM   12  C   UNL     1     -10.720   9.291  69.328  1.00  0.00    -0.211 C  
BRANCH  12  13
HETATM   13  C   UNL     1     -11.166   8.986  70.765  1.00  0.00    -0.329 C  
HETATM   14  C   UNL     1     -12.253   9.909  71.328  1.00  0.00    -0.387 C  
HETATM   15  O   UNL     1     -13.222  10.246  70.341  1.00  0.00    -0.546 OA 
HETATM   16  C   UNL     1     -12.930   9.066  72.404  1.00  0.00    -0.471 C  
HETATM   17  C   UNL     1     -12.995   7.673  71.785  1.00  0.00    -0.328 C  
HETATM   18  H   UNL     1     -13.896  10.818  70.691  1.00  0.00     0.000 HD 
HETATM   19  O   UNL     1     -14.175   7.556  70.984  1.00  0.00    -0.668 OA 
HETATM   20  C   UNL     1     -11.741   7.546  70.885  1.00  0.00    -0.307 C  
HETATM   21  H   UNL     1     -14.215   6.688  70.598  1.00  0.00     0.000 HD 
BRANCH  20  22
HETATM   22  C   UNL     1     -10.647   6.603  71.353  1.00  0.00    -0.255 C  
HETATM   23  C   UNL     1     -10.760   5.273  71.530  1.00  0.00    -0.221 C  
BRANCH  23  24
HETATM   24  C   UNL     1      -9.697   4.328  72.049  1.00  0.00    -0.164 C  
HETATM   25  H   UNL     1      -9.646   2.660  73.076  1.00  0.00     0.000 HD 
HETATM   26  O   UNL     1     -10.314   3.253  72.750  1.00  0.00    -0.159 OA 
BRANCH  24  27
HETATM   27  C   UNL     1      -8.850   3.783  70.881  1.00  0.00    -0.082 C  
BRANCH  27  28
HETATM   28  O   UNL     1      -7.699   4.610  70.643  1.00  0.00    -0.053 OA 
BRANCH  28  29
HETATM   29  C   UNL     1      -7.825   5.452  69.567  1.00  0.00    -0.085 A  
HETATM   30  C   UNL     1      -8.590   5.169  68.432  1.00  0.00    -0.098 A  
HETATM   31  C   UNL     1      -8.671   6.094  67.388  1.00  0.00    -0.104 A  
HETATM   32  C   UNL     1      -7.995   7.308  67.476  1.00  0.00    -0.113 A  
HETATM   33  C   UNL     1      -7.235   7.617  68.611  1.00  0.00    -0.082 A  
HETATM   34  C   UNL     1      -6.500   8.932  68.707  1.00  0.00    -0.053 C  
HETATM   35  C   UNL     1      -7.167   6.683  69.661  1.00  0.00    -0.078 A  
HETATM   36  F   UNL     1      -6.629   9.707  67.592  1.00  0.00    -0.062 F  
HETATM   37  F   UNL     1      -5.160   8.770  68.890  1.00  0.00    -0.031 F  
HETATM   38  F   UNL     1      -6.932   9.701  69.743  1.00  0.00    -0.053 F  
ENDBRANCH  28  29
ENDBRANCH  27  28
ENDBRANCH  24  27
ENDBRANCH  23  24
ENDBRANCH  20  22
ENDBRANCH  12  13
ENDBRANCH  11  12
ENDBRANCH   9  10
ENDBRANCH   8   9
ENDBRANCH   7   8
ENDBRANCH   5   7
ENDBRANCH   4   5
ENDBRANCH   2   4
TORSDOF 13
ENDMDL
MODEL      160
REMARK 921   NORMALIZED FREE ENERGY PREDICTED BY IDOCK:   -5.43 KCAL/MOL
REMARK 922        TOTAL FREE ENERGY PREDICTED BY IDOCK:  -11.78 KCAL/MOL
REMARK 923 INTER-LIGAND FREE ENERGY PREDICTED BY IDOCK:   -8.62 KCAL/MOL
REMARK 924 INTRA-LIGAND FREE ENERGY PREDICTED BY IDOCK:   -3.16 KCAL/MOL
REMARK 927      BINDING AFFINITY PREDICTED BY RF-SCORE:    0.00 PKD
ROOT
HETATM    1  C   UNL     1     -12.130  12.970  63.403  1.00  0.00    -0.591 C  
HETATM    2  C   UNL     1     -11.550  13.136  64.804  1.00  0.00    -0.333 C  
HETATM    3  C   UNL     1     -12.420  14.068  65.641  1.00  0.00    -0.531 C  
ENDROOT
BRANCH   2   4
HETATM    4  O   UNL     1     -11.526  11.857  65.463  1.00  0.00    -0.321 OA 
BRANCH   4   5
HETATM    5  C   UNL     1     -10.301  11.260  65.513  1.00  0.00    -0.266 C  
HETATM    6  O   UNL     1      -9.301  11.661  64.934  1.00  0.00    -0.144 OA 
BRANCH   5   7
HETATM    7  C   UNL     1     -10.367  10.001  66.337  1.00  0.00    -0.249 C  
BRANCH   7   8
HETATM    8  C   UNL     1      -9.071   9.207  66.175  1.00  0.00    -0.234 C  
BRANCH   8   9
HETATM    9  C   UNL     1      -9.281   7.696  66.151  1.00  0.00    -0.168 C  
BRANCH   9  10
HETATM   10  C   UNL     1     -10.427   7.252  67.018  1.00  0.00    -0.398 C  
HETATM   11  C   UNL     1     -10.452   6.154  67.789  1.00  0.00    -0.290 C  
BRANCH  11  12
HETATM   12  C   UNL     1      -9.368   5.116  67.874  1.00  0.00    -0.139 C  
BRANCH  12  13
HETATM   13  C   UNL     1      -9.593   4.102  69.004  1.00  0.00    -0.232 C  
HETATM   14  C   UNL     1      -9.284   2.642  68.652  1.00  0.00    -0.179 C  
HETATM   15  O   UNL     1      -8.134   2.533  67.819  1.00  0.00    -0.063 OA 
HETATM   16  C   UNL     1      -8.970   1.997  69.997  1.00  0.00    -0.147 C  
HETATM   17  C   UNL     1      -8.161   3.063  70.730  1.00  0.00    -0.053 C  
HETATM   18  H   UNL     1      -7.943   1.628  67.601  1.00  0.00     0.000 HD 
HETATM   19  O   UNL     1      -6.778   2.945  70.378  1.00  0.00    -0.032 OA 
HETATM   20  C   UNL     1      -8.708   4.426  70.240  1.00  0.00    -0.119 C  
HETATM   21  H   UNL     1      -6.274   3.609  70.834  1.00  0.00     0.000 HD 
BRANCH  20  22
HETATM   22  C   UNL     1      -9.509   5.247  71.235  1.00  0.00    -0.197 C  
HETATM   23  C   UNL     1     -10.513   4.803  72.014  1.00  0.00    -0.225 C  
BRANCH  23  24
HETATM   24  C   UNL     1     -11.358   5.620  72.967  1.00  0.00    -0.236 C  
HETATM   25  H   UNL     1     -11.057   6.710  74.569  1.00  0.00     0.000 HD 
HETATM   26  O   UNL     1     -10.527   6.197  73.970  1.00  0.00    -0.279 OA 
BRANCH  24  27
HETATM   27  C   UNL     1     -12.112   6.726  72.203  1.00  0.00    -0.252 C  
BRANCH  27  28
HETATM   28  O   UNL     1     -11.828   8.024  72.751  1.00  0.00    -0.372 OA 
BRANCH  28  29
HETATM   29  C   UNL     1     -11.478   8.966  71.817  1.00  0.00    -0.353 A  
HETATM   30  C   UNL     1     -12.315  10.000  71.391  1.00  0.00    -0.512 A  
HETATM   31  C   UNL     1     -11.869  10.924  70.443  1.00  0.00    -0.449 A  
HETATM   32  C   UNL     1     -10.581  10.823  69.922  1.00  0.00    -0.130 A  
HETATM   33  C   UNL     1      -9.721   9.803  70.346  1.00  0.00    -0.244 A  
HETATM   34  C   UNL     1      -8.326   9.692  69.782  1.00  0.00    -0.174 C  
HETATM   35  C   UNL     1     -10.177   8.883  71.308  1.00  0.00    -0.361 A  
HETATM   36  F   UNL     1      -8.052  10.629  68.829  1.00  0.00    -0.105 F  
HETATM   37  F   UNL     1      -8.096   8.487  69.189  1.00  0.00    -0.107 F  
HETATM   38  F   UNL     1      -7.361   9.836  70.730  1.00  0.00    -0.134 F  
ENDBRANCH  28  29
ENDBRANCH  27  28
ENDBRANCH  24  27
ENDBRANCH  23  24
ENDBRANCH  20  22
ENDBRANCH  12  13
ENDBRANCH  11  12
ENDBRANCH   9  10
ENDBRANCH   8   9
ENDBRANCH   7   8
ENDBRANCH   5   7
ENDBRANCH   4   5
ENDBRANCH   2   4
TORSDOF 13
ENDMDL
MODEL      161
REMARK 921   NORMALIZED FREE ENERGY PREDICTED BY IDOCK:   -5.43 KCAL/MOL
REMARK 922        TOTAL FREE ENERGY PREDICTED BY IDOCK:  -11.78 KCAL/MOL
REMARK 923 INTER-LIGAND FREE ENERGY PREDICTED BY IDOCK:   -9.18 KCAL/MOL
REMARK 924 INTRA-LIGAND FREE ENERGY PREDICTED BY IDOCK:   -2.60 KCAL/MOL
REMARK 927      BINDING AFFINITY PREDICTED BY RF-SCORE:    0.00 PKD
ROOT
HETATM    1  C   UNL     1      -5.161  10.722  64.162  1.00  0.00    -0.129 C  
HETATM    2  C   UNL     1      -6.496  10.295  63.563  1.00  0.00    -0.105 C  
HETATM    3  C   UNL     1      -6.282   9.352  62.384  1.00  0.00    -0.093 C  
ENDROOT
BRANCH   2   4
HETATM    4  O   UNL     1      -7.256   9.583  64.556  1.00  0.00    -0.101 OA 
BRANCH   4   5
HETATM    5  C   UNL     1      -8.102  10.356  65.294  1.00  0.00    -0.152 C  
HETATM    6  O   UNL     1      -7.825  10.870  66.370  1.00  0.00    -0.145 OA 
BRANCH   5   7
HETATM    7  C   UNL     1      -9.450  10.439  64.628  1.00  0.00    -0.336 C  
BRANCH   7   8
HETATM    8  C   UNL     1     -10.377  11.342  65.442  1.00  0.00    -0.328 C  
BRANCH   8   9
HETATM    9  C   UNL     1     -11.216  12.285  64.585  1.00  0.00    -0.363 C  
BRANCH   9  10
HETATM   10  C   UNL     1     -12.346  12.917  65.350  1.00  0.00    -0.538 C  
HETATM   11  C   UNL     1     -12.291  14.079  66.021  1.00  0.00    -0.504 C  
BRANCH  11  12
HETATM   12  C   UNL     1     -11.066  14.932  66.200  1.00  0.00    -0.335 C  
BRANCH  12  13
HETATM   13  C   UNL     1     -10.304  14.627  67.496  1.00  0.00    -0.234 C  
HETATM   14  C   UNL     1      -8.817  14.292  67.325  1.00  0.00    -0.214 C  
HETATM   15  O   UNL     1      -8.210  15.091  66.316  1.00  0.00    -0.306 OA 
HETATM   16  C   UNL     1      -8.201  14.657  68.670  1.00  0.00    -0.159 C  
HETATM   17  C   UNL     1      -8.917  15.947  69.059  1.00  0.00    -0.245 C  
HETATM   18  H   UNL     1      -7.288  14.883  66.210  1.00  0.00     0.000 HD 
HETATM   19  O   UNL     1      -8.245  17.067  68.474  1.00  0.00    -0.239 OA 
HETATM   20  C   UNL     1     -10.346  15.834  68.475  1.00  0.00    -0.229 C  
HETATM   21  H   UNL     1      -8.691  17.870  68.716  1.00  0.00     0.000 HD 
BRANCH  20  22
HETATM   22  C   UNL     1     -11.484  15.645  69.463  1.00  0.00    -0.349 C  
HETATM   23  C   UNL     1     -11.479  14.845  70.545  1.00  0.00    -0.310 C  
BRANCH  23  24
HETATM   24  C   UNL     1     -12.623  14.602  71.506  1.00  0.00    -0.343 C  
HETATM   25  H   UNL     1     -14.301  15.496  71.985  1.00  0.00     0.000 HD 
HETATM   26  O   UNL     1     -13.583  15.648  71.381  1.00  0.00    -0.498 OA 
BRANCH  24  27
HETATM   27  C   UNL     1     -13.285  13.239  71.219  1.00  0.00    -0.148 C  
BRANCH  27  28
HETATM   28  O   UNL     1     -12.466  12.155  71.688  1.00  0.00    -0.139 OA 
BRANCH  28  29
HETATM   29  C   UNL     1     -11.923  11.387  70.689  1.00  0.00    -0.314 A  
HETATM   30  C   UNL     1     -11.903  11.751  69.340  1.00  0.00    -0.398 A  
HETATM   31  C   UNL     1     -11.316  10.910  68.391  1.00  0.00    -0.370 A  
HETATM   32  C   UNL     1     -10.739   9.705  68.788  1.00  0.00    -0.234 A  
HETATM   33  C   UNL     1     -10.735   9.329  70.137  1.00  0.00    -0.269 A  
HETATM   34  C   UNL     1     -10.112   8.025  70.567  1.00  0.00    -0.192 C  
HETATM   35  C   UNL     1     -11.322  10.187  71.085  1.00  0.00    -0.326 A  
HETATM   36  F   UNL     1      -9.627   7.287  69.527  1.00  0.00    -0.155 F  
HETATM   37  F   UNL     1     -10.993   7.212  71.215  1.00  0.00    -0.243 F  
HETATM   38  F   UNL     1      -9.063   8.197  71.417  1.00  0.00    -0.141 F  
ENDBRANCH  28  29
ENDBRANCH  27  28
ENDBRANCH  24  27
ENDBRANCH  23  24
ENDBRANCH  20  22
ENDBRANCH  12  13
ENDBRANCH  11  12
ENDBRANCH   9  10
ENDBRANCH   8   9
ENDBRANCH   7   8
ENDBRANCH   5   7
ENDBRANCH   4   5
ENDBRANCH   2   4
TORSDOF 13
ENDMDL
MODEL      162
REMARK 921   NORMALIZED FREE ENERGY PREDICTED BY IDOCK:   -5.43 KCAL/MOL
REMARK 922        TOTAL FREE ENERGY PREDICTED BY IDOCK:  -11.77 KCAL/MOL
REMARK 923 INTER-LIGAND FREE ENERGY PREDICTED BY IDOCK:   -9.33 KCAL/MOL
REMARK 924 INTRA-LIGAND FREE ENERGY PREDICTED BY IDOCK:   -2.45 KCAL/MOL
REMARK 927      BINDING AFFINITY PREDICTED BY RF-SCORE:    0.00 PKD
ROOT
HETATM    1  C   UNL     1      -9.894   5.204  66.507  1.00  0.00    -0.210 C  
HETATM    2  C   UNL     1      -9.847   6.709  66.751  1.00  0.00    -0.173 C  
HETATM    3  C   UNL     1     -10.684   7.085  67.970  1.00  0.00    -0.252 C  
ENDROOT
BRANCH   2   4
HETATM    4  O   UNL     1      -8.490   7.105  67.019  1.00  0.00    -0.119 OA 
BRANCH   4   5
HETATM    5  C   UNL     1      -8.144   8.331  66.534  1.00  0.00    -0.105 C  
HETATM    6  O   UNL     1      -8.370   8.727  65.399  1.00  0.00    -0.133 OA 
BRANCH   5   7
HETATM    7  C   UNL     1      -7.388   9.110  67.578  1.00  0.00    -0.084 C  
BRANCH   7   8
HETATM    8  C   UNL     1      -6.906   8.168  68.681  1.00  0.00    -0.067 C  
BRANCH   8   9
HETATM    9  C   UNL     1      -7.137   8.709  70.089  1.00  0.00    -0.044 C  
BRANCH   9  10
HETATM   10  C   UNL     1      -7.312   7.618  71.110  1.00  0.00    -0.073 C  
HETATM   11  C   UNL     1      -8.319   7.519  71.992  1.00  0.00    -0.121 C  
BRANCH  11  12
HETATM   12  C   UNL     1      -9.424   8.521  72.180  1.00  0.00    -0.375 C  
BRANCH  12  13
HETATM   13  C   UNL     1     -10.747   8.086  71.535  1.00  0.00    -0.274 C  
HETATM   14  C   UNL     1     -11.584   7.093  72.350  1.00  0.00    -0.253 C  
HETATM   15  O   UNL     1     -11.534   7.382  73.743  1.00  0.00    -0.332 OA 
HETATM   16  C   UNL     1     -13.008   7.320  71.858  1.00  0.00    -0.291 C  
HETATM   17  C   UNL     1     -13.097   8.834  71.693  1.00  0.00    -0.352 C  
HETATM   18  H   UNL     1     -12.053   6.766  74.249  1.00  0.00     0.000 HD 
HETATM   19  O   UNL     1     -13.458   9.435  72.941  1.00  0.00    -0.623 OA 
HETATM   20  C   UNL     1     -11.680   9.303  71.281  1.00  0.00    -0.416 C  
HETATM   21  H   UNL     1     -13.513  10.378  72.838  1.00  0.00     0.000 HD 
BRANCH  20  22
HETATM   22  C   UNL     1     -11.500   9.789  69.853  1.00  0.00    -0.190 C  
HETATM   23  C   UNL     1     -10.904  10.932  69.467  1.00  0.00    -0.286 C  
BRANCH  23  24
HETATM   24  C   UNL     1     -10.767  11.457  68.054  1.00  0.00    -0.200 C  
HETATM   25  H   UNL     1     -11.848  11.460  66.419  1.00  0.00     0.000 HD 
HETATM   26  O   UNL     1     -11.934  11.130  67.306  1.00  0.00    -0.452 OA 
BRANCH  24  27
HETATM   27  C   UNL     1     -10.558  12.985  68.068  1.00  0.00    -0.235 C  
BRANCH  27  28
HETATM   28  O   UNL     1     -11.767  13.672  68.432  1.00  0.00    -0.316 OA 
BRANCH  28  29
HETATM   29  C   UNL     1     -11.593  14.663  69.365  1.00  0.00    -0.305 A  
HETATM   30  C   UNL     1     -10.750  15.764  69.193  1.00  0.00    -0.246 A  
HETATM   31  C   UNL     1     -10.645  16.734  70.193  1.00  0.00     0.068 A  
HETATM   32  C   UNL     1     -11.388  16.611  71.366  1.00  0.00     0.139 A  
HETATM   33  C   UNL     1     -12.249  15.523  71.551  1.00  0.00    -0.462 A  
HETATM   34  C   UNL     1     -13.052  15.388  72.820  1.00  0.00    -0.466 C  
HETATM   35  C   UNL     1     -12.354  14.557  70.534  1.00  0.00    -0.403 A  
HETATM   36  F   UNL     1     -12.806  16.380  73.725  1.00  0.00    -0.548 F  
HETATM   37  F   UNL     1     -12.802  14.221  73.477  1.00  0.00    -0.574 F  
HETATM   38  F   UNL     1     -14.395  15.416  72.599  1.00  0.00    -0.556 F  
ENDBRANCH  28  29
ENDBRANCH  27  28
ENDBRANCH  24  27
ENDBRANCH  23  24
ENDBRANCH  20  22
ENDBRANCH  12  13
ENDBRANCH  11  12
ENDBRANCH   9  10
ENDBRANCH   8   9
ENDBRANCH   7   8
ENDBRANCH   5   7
ENDBRANCH   4   5
ENDBRANCH   2   4
TORSDOF 13
ENDMDL
MODEL      163
REMARK 921   NORMALIZED FREE ENERGY PREDICTED BY IDOCK:   -5.43 KCAL/MOL
REMARK 922        TOTAL FREE ENERGY PREDICTED BY IDOCK:  -11.77 KCAL/MOL
REMARK 923 INTER-LIGAND FREE ENERGY PREDICTED BY IDOCK:   -9.28 KCAL/MOL
REMARK 924 INTRA-LIGAND FREE ENERGY PREDICTED BY IDOCK:   -2.50 KCAL/MOL
REMARK 927      BINDING AFFINITY PREDICTED BY RF-SCORE:    0.00 PKD
ROOT
HETATM    1  C   UNL     1     -11.378  15.254  69.912  1.00  0.00    -0.308 C  
HETATM    2  C   UNL     1     -11.010  14.783  68.509  1.00  0.00    -0.258 C  
HETATM    3  C   UNL     1      -9.497  14.650  68.364  1.00  0.00    -0.209 C  
ENDROOT
BRANCH   2   4
HETATM    4  O   UNL     1     -11.584  13.484  68.279  1.00  0.00    -0.301 OA 
BRANCH   4   5
HETATM    5  C   UNL     1     -11.842  13.194  66.972  1.00  0.00    -0.379 C  
HETATM    6  O   UNL     1     -12.323  13.974  66.162  1.00  0.00    -0.448 OA 
BRANCH   5   7
HETATM    7  C   UNL     1     -11.507  11.755  66.680  1.00  0.00    -0.337 C  
BRANCH   7   8
HETATM    8  C   UNL     1      -9.999  11.605  66.477  1.00  0.00    -0.230 C  
BRANCH   8   9
HETATM    9  C   UNL     1      -9.420  10.347  67.116  1.00  0.00    -0.183 C  
BRANCH   9  10
HETATM   10  C   UNL     1      -8.985  10.564  68.540  1.00  0.00    -0.147 C  
HETATM   11  C   UNL     1      -9.438   9.896  69.613  1.00  0.00    -0.252 C  
BRANCH  11  12
HETATM   12  C   UNL     1     -10.523   8.855  69.606  1.00  0.00    -0.218 C  
BRANCH  12  13
HETATM   13  C   UNL     1     -11.156   8.637  70.986  1.00  0.00    -0.316 C  
HETATM   14  C   UNL     1     -12.253   9.635  71.375  1.00  0.00    -0.385 C  
HETATM   15  O   UNL     1     -13.074   9.976  70.263  1.00  0.00    -0.591 OA 
HETATM   16  C   UNL     1     -13.100   8.876  72.389  1.00  0.00    -0.476 C  
HETATM   17  C   UNL     1     -13.164   7.461  71.820  1.00  0.00    -0.318 C  
HETATM   18  H   UNL     1     -13.754  10.595  70.504  1.00  0.00     0.000 HD 
HETATM   19  O   UNL     1     -14.243   7.367  70.884  1.00  0.00    -0.603 OA 
HETATM   20  C   UNL     1     -11.819   7.234  71.089  1.00  0.00    -0.345 C  
HETATM   21  H   UNL     1     -14.282   6.486  70.529  1.00  0.00     0.000 HD 
BRANCH  20  22
HETATM   22  C   UNL     1     -10.843   6.259  71.724  1.00  0.00    -0.294 C  
HETATM   23  C   UNL     1     -11.155   5.214  72.513  1.00  0.00    -0.257 C  
BRANCH  23  24
HETATM   24  C   UNL     1     -10.193   4.268  73.198  1.00  0.00    -0.159 C  
HETATM   25  H   UNL     1     -10.234   3.055  74.737  1.00  0.00     0.000 HD 
HETATM   26  O   UNL     1     -10.839   3.648  74.307  1.00  0.00    -0.192 OA 
BRANCH  24  27
HETATM   27  C   UNL     1      -9.698   3.196  72.207  1.00  0.00    -0.154 C  
BRANCH  27  28
HETATM   28  O   UNL     1      -8.710   3.733  71.312  1.00  0.00    -0.078 OA 
BRANCH  28  29
HETATM   29  C   UNL     1      -8.936   3.450  69.988  1.00  0.00    -0.104 A  
HETATM   30  C   UNL     1      -8.850   2.171  69.432  1.00  0.00    -0.140 A  
HETATM   31  C   UNL     1      -9.111   1.974  68.074  1.00  0.00    -0.210 A  
HETATM   32  C   UNL     1      -9.467   3.052  67.267  1.00  0.00    -0.138 A  
HETATM   33  C   UNL     1      -9.574   4.339  67.808  1.00  0.00    -0.210 A  
HETATM   34  C   UNL     1      -9.958   5.509  66.936  1.00  0.00    -0.179 C  
HETATM   35  C   UNL     1      -9.317   4.525  69.179  1.00  0.00    -0.214 A  
HETATM   36  F   UNL     1     -10.129   5.172  65.625  1.00  0.00    -0.179 F  
HETATM   37  F   UNL     1      -9.021   6.497  66.942  1.00  0.00    -0.116 F  
HETATM   38  F   UNL     1     -11.125   6.093  67.322  1.00  0.00    -0.346 F  
ENDBRANCH  28  29
ENDBRANCH  27  28
ENDBRANCH  24  27
ENDBRANCH  23  24
ENDBRANCH  20  22
ENDBRANCH  12  13
ENDBRANCH  11  12
ENDBRANCH   9  10
ENDBRANCH   8   9
ENDBRANCH   7   8
ENDBRANCH   5   7
ENDBRANCH   4   5
ENDBRANCH   2   4
TORSDOF 13
ENDMDL
MODEL      164
REMARK 921   NORMALIZED FREE ENERGY PREDICTED BY IDOCK:   -5.41 KCAL/MOL
REMARK 922        TOTAL FREE ENERGY PREDICTED BY IDOCK:  -11.74 KCAL/MOL
REMARK 923 INTER-LIGAND FREE ENERGY PREDICTED BY IDOCK:  -10.60 KCAL/MOL
REMARK 924 INTRA-LIGAND FREE ENERGY PREDICTED BY IDOCK:   -1.14 KCAL/MOL
REMARK 927      BINDING AFFINITY PREDICTED BY RF-SCORE:    0.00 PKD
ROOT
HETATM    1  C   UNL     1     -10.651  19.645  66.641  1.00  0.00    -0.599 C  
HETATM    2  C   UNL     1      -9.238  19.247  66.231  1.00  0.00    -0.331 C  
HETATM    3  C   UNL     1      -8.273  19.399  67.403  1.00  0.00    -0.319 C  
ENDROOT
BRANCH   2   4
HETATM    4  O   UNL     1      -9.229  17.863  65.838  1.00  0.00    -0.519 OA 
BRANCH   4   5
HETATM    5  C   UNL     1     -10.461  17.314  65.642  1.00  0.00    -0.181 C  
HETATM    6  O   UNL     1     -11.124  17.424  64.620  1.00  0.00    -1.029 OA 
BRANCH   5   7
HETATM    7  C   UNL     1     -10.918  16.601  66.887  1.00  0.00     0.050 C  
BRANCH   7   8
HETATM    8  C   UNL     1     -10.109  15.318  67.078  1.00  0.00    -0.248 C  
BRANCH   8   9
HETATM    9  C   UNL     1     -10.960  14.112  67.462  1.00  0.00    -0.292 C  
BRANCH   9  10
HETATM   10  C   UNL     1     -11.998  13.777  66.426  1.00  0.00    -0.473 C  
HETATM   11  C   UNL     1     -11.766  13.202  65.235  1.00  0.00    -0.375 C  
BRANCH  11  12
HETATM   12  C   UNL     1     -10.414  12.853  64.677  1.00  0.00    -0.385 C  
BRANCH  12  13
HETATM   13  C   UNL     1     -10.158  11.341  64.624  1.00  0.00    -0.343 C  
HETATM   14  C   UNL     1      -9.714  10.794  63.262  1.00  0.00    -0.355 C  
HETATM   15  O   UNL     1      -8.828  11.689  62.598  1.00  0.00    -0.611 OA 
HETATM   16  C   UNL     1      -8.951   9.521  63.606  1.00  0.00    -0.207 C  
HETATM   17  C   UNL     1      -8.165   9.898  64.859  1.00  0.00    -0.146 C  
HETATM   18  H   UNL     1      -8.553  11.349  61.754  1.00  0.00     0.000 HD 
HETATM   19  O   UNL     1      -6.927  10.510  64.484  1.00  0.00    -0.326 OA 
HETATM   20  C   UNL     1      -9.042  10.920  65.622  1.00  0.00    -0.223 C  
HETATM   21  H   UNL     1      -6.437  10.745  65.264  1.00  0.00     0.000 HD 
BRANCH  20  22
HETATM   22  C   UNL     1      -9.674  10.455  66.921  1.00  0.00    -0.223 C  
HETATM   23  C   UNL     1      -9.298  10.807  68.165  1.00  0.00    -0.155 C  
BRANCH  23  24
HETATM   24  C   UNL     1      -9.881  10.309  69.470  1.00  0.00    -0.220 C  
HETATM   25  H   UNL     1     -11.615   9.648  70.101  1.00  0.00     0.000 HD 
HETATM   26  O   UNL     1     -11.249   9.960  69.281  1.00  0.00    -0.211 OA 
BRANCH  24  27
HETATM   27  C   UNL     1      -9.088   9.089  69.980  1.00  0.00    -0.176 C  
BRANCH  27  28
HETATM   28  O   UNL     1      -8.442   9.375  71.232  1.00  0.00    -0.302 OA 
BRANCH  28  29
HETATM   29  C   UNL     1      -8.775   8.513  72.247  1.00  0.00    -0.190 A  
HETATM   30  C   UNL     1      -8.247   8.580  73.539  1.00  0.00    -0.059 A  
HETATM   31  C   UNL     1      -8.654   7.667  74.514  1.00  0.00    -0.188 A  
HETATM   32  C   UNL     1      -9.595   6.688  74.205  1.00  0.00    -0.296 A  
HETATM   33  C   UNL     1     -10.148   6.613  72.921  1.00  0.00    -0.200 A  
HETATM   34  C   UNL     1     -11.167   5.553  72.584  1.00  0.00    -0.295 C  
HETATM   35  C   UNL     1      -9.737   7.543  71.948  1.00  0.00    -0.191 A  
HETATM   36  F   UNL     1     -11.425   4.702  73.620  1.00  0.00    -0.364 F  
HETATM   37  F   UNL     1     -10.776   4.762  71.547  1.00  0.00    -0.237 F  
HETATM   38  F   UNL     1     -12.371   6.075  72.227  1.00  0.00    -0.377 F  
ENDBRANCH  28  29
ENDBRANCH  27  28
ENDBRANCH  24  27
ENDBRANCH  23  24
ENDBRANCH  20  22
ENDBRANCH  12  13
ENDBRANCH  11  12
ENDBRANCH   9  10
ENDBRANCH   8   9
ENDBRANCH   7   8
ENDBRANCH   5   7
ENDBRANCH   4   5
ENDBRANCH   2   4
TORSDOF 13
ENDMDL
MODEL      165
REMARK 921   NORMALIZED FREE ENERGY PREDICTED BY IDOCK:   -5.40 KCAL/MOL
REMARK 922        TOTAL FREE ENERGY PREDICTED BY IDOCK:  -11.72 KCAL/MOL
REMARK 923 INTER-LIGAND FREE ENERGY PREDICTED BY IDOCK:   -9.07 KCAL/MOL
REMARK 924 INTRA-LIGAND FREE ENERGY PREDICTED BY IDOCK:   -2.65 KCAL/MOL
REMARK 927      BINDING AFFINITY PREDICTED BY RF-SCORE:    0.00 PKD
ROOT
HETATM    1  C   UNL     1     -11.037   4.152  73.307  1.00  0.00    -0.318 C  
HETATM    2  C   UNL     1     -11.396   5.627  73.163  1.00  0.00    -0.180 C  
HETATM    3  C   UNL     1     -10.399   6.501  73.917  1.00  0.00    -0.356 C  
ENDROOT
BRANCH   2   4
HETATM    4  O   UNL     1     -11.334   5.998  71.774  1.00  0.00    -0.276 OA 
BRANCH   4   5
HETATM    5  C   UNL     1     -12.047   7.112  71.445  1.00  0.00    -0.344 C  
HETATM    6  O   UNL     1     -13.260   7.229  71.559  1.00  0.00    -0.376 OA 
BRANCH   5   7
HETATM    7  C   UNL     1     -11.137   8.161  70.864  1.00  0.00    -0.280 C  
BRANCH   7   8
HETATM    8  C   UNL     1     -11.578   9.548  71.331  1.00  0.00    -0.466 C  
BRANCH   8   9
HETATM    9  C   UNL     1     -11.325  10.647  70.303  1.00  0.00    -0.401 C  
BRANCH   9  10
HETATM   10  C   UNL     1     -10.621  10.144  69.073  1.00  0.00    -0.245 C  
HETATM   11  C   UNL     1     -10.594  10.752  67.876  1.00  0.00    -0.258 C  
BRANCH  11  12
HETATM   12  C   UNL     1     -11.327  12.014  67.516  1.00  0.00    -0.387 C  
BRANCH  12  13
HETATM   13  C   UNL     1     -11.684  12.098  66.026  1.00  0.00    -0.388 C  
HETATM   14  C   UNL     1     -12.515  13.319  65.614  1.00  0.00    -0.451 C  
HETATM   15  O   UNL     1     -12.113  14.491  66.315  1.00  0.00    -0.377 OA 
HETATM   16  C   UNL     1     -12.192  13.503  64.136  1.00  0.00    -0.449 C  
HETATM   17  C   UNL     1     -10.697  13.212  64.053  1.00  0.00    -0.302 C  
HETATM   18  H   UNL     1     -12.628  15.248  66.059  1.00  0.00     0.000 HD 
HETATM   19  O   UNL     1      -9.958  14.404  64.338  1.00  0.00    -0.588 OA 
HETATM   20  C   UNL     1     -10.407  12.148  65.139  1.00  0.00    -0.311 C  
HETATM   21  H   UNL     1      -9.027  14.223  64.286  1.00  0.00     0.000 HD 
BRANCH  20  22
HETATM   22  C   UNL     1     -10.067  10.747  64.663  1.00  0.00    -0.410 C  
HETATM   23  C   UNL     1      -8.908  10.094  64.862  1.00  0.00    -0.214 C  
BRANCH  23  24
HETATM   24  C   UNL     1      -8.533   8.721  64.346  1.00  0.00    -0.129 C  
HETATM   25  H   UNL     1      -7.366   7.988  62.953  1.00  0.00     0.000 HD 
HETATM   26  O   UNL     1      -7.601   8.850  63.277  1.00  0.00    -0.102 OA 
BRANCH  24  27
HETATM   27  C   UNL     1      -7.925   7.870  65.479  1.00  0.00    -0.119 C  
BRANCH  27  28
HETATM   28  O   UNL     1      -8.582   8.127  66.732  1.00  0.00    -0.125 OA 
BRANCH  28  29
HETATM   29  C   UNL     1      -8.861   7.000  67.463  1.00  0.00    -0.119 A  
HETATM   30  C   UNL     1      -9.642   5.937  67.001  1.00  0.00    -0.144 A  
HETATM   31  C   UNL     1      -9.862   4.820  67.811  1.00  0.00    -0.194 A  
HETATM   32  C   UNL     1      -9.297   4.758  69.083  1.00  0.00    -0.195 A  
HETATM   33  C   UNL     1      -8.499   5.806  69.558  1.00  0.00    -0.112 A  
HETATM   34  C   UNL     1      -7.888   5.740  70.936  1.00  0.00    -0.105 C  
HETATM   35  C   UNL     1      -8.276   6.922  68.731  1.00  0.00    -0.121 A  
HETATM   36  F   UNL     1      -8.234   4.616  71.629  1.00  0.00    -0.094 F  
HETATM   37  F   UNL     1      -8.259   6.787  71.724  1.00  0.00    -0.104 F  
HETATM   38  F   UNL     1      -6.527   5.752  70.909  1.00  0.00    -0.034 F  
ENDBRANCH  28  29
ENDBRANCH  27  28
ENDBRANCH  24  27
ENDBRANCH  23  24
ENDBRANCH  20  22
ENDBRANCH  12  13
ENDBRANCH  11  12
ENDBRANCH   9  10
ENDBRANCH   8   9
ENDBRANCH   7   8
ENDBRANCH   5   7
ENDBRANCH   4   5
ENDBRANCH   2   4
TORSDOF 13
ENDMDL
MODEL      166
REMARK 921   NORMALIZED FREE ENERGY PREDICTED BY IDOCK:   -5.39 KCAL/MOL
REMARK 922        TOTAL FREE ENERGY PREDICTED BY IDOCK:  -11.71 KCAL/MOL
REMARK 923 INTER-LIGAND FREE ENERGY PREDICTED BY IDOCK:   -9.88 KCAL/MOL
REMARK 924 INTRA-LIGAND FREE ENERGY PREDICTED BY IDOCK:   -1.83 KCAL/MOL
REMARK 927      BINDING AFFINITY PREDICTED BY RF-SCORE:    0.00 PKD
ROOT
HETATM    1  C   UNL     1      -8.634   6.612  66.118  1.00  0.00    -0.148 C  
HETATM    2  C   UNL     1      -9.709   6.327  67.160  1.00  0.00    -0.139 C  
HETATM    3  C   UNL     1     -10.823   7.366  67.085  1.00  0.00    -0.340 C  
ENDROOT
BRANCH   2   4
HETATM    4  O   UNL     1     -10.298   5.041  66.896  1.00  0.00    -0.228 OA 
BRANCH   4   5
HETATM    5  C   UNL     1      -9.655   3.986  67.473  1.00  0.00    -0.168 C  
HETATM    6  O   UNL     1      -9.300   2.974  66.884  1.00  0.00    -0.168 OA 
BRANCH   5   7
HETATM    7  C   UNL     1      -9.498   4.216  68.952  1.00  0.00    -0.238 C  
BRANCH   7   8
HETATM    8  C   UNL     1      -8.018   4.156  69.332  1.00  0.00    -0.056 C  
BRANCH   8   9
HETATM    9  C   UNL     1      -7.653   5.057  70.508  1.00  0.00    -0.070 C  
BRANCH   9  10
HETATM   10  C   UNL     1      -8.059   4.474  71.835  1.00  0.00    -0.100 C  
HETATM   11  C   UNL     1      -8.697   5.126  72.820  1.00  0.00    -0.119 C  
BRANCH  11  12
HETATM   12  C   UNL     1      -9.060   6.586  72.815  1.00  0.00    -0.142 C  
BRANCH  12  13
HETATM   13  C   UNL     1     -10.111   6.941  71.756  1.00  0.00    -0.198 C  
HETATM   14  C   UNL     1     -11.367   6.062  71.751  1.00  0.00    -0.265 C  
HETATM   15  O   UNL     1     -11.777   5.720  73.071  1.00  0.00    -0.513 OA 
HETATM   16  C   UNL     1     -12.436   6.950  71.126  1.00  0.00    -0.398 C  
HETATM   17  C   UNL     1     -12.158   8.326  71.722  1.00  0.00    -0.319 C  
HETATM   18  H   UNL     1     -12.555   5.175  73.068  1.00  0.00     0.000 HD 
HETATM   19  O   UNL     1     -12.826   8.450  72.982  1.00  0.00    -0.706 OA 
HETATM   20  C   UNL     1     -10.626   8.397  71.936  1.00  0.00    -0.370 C  
HETATM   21  H   UNL     1     -12.652   9.307  73.353  1.00  0.00     0.000 HD 
BRANCH  20  22
HETATM   22  C   UNL     1      -9.843   9.327  71.026  1.00  0.00    -0.355 C  
HETATM   23  C   UNL     1     -10.215   9.749  69.803  1.00  0.00    -0.271 C  
BRANCH  23  24
HETATM   24  C   UNL     1      -9.421  10.629  68.861  1.00  0.00    -0.192 C  
HETATM   25  H   UNL     1      -8.360  10.386  67.231  1.00  0.00     0.000 HD 
HETATM   26  O   UNL     1      -8.858   9.834  67.822  1.00  0.00    -0.128 OA 
BRANCH  24  27
HETATM   27  C   UNL     1     -10.326  11.723  68.260  1.00  0.00    -0.206 C  
BRANCH  27  28
HETATM   28  O   UNL     1      -9.587  12.930  68.009  1.00  0.00    -0.208 OA 
BRANCH  28  29
HETATM   29  C   UNL     1     -10.024  13.642  66.920  1.00  0.00    -0.260 A  
HETATM   30  C   UNL     1      -9.765  14.999  66.714  1.00  0.00    -0.253 A  
HETATM   31  C   UNL     1     -10.240  15.641  65.567  1.00  0.00    -0.414 A  
HETATM   32  C   UNL     1     -10.969  14.928  64.619  1.00  0.00    -0.323 A  
HETATM   33  C   UNL     1     -11.227  13.563  64.800  1.00  0.00    -0.363 A  
HETATM   34  C   UNL     1     -12.017  12.790  63.774  1.00  0.00    -0.510 C  
HETATM   35  C   UNL     1     -10.737  12.925  65.954  1.00  0.00    -0.291 A  
HETATM   36  F   UNL     1     -12.459  13.560  62.738  1.00  0.00    -0.445 F  
HETATM   37  F   UNL     1     -13.131  12.208  64.301  1.00  0.00    -0.533 F  
HETATM   38  F   UNL     1     -11.300  11.783  63.206  1.00  0.00    -0.444 F  
ENDBRANCH  28  29
ENDBRANCH  27  28
ENDBRANCH  24  27
ENDBRANCH  23  24
ENDBRANCH  20  22
ENDBRANCH  12  13
ENDBRANCH  11  12
ENDBRANCH   9  10
ENDBRANCH   8   9
ENDBRANCH   7   8
ENDBRANCH   5   7
ENDBRANCH   4   5
ENDBRANCH   2   4
TORSDOF 13
ENDMDL
MODEL      167
REMARK 921   NORMALIZED FREE ENERGY PREDICTED BY IDOCK:   -5.39 KCAL/MOL
REMARK 922        TOTAL FREE ENERGY PREDICTED BY IDOCK:  -11.70 KCAL/MOL
REMARK 923 INTER-LIGAND FREE ENERGY PREDICTED BY IDOCK:   -9.62 KCAL/MOL
REMARK 924 INTRA-LIGAND FREE ENERGY PREDICTED BY IDOCK:   -2.08 KCAL/MOL
REMARK 927      BINDING AFFINITY PREDICTED BY RF-SCORE:    0.00 PKD
ROOT
HETATM    1  C   UNL     1     -14.360   8.788  72.323  1.00  0.00    -0.468 C  
HETATM    2  C   UNL     1     -13.029   9.227  71.722  1.00  0.00    -0.396 C  
HETATM    3  C   UNL     1     -12.949  10.749  71.639  1.00  0.00    -0.581 C  
ENDROOT
BRANCH   2   4
HETATM    4  O   UNL     1     -11.955   8.783  72.570  1.00  0.00    -0.343 OA 
BRANCH   4   5
HETATM    5  C   UNL     1     -11.600   7.476  72.409  1.00  0.00    -0.309 C  
HETATM    6  O   UNL     1     -12.203   6.665  71.719  1.00  0.00    -0.339 OA 
BRANCH   5   7
HETATM    7  C   UNL     1     -10.393   7.156  73.249  1.00  0.00    -0.369 C  
BRANCH   7   8
HETATM    8  C   UNL     1     -10.321   5.650  73.503  1.00  0.00    -0.254 C  
BRANCH   8   9
HETATM    9  C   UNL     1      -9.243   4.944  72.685  1.00  0.00    -0.145 C  
BRANCH   9  10
HETATM   10  C   UNL     1      -9.808   4.146  71.542  1.00  0.00    -0.255 C  
HETATM   11  C   UNL     1      -9.163   3.829  70.408  1.00  0.00    -0.213 C  
BRANCH  11  12
HETATM   12  C   UNL     1      -7.779   4.278  70.030  1.00  0.00    -0.052 C  
BRANCH  12  13
HETATM   13  C   UNL     1      -7.677   4.758  68.577  1.00  0.00    -0.077 C  
HETATM   14  C   UNL     1      -7.205   3.707  67.565  1.00  0.00    -0.059 C  
HETATM   15  O   UNL     1      -7.745   2.420  67.852  1.00  0.00    -0.059 OA 
HETATM   16  C   UNL     1      -7.780   4.188  66.238  1.00  0.00    -0.090 C  
HETATM   17  C   UNL     1      -9.170   4.696  66.608  1.00  0.00    -0.129 C  
HETATM   18  H   UNL     1      -7.452   1.769  67.225  1.00  0.00     0.000 HD 
HETATM   19  O   UNL     1     -10.101   3.609  66.588  1.00  0.00    -0.356 OA 
HETATM   20  C   UNL     1      -9.052   5.254  68.047  1.00  0.00    -0.118 C  
HETATM   21  H   UNL     1     -10.967   3.924  66.819  1.00  0.00     0.000 HD 
BRANCH  20  22
HETATM   22  C   UNL     1      -9.145   6.761  68.214  1.00  0.00    -0.124 C  
HETATM   23  C   UNL     1      -9.505   7.421  69.330  1.00  0.00    -0.155 C  
BRANCH  23  24
HETATM   24  C   UNL     1      -9.657   8.918  69.497  1.00  0.00    -0.171 C  
HETATM   25  H   UNL     1      -8.558  10.509  69.180  1.00  0.00     0.000 HD 
HETATM   26  O   UNL     1      -8.463   9.570  69.075  1.00  0.00    -0.119 OA 
BRANCH  24  27
HETATM   27  C   UNL     1     -10.858   9.429  68.676  1.00  0.00    -0.109 C  
BRANCH  27  28
HETATM   28  O   UNL     1     -10.439   9.916  67.390  1.00  0.00    -0.232 OA 
BRANCH  28  29
HETATM   29  C   UNL     1     -10.946  11.148  67.062  1.00  0.00    -0.289 A  
HETATM   30  C   UNL     1     -11.214  12.159  67.988  1.00  0.00    -0.319 A  
HETATM   31  C   UNL     1     -11.718  13.390  67.562  1.00  0.00    -0.406 A  
HETATM   32  C   UNL     1     -11.949  13.619  66.207  1.00  0.00    -0.461 A  
HETATM   33  C   UNL     1     -11.673  12.624  65.262  1.00  0.00    -0.417 A  
HETATM   34  C   UNL     1     -11.923  12.870  63.794  1.00  0.00    -0.512 C  
HETATM   35  C   UNL     1     -11.157  11.391  65.701  1.00  0.00    -0.207 A  
HETATM   36  F   UNL     1     -12.465  14.096  63.536  1.00  0.00    -0.480 F  
HETATM   37  F   UNL     1     -12.784  11.966  63.252  1.00  0.00    -0.662 F  
HETATM   38  F   UNL     1     -10.787  12.804  63.048  1.00  0.00    -0.345 F  
ENDBRANCH  28  29
ENDBRANCH  27  28
ENDBRANCH  24  27
ENDBRANCH  23  24
ENDBRANCH  20  22
ENDBRANCH  12  13
ENDBRANCH  11  12
ENDBRANCH   9  10
ENDBRANCH   8   9
ENDBRANCH   7   8
ENDBRANCH   5   7
ENDBRANCH   4   5
ENDBRANCH   2   4
TORSDOF 13
ENDMDL
MODEL      168
REMARK 921   NORMALIZED FREE ENERGY PREDICTED BY IDOCK:   -5.39 KCAL/MOL
REMARK 922        TOTAL FREE ENERGY PREDICTED BY IDOCK:  -11.70 KCAL/MOL
REMARK 923 INTER-LIGAND FREE ENERGY PREDICTED BY IDOCK:   -9.78 KCAL/MOL
REMARK 924 INTRA-LIGAND FREE ENERGY PREDICTED BY IDOCK:   -1.92 KCAL/MOL
REMARK 927      BINDING AFFINITY PREDICTED BY RF-SCORE:    0.00 PKD
ROOT
HETATM    1  C   UNL     1      -9.503  19.960  66.014  1.00  0.00    -0.403 C  
HETATM    2  C   UNL     1      -9.415  19.080  67.256  1.00  0.00    -0.308 C  
HETATM    3  C   UNL     1     -10.398  19.551  68.323  1.00  0.00    -0.524 C  
ENDROOT
BRANCH   2   4
HETATM    4  O   UNL     1      -9.769  17.729  66.907  1.00  0.00    -0.277 OA 
BRANCH   4   5
HETATM    5  C   UNL     1      -8.711  16.896  66.692  1.00  0.00    -0.247 C  
HETATM    6  O   UNL     1      -7.558  17.122  67.035  1.00  0.00    -0.165 OA 
BRANCH   5   7
HETATM    7  C   UNL     1      -9.152  15.683  65.918  1.00  0.00    -0.277 C  
BRANCH   7   8
HETATM    8  C   UNL     1     -10.564  15.898  65.374  1.00  0.00    -0.439 C  
BRANCH   8   9
HETATM    9  C   UNL     1     -11.190  14.637  64.784  1.00  0.00    -0.395 C  
BRANCH   9  10
HETATM   10  C   UNL     1     -12.386  14.162  65.563  1.00  0.00    -0.472 C  
HETATM   11  C   UNL     1     -12.355  13.385  66.658  1.00  0.00    -0.324 C  
BRANCH  11  12
HETATM   12  C   UNL     1     -11.123  12.779  67.270  1.00  0.00    -0.314 C  
BRANCH  12  13
HETATM   13  C   UNL     1     -11.047  11.257  67.090  1.00  0.00    -0.364 C  
HETATM   14  C   UNL     1     -10.339  10.777  65.817  1.00  0.00    -0.230 C  
HETATM   15  O   UNL     1      -9.209  11.586  65.506  1.00  0.00    -0.287 OA 
HETATM   16  C   UNL     1      -9.851   9.378  66.173  1.00  0.00    -0.356 C  
HETATM   17  C   UNL     1      -9.373   9.517  67.615  1.00  0.00    -0.123 C  
HETATM   18  H   UNL     1      -8.770  11.288  64.717  1.00  0.00     0.000 HD 
HETATM   19  O   UNL     1      -8.015   9.969  67.632  1.00  0.00    -0.105 OA 
HETATM   20  C   UNL     1     -10.285  10.585  68.267  1.00  0.00    -0.185 C  
HETATM   21  H   UNL     1      -7.717  10.056  68.530  1.00  0.00     0.000 HD 
BRANCH  20  22
HETATM   22  C   UNL     1     -11.282  10.103  69.306  1.00  0.00    -0.247 C  
HETATM   23  C   UNL     1     -11.202  10.288  70.636  1.00  0.00    -0.406 C  
BRANCH  23  24
HETATM   24  C   UNL     1     -12.157   9.766  71.689  1.00  0.00    -0.394 C  
HETATM   25  H   UNL     1     -14.099   9.645  71.923  1.00  0.00     0.000 HD 
HETATM   26  O   UNL     1     -13.500   9.972  71.262  1.00  0.00    -0.349 OA 
BRANCH  24  27
HETATM   27  C   UNL     1     -11.907   8.265  71.942  1.00  0.00    -0.324 C  
BRANCH  27  28
HETATM   28  O   UNL     1     -10.519   7.934  71.771  1.00  0.00    -0.209 OA 
BRANCH  28  29
HETATM   29  C   UNL     1     -10.299   6.685  71.245  1.00  0.00    -0.205 A  
HETATM   30  C   UNL     1      -9.986   6.441  69.906  1.00  0.00    -0.198 A  
HETATM   31  C   UNL     1      -9.765   5.135  69.460  1.00  0.00    -0.262 A  
HETATM   32  C   UNL     1      -9.848   4.069  70.354  1.00  0.00    -0.209 A  
HETATM   33  C   UNL     1     -10.144   4.295  71.703  1.00  0.00    -0.216 A  
HETATM   34  C   UNL     1     -10.235   3.141  72.672  1.00  0.00    -0.154 C  
HETATM   35  C   UNL     1     -10.357   5.614  72.143  1.00  0.00    -0.256 A  
HETATM   36  F   UNL     1     -10.048   1.925  72.083  1.00  0.00    -0.189 F  
HETATM   37  F   UNL     1     -11.447   3.069  73.288  1.00  0.00    -0.276 F  
HETATM   38  F   UNL     1      -9.310   3.215  73.667  1.00  0.00    -0.089 F  
ENDBRANCH  28  29
ENDBRANCH  27  28
ENDBRANCH  24  27
ENDBRANCH  23  24
ENDBRANCH  20  22
ENDBRANCH  12  13
ENDBRANCH  11  12
ENDBRANCH   9  10
ENDBRANCH   8   9
ENDBRANCH   7   8
ENDBRANCH   5   7
ENDBRANCH   4   5
ENDBRANCH   2   4
TORSDOF 13
ENDMDL
MODEL      169
REMARK 921   NORMALIZED FREE ENERGY PREDICTED BY IDOCK:   -5.37 KCAL/MOL
REMARK 922        TOTAL FREE ENERGY PREDICTED BY IDOCK:  -11.67 KCAL/MOL
REMARK 923 INTER-LIGAND FREE ENERGY PREDICTED BY IDOCK:   -9.52 KCAL/MOL
REMARK 924 INTRA-LIGAND FREE ENERGY PREDICTED BY IDOCK:   -2.15 KCAL/MOL
REMARK 927      BINDING AFFINITY PREDICTED BY RF-SCORE:    0.00 PKD
ROOT
HETATM    1  C   UNL     1      -7.870  18.766  66.200  1.00  0.00    -0.263 C  
HETATM    2  C   UNL     1      -9.266  18.234  66.505  1.00  0.00    -0.292 C  
HETATM    3  C   UNL     1     -10.322  19.299  66.225  1.00  0.00    -0.566 C  
ENDROOT
BRANCH   2   4
HETATM    4  O   UNL     1      -9.545  17.112  65.648  1.00  0.00    -0.535 OA 
BRANCH   4   5
HETATM    5  C   UNL     1      -9.325  15.891  66.213  1.00  0.00    -0.322 C  
HETATM    6  O   UNL     1      -8.226  15.439  66.502  1.00  0.00    -0.223 OA 
BRANCH   5   7
HETATM    7  C   UNL     1     -10.625  15.150  66.376  1.00  0.00    -0.305 C  
BRANCH   7   8
HETATM    8  C   UNL     1     -10.587  14.309  67.653  1.00  0.00    -0.253 C  
BRANCH   8   9
HETATM    9  C   UNL     1     -11.960  13.815  68.099  1.00  0.00    -0.394 C  
BRANCH   9  10
HETATM   10  C   UNL     1     -12.090  13.731  69.596  1.00  0.00    -0.392 C  
HETATM   11  C   UNL     1     -12.051  12.606  70.328  1.00  0.00    -0.372 C  
BRANCH  11  12
HETATM   12  C   UNL     1     -11.947  11.208  69.784  1.00  0.00    -0.428 C  
BRANCH  12  13
HETATM   13  C   UNL     1     -11.491  10.187  70.835  1.00  0.00    -0.444 C  
HETATM   14  C   UNL     1     -12.510   9.875  71.938  1.00  0.00    -0.347 C  
HETATM   15  O   UNL     1     -13.839   9.825  71.430  1.00  0.00    -0.240 OA 
HETATM   16  C   UNL     1     -12.120   8.480  72.415  1.00  0.00    -0.436 C  
HETATM   17  C   UNL     1     -11.754   7.746  71.128  1.00  0.00    -0.284 C  
HETATM   18  H   UNL     1     -14.470   9.632  72.114  1.00  0.00     0.000 HD 
HETATM   19  O   UNL     1     -12.933   7.190  70.538  1.00  0.00    -0.581 OA 
HETATM   20  C   UNL     1     -11.155   8.816  70.182  1.00  0.00    -0.214 C  
HETATM   21  H   UNL     1     -12.705   6.733  69.737  1.00  0.00     0.000 HD 
BRANCH  20  22
HETATM   22  C   UNL     1      -9.663   8.739  69.909  1.00  0.00    -0.183 C  
HETATM   23  C   UNL     1      -8.687   9.330  70.623  1.00  0.00    -0.282 C  
BRANCH  23  24
HETATM   24  C   UNL     1      -7.202   9.309  70.331  1.00  0.00    -0.097 C  
HETATM   25  H   UNL     1      -5.543   9.567  71.343  1.00  0.00     0.000 HD 
HETATM   26  O   UNL     1      -6.476   9.579  71.526  1.00  0.00    -0.265 OA 
BRANCH  24  27
HETATM   27  C   UNL     1      -6.788   7.939  69.757  1.00  0.00    -0.042 C  
BRANCH  27  28
HETATM   28  O   UNL     1      -6.686   6.950  70.795  1.00  0.00    -0.051 OA 
BRANCH  28  29
HETATM   29  C   UNL     1      -7.721   6.050  70.819  1.00  0.00    -0.098 A  
HETATM   30  C   UNL     1      -8.141   5.306  69.713  1.00  0.00    -0.087 A  
HETATM   31  C   UNL     1      -9.198   4.401  69.832  1.00  0.00    -0.202 A  
HETATM   32  C   UNL     1      -9.835   4.229  71.060  1.00  0.00    -0.251 A  
HETATM   33  C   UNL     1      -9.419   4.953  72.183  1.00  0.00    -0.182 A  
HETATM   34  C   UNL     1     -10.109   4.769  73.513  1.00  0.00    -0.162 C  
HETATM   35  C   UNL     1      -8.348   5.856  72.054  1.00  0.00    -0.115 A  
HETATM   36  F   UNL     1     -11.154   3.894  73.463  1.00  0.00    -0.269 F  
HETATM   37  F   UNL     1     -10.625   5.931  74.000  1.00  0.00    -0.242 F  
HETATM   38  F   UNL     1      -9.275   4.293  74.477  1.00  0.00    -0.101 F  
ENDBRANCH  28  29
ENDBRANCH  27  28
ENDBRANCH  24  27
ENDBRANCH  23  24
ENDBRANCH  20  22
ENDBRANCH  12  13
ENDBRANCH  11  12
ENDBRANCH   9  10
ENDBRANCH   8   9
ENDBRANCH   7   8
ENDBRANCH   5   7
ENDBRANCH   4   5
ENDBRANCH   2   4
TORSDOF 13
ENDMDL
MODEL      170
REMARK 921   NORMALIZED FREE ENERGY PREDICTED BY IDOCK:   -5.37 KCAL/MOL
REMARK 922        TOTAL FREE ENERGY PREDICTED BY IDOCK:  -11.67 KCAL/MOL
REMARK 923 INTER-LIGAND FREE ENERGY PREDICTED BY IDOCK:   -9.08 KCAL/MOL
REMARK 924 INTRA-LIGAND FREE ENERGY PREDICTED BY IDOCK:   -2.58 KCAL/MOL
REMARK 927      BINDING AFFINITY PREDICTED BY RF-SCORE:    0.00 PKD
ROOT
HETATM    1  C   UNL     1      -5.576   9.954  63.696  1.00  0.00    -0.103 C  
HETATM    2  C   UNL     1      -6.811   9.483  64.455  1.00  0.00    -0.099 C  
HETATM    3  C   UNL     1      -7.286   8.132  63.930  1.00  0.00    -0.101 C  
ENDROOT
BRANCH   2   4
HETATM    4  O   UNL     1      -6.479   9.315  65.845  1.00  0.00    -0.069 OA 
BRANCH   4   5
HETATM    5  C   UNL     1      -6.556  10.451  66.595  1.00  0.00    -0.082 C  
HETATM    6  O   UNL     1      -5.769  11.386  66.536  1.00  0.00    -0.132 OA 
BRANCH   5   7
HETATM    7  C   UNL     1      -7.716  10.368  67.551  1.00  0.00    -0.094 C  
BRANCH   7   8
HETATM    8  C   UNL     1      -8.563  11.637  67.452  1.00  0.00    -0.149 C  
BRANCH   8   9
HETATM    9  C   UNL     1      -9.682  11.544  66.418  1.00  0.00    -0.231 C  
BRANCH   9  10
HETATM   10  C   UNL     1     -11.052  11.632  67.033  1.00  0.00    -0.359 C  
HETATM   11  C   UNL     1     -11.760  12.756  67.220  1.00  0.00    -0.440 C  
BRANCH  11  12
HETATM   12  C   UNL     1     -11.287  14.152  66.923  1.00  0.00    -0.343 C  
BRANCH  12  13
HETATM   13  C   UNL     1     -10.634  14.837  68.131  1.00  0.00    -0.241 C  
HETATM   14  C   UNL     1      -9.238  15.420  67.884  1.00  0.00    -0.180 C  
HETATM   15  O   UNL     1      -9.133  16.009  66.592  1.00  0.00    -0.210 OA 
HETATM   16  C   UNL     1      -9.108  16.520  68.931  1.00  0.00    -0.245 C  
HETATM   17  C   UNL     1     -10.492  17.163  68.955  1.00  0.00    -0.346 C  
HETATM   18  H   UNL     1      -8.268  16.371  66.440  1.00  0.00     0.000 HD 
HETATM   19  O   UNL     1     -10.573  18.170  67.941  1.00  0.00    -0.400 OA 
HETATM   20  C   UNL     1     -11.496  16.027  68.641  1.00  0.00    -0.377 C  
HETATM   21  H   UNL     1     -11.435  18.570  67.955  1.00  0.00     0.000 HD 
BRANCH  20  22
HETATM   22  C   UNL     1     -12.385  15.556  69.779  1.00  0.00    -0.261 C  
HETATM   23  C   UNL     1     -12.119  15.653  71.094  1.00  0.00    -0.454 C  
BRANCH  23  24
HETATM   24  C   UNL     1     -12.968  15.139  72.237  1.00  0.00    -0.354 C  
HETATM   25  H   UNL     1     -14.878  15.022  72.659  1.00  0.00     0.000 HD 
HETATM   26  O   UNL     1     -14.346  15.344  71.941  1.00  0.00    -0.526 OA 
BRANCH  24  27
HETATM   27  C   UNL     1     -12.695  13.640  72.475  1.00  0.00    -0.082 C  
BRANCH  27  28
HETATM   28  O   UNL     1     -13.123  12.849  71.354  1.00  0.00    -0.334 OA 
BRANCH  28  29
HETATM   29  C   UNL     1     -12.919  11.501  71.505  1.00  0.00    -0.380 A  
HETATM   30  C   UNL     1     -13.712  10.671  72.302  1.00  0.00     0.108 A  
HETATM   31  C   UNL     1     -13.439   9.304  72.387  1.00  0.00    -0.526 A  
HETATM   32  C   UNL     1     -12.376   8.759  71.669  1.00  0.00    -0.394 A  
HETATM   33  C   UNL     1     -11.579   9.570  70.853  1.00  0.00    -0.398 A  
HETATM   34  C   UNL     1     -10.427   8.981  70.077  1.00  0.00    -0.214 C  
HETATM   35  C   UNL     1     -11.868  10.944  70.769  1.00  0.00    -0.424 A  
HETATM   36  F   UNL     1     -10.250   7.647  70.300  1.00  0.00    -0.196 F  
HETATM   37  F   UNL     1      -9.236   9.567  70.383  1.00  0.00    -0.226 F  
HETATM   38  F   UNL     1     -10.577   9.113  68.731  1.00  0.00    -0.222 F  
ENDBRANCH  28  29
ENDBRANCH  27  28
ENDBRANCH  24  27
ENDBRANCH  23  24
ENDBRANCH  20  22
ENDBRANCH  12  13
ENDBRANCH  11  12
ENDBRANCH   9  10
ENDBRANCH   8   9
ENDBRANCH   7   8
ENDBRANCH   5   7
ENDBRANCH   4   5
ENDBRANCH   2   4
TORSDOF 13
ENDMDL
MODEL      171
REMARK 921   NORMALIZED FREE ENERGY PREDICTED BY IDOCK:   -5.36 KCAL/MOL
REMARK 922        TOTAL FREE ENERGY PREDICTED BY IDOCK:  -11.65 KCAL/MOL
REMARK 923 INTER-LIGAND FREE ENERGY PREDICTED BY IDOCK:   -8.69 KCAL/MOL
REMARK 924 INTRA-LIGAND FREE ENERGY PREDICTED BY IDOCK:   -2.96 KCAL/MOL
REMARK 927      BINDING AFFINITY PREDICTED BY RF-SCORE:    0.00 PKD
ROOT
HETATM    1  C   UNL     1     -11.515   6.678  72.522  1.00  0.00    -0.269 C  
HETATM    2  C   UNL     1     -10.247   7.008  73.302  1.00  0.00    -0.275 C  
HETATM    3  C   UNL     1     -10.051   6.027  74.454  1.00  0.00    -0.316 C  
ENDROOT
BRANCH   2   4
HETATM    4  O   UNL     1      -9.108   6.887  72.431  1.00  0.00    -0.134 OA 
BRANCH   4   5
HETATM    5  C   UNL     1      -8.796   8.017  71.734  1.00  0.00    -0.140 C  
HETATM    6  O   UNL     1      -8.652   9.128  72.226  1.00  0.00    -0.284 OA 
BRANCH   5   7
HETATM    7  C   UNL     1      -8.713   7.715  70.262  1.00  0.00    -0.144 C  
BRANCH   7   8
HETATM    8  C   UNL     1      -9.828   8.449  69.517  1.00  0.00    -0.181 C  
BRANCH   8   9
HETATM    9  C   UNL     1     -10.781   7.517  68.774  1.00  0.00    -0.122 C  
BRANCH   9  10
HETATM   10  C   UNL     1     -10.231   6.126  68.616  1.00  0.00    -0.220 C  
HETATM   11  C   UNL     1      -9.615   5.642  67.525  1.00  0.00    -0.124 C  
BRANCH  11  12
HETATM   12  C   UNL     1      -9.427   6.374  66.225  1.00  0.00    -0.133 C  
BRANCH  12  13
HETATM   13  C   UNL     1      -8.334   7.449  66.293  1.00  0.00    -0.132 C  
HETATM   14  C   UNL     1      -6.893   6.927  66.277  1.00  0.00    -0.064 C  
HETATM   15  O   UNL     1      -6.744   5.817  65.398  1.00  0.00    -0.042 OA 
HETATM   16  C   UNL     1      -6.084   8.095  65.725  1.00  0.00    -0.041 C  
HETATM   17  C   UNL     1      -6.974   8.664  64.625  1.00  0.00    -0.073 C  
HETATM   18  H   UNL     1      -5.850   5.494  65.388  1.00  0.00     0.000 HD 
HETATM   19  O   UNL     1      -6.741   7.957  63.403  1.00  0.00    -0.072 OA 
HETATM   20  C   UNL     1      -8.432   8.432  65.091  1.00  0.00    -0.179 C  
HETATM   21  H   UNL     1      -7.296   8.311  62.717  1.00  0.00     0.000 HD 
BRANCH  20  22
HETATM   22  C   UNL     1      -9.230   9.656  65.503  1.00  0.00    -0.291 C  
HETATM   23  C   UNL     1      -9.733  10.596  64.681  1.00  0.00    -0.360 C  
BRANCH  23  24
HETATM   24  C   UNL     1     -10.481  11.850  65.079  1.00  0.00    -0.289 C  
HETATM   25  H   UNL     1     -12.006  12.880  64.402  1.00  0.00     0.000 HD 
HETATM   26  O   UNL     1     -11.536  12.092  64.153  1.00  0.00    -0.339 OA 
BRANCH  24  27
HETATM   27  C   UNL     1     -11.051  11.705  66.504  1.00  0.00    -0.301 C  
BRANCH  27  28
HETATM   28  O   UNL     1     -10.312  12.504  67.443  1.00  0.00    -0.214 OA 
BRANCH  28  29
HETATM   29  C   UNL     1     -11.012  12.833  68.576  1.00  0.00    -0.258 A  
HETATM   30  C   UNL     1     -11.320  14.142  68.958  1.00  0.00    -0.310 A  
HETATM   31  C   UNL     1     -12.050  14.382  70.125  1.00  0.00    -0.397 A  
HETATM   32  C   UNL     1     -12.484  13.316  70.909  1.00  0.00    -0.424 A  
HETATM   33  C   UNL     1     -12.200  11.997  70.536  1.00  0.00    -0.414 A  
HETATM   34  C   UNL     1     -12.668  10.842  71.385  1.00  0.00    -0.439 C  
HETATM   35  C   UNL     1     -11.471  11.765  69.355  1.00  0.00    -0.371 A  
HETATM   36  F   UNL     1     -13.321  11.232  72.518  1.00  0.00    -0.480 F  
HETATM   37  F   UNL     1     -11.641  10.053  71.807  1.00  0.00    -0.425 F  
HETATM   38  F   UNL     1     -13.530  10.019  70.727  1.00  0.00    -0.438 F  
ENDBRANCH  28  29
ENDBRANCH  27  28
ENDBRANCH  24  27
ENDBRANCH  23  24
ENDBRANCH  20  22
ENDBRANCH  12  13
ENDBRANCH  11  12
ENDBRANCH   9  10
ENDBRANCH   8   9
ENDBRANCH   7   8
ENDBRANCH   5   7
ENDBRANCH   4   5
ENDBRANCH   2   4
TORSDOF 13
ENDMDL
MODEL      172
REMARK 921   NORMALIZED FREE ENERGY PREDICTED BY IDOCK:   -5.35 KCAL/MOL
REMARK 922        TOTAL FREE ENERGY PREDICTED BY IDOCK:  -11.63 KCAL/MOL
REMARK 923 INTER-LIGAND FREE ENERGY PREDICTED BY IDOCK:  -10.00 KCAL/MOL
REMARK 924 INTRA-LIGAND FREE ENERGY PREDICTED BY IDOCK:   -1.63 KCAL/MOL
REMARK 927      BINDING AFFINITY PREDICTED BY RF-SCORE:    0.00 PKD
ROOT
HETATM    1  C   UNL     1     -12.433  15.855  72.874  1.00  0.00    -0.582 C  
HETATM    2  C   UNL     1     -12.976  15.017  71.722  1.00  0.00    -0.347 C  
HETATM    3  C   UNL     1     -14.391  14.534  72.026  1.00  0.00    -0.639 C  
ENDROOT
BRANCH   2   4
HETATM    4  O   UNL     1     -13.040  15.826  70.534  1.00  0.00    -0.461 OA 
BRANCH   4   5
HETATM    5  C   UNL     1     -12.175  15.461  69.545  1.00  0.00    -0.246 C  
HETATM    6  O   UNL     1     -11.730  16.214  68.689  1.00  0.00    -0.362 OA 
BRANCH   5   7
HETATM    7  C   UNL     1     -11.891  13.984  69.617  1.00  0.00    -0.386 C  
BRANCH   7   8
HETATM    8  C   UNL     1     -10.429  13.719  69.260  1.00  0.00     0.040 C  
BRANCH   8   9
HETATM    9  C   UNL     1     -10.153  12.275  68.851  1.00  0.00     0.002 C  
BRANCH   9  10
HETATM   10  C   UNL     1      -8.753  12.071  68.340  1.00  0.00    -0.147 C  
HETATM   11  C   UNL     1      -8.274  12.504  67.163  1.00  0.00    -0.168 C  
BRANCH  11  12
HETATM   12  C   UNL     1      -9.067  13.209  66.097  1.00  0.00     0.094 C  
BRANCH  12  13
HETATM   13  C   UNL     1     -10.461  12.605  65.886  1.00  0.00    -0.295 C  
HETATM   14  C   UNL     1     -11.587  13.614  65.634  1.00  0.00    -0.328 C  
HETATM   15  O   UNL     1     -11.151  14.697  64.818  1.00  0.00    -0.401 OA 
HETATM   16  C   UNL     1     -12.632  12.816  64.863  1.00  0.00    -0.541 C  
HETATM   17  C   UNL     1     -11.803  11.955  63.915  1.00  0.00    -0.411 C  
HETATM   18  H   UNL     1     -11.849  15.322  64.661  1.00  0.00     0.000 HD 
HETATM   19  O   UNL     1     -11.519  12.690  62.720  1.00  0.00    -0.607 OA 
HETATM   20  C   UNL     1     -10.483  11.646  64.662  1.00  0.00    -0.354 C  
HETATM   21  H   UNL     1     -11.002  12.154  62.130  1.00  0.00     0.000 HD 
BRANCH  20  22
HETATM   22  C   UNL     1     -10.274  10.218  65.134  1.00  0.00    -0.295 C  
HETATM   23  C   UNL     1      -9.095   9.580  65.256  1.00  0.00    -0.276 C  
BRANCH  23  24
HETATM   24  C   UNL     1      -8.874   8.141  65.670  1.00  0.00    -0.120 C  
HETATM   25  H   UNL     1      -7.423   7.090  66.466  1.00  0.00     0.000 HD 
HETATM   26  O   UNL     1      -7.562   7.994  66.206  1.00  0.00    -0.087 OA 
BRANCH  24  27
HETATM   27  C   UNL     1      -9.924   7.718  66.717  1.00  0.00    -0.261 C  
BRANCH  27  28
HETATM   28  O   UNL     1      -9.594   8.228  68.020  1.00  0.00    -0.148 OA 
BRANCH  28  29
HETATM   29  C   UNL     1      -9.995   7.424  69.057  1.00  0.00    -0.176 A  
HETATM   30  C   UNL     1     -10.268   6.059  68.933  1.00  0.00    -0.246 A  
HETATM   31  C   UNL     1     -10.659   5.314  70.049  1.00  0.00    -0.300 A  
HETATM   32  C   UNL     1     -10.770   5.928  71.294  1.00  0.00    -0.325 A  
HETATM   33  C   UNL     1     -10.486   7.291  71.442  1.00  0.00    -0.219 A  
HETATM   34  C   UNL     1     -10.607   7.957  72.791  1.00  0.00    -0.353 C  
HETATM   35  C   UNL     1     -10.085   8.030  70.314  1.00  0.00    -0.192 A  
HETATM   36  F   UNL     1     -11.048   7.117  73.772  1.00  0.00    -0.328 F  
HETATM   37  F   UNL     1     -11.480   9.002  72.781  1.00  0.00    -0.216 F  
HETATM   38  F   UNL     1      -9.423   8.458  73.238  1.00  0.00    -0.314 F  
ENDBRANCH  28  29
ENDBRANCH  27  28
ENDBRANCH  24  27
ENDBRANCH  23  24
ENDBRANCH  20  22
ENDBRANCH  12  13
ENDBRANCH  11  12
ENDBRANCH   9  10
ENDBRANCH   8   9
ENDBRANCH   7   8
ENDBRANCH   5   7
ENDBRANCH   4   5
ENDBRANCH   2   4
TORSDOF 13
ENDMDL
MODEL      173
REMARK 921   NORMALIZED FREE ENERGY PREDICTED BY IDOCK:   -5.32 KCAL/MOL
REMARK 922        TOTAL FREE ENERGY PREDICTED BY IDOCK:  -11.58 KCAL/MOL
REMARK 923 INTER-LIGAND FREE ENERGY PREDICTED BY IDOCK:   -9.05 KCAL/MOL
REMARK 924 INTRA-LIGAND FREE ENERGY PREDICTED BY IDOCK:   -2.54 KCAL/MOL
REMARK 927      BINDING AFFINITY PREDICTED BY RF-SCORE:    0.00 PKD
ROOT
HETATM    1  C   UNL     1     -10.361   6.910  73.934  1.00  0.00    -0.398 C  
HETATM    2  C   UNL     1     -10.005   6.082  72.704  1.00  0.00    -0.176 C  
HETATM    3  C   UNL     1     -10.900   4.850  72.605  1.00  0.00    -0.264 C  
ENDROOT
BRANCH   2   4
HETATM    4  O   UNL     1     -10.222   6.871  71.521  1.00  0.00    -0.196 OA 
BRANCH   4   5
HETATM    5  C   UNL     1     -11.412   6.652  70.894  1.00  0.00    -0.347 C  
HETATM    6  O   UNL     1     -12.513   6.794  71.409  1.00  0.00    -0.359 OA 
BRANCH   5   7
HETATM    7  C   UNL     1     -11.180   6.152  69.493  1.00  0.00    -0.482 C  
BRANCH   7   8
HETATM    8  C   UNL     1      -9.714   6.349  69.108  1.00  0.00    -0.148 C  
BRANCH   8   9
HETATM    9  C   UNL     1      -9.297   5.557  67.872  1.00  0.00    -0.117 C  
BRANCH   9  10
HETATM   10  C   UNL     1      -7.851   5.761  67.510  1.00  0.00    -0.101 C  
HETATM   11  C   UNL     1      -7.393   6.473  66.468  1.00  0.00    -0.078 C  
BRANCH  11  12
HETATM   12  C   UNL     1      -8.240   7.139  65.419  1.00  0.00    -0.137 C  
BRANCH  12  13
HETATM   13  C   UNL     1      -8.128   8.669  65.437  1.00  0.00    -0.121 C  
HETATM   14  C   UNL     1      -7.557   9.304  64.164  1.00  0.00    -0.113 C  
HETATM   15  O   UNL     1      -8.016   8.639  62.992  1.00  0.00    -0.145 OA 
HETATM   16  C   UNL     1      -8.123  10.719  64.172  1.00  0.00     0.163 C  
HETATM   17  C   UNL     1      -9.555  10.534  64.665  1.00  0.00    -0.292 C  
HETATM   18  H   UNL     1      -7.662   9.033  62.203  1.00  0.00     0.000 HD 
HETATM   19  O   UNL     1     -10.409  10.224  63.559  1.00  0.00    -0.438 OA 
HETATM   20  C   UNL     1      -9.518   9.335  65.645  1.00  0.00    -0.324 C  
HETATM   21  H   UNL     1     -11.301  10.108  63.865  1.00  0.00     0.000 HD 
BRANCH  20  22
HETATM   22  C   UNL     1      -9.717   9.641  67.119  1.00  0.00    -0.222 C  
HETATM   23  C   UNL     1     -10.867   9.530  67.810  1.00  0.00    -0.258 C  
BRANCH  23  24
HETATM   24  C   UNL     1     -11.095   9.884  69.264  1.00  0.00    -0.181 C  
HETATM   25  H   UNL     1      -9.986  10.204  70.848  1.00  0.00     0.000 HD 
HETATM   26  O   UNL     1      -9.843   9.982  69.935  1.00  0.00    -0.235 OA 
BRANCH  24  27
HETATM   27  C   UNL     1     -11.863  11.216  69.377  1.00  0.00    -0.345 C  
BRANCH  27  28
HETATM   28  O   UNL     1     -10.960  12.330  69.467  1.00  0.00    -0.103 OA 
BRANCH  28  29
HETATM   29  C   UNL     1     -10.635  12.892  68.258  1.00  0.00    -0.246 A  
HETATM   30  C   UNL     1      -9.363  13.366  67.928  1.00  0.00    -0.216 A  
HETATM   31  C   UNL     1      -9.119  13.911  66.665  1.00  0.00    -0.209 A  
HETATM   32  C   UNL     1     -10.144  13.978  65.724  1.00  0.00    -0.345 A  
HETATM   33  C   UNL     1     -11.422  13.494  66.030  1.00  0.00    -0.345 A  
HETATM   34  C   UNL     1     -12.534  13.567  65.012  1.00  0.00    -0.417 C  
HETATM   35  C   UNL     1     -11.654  12.939  67.301  1.00  0.00    -0.416 A  
HETATM   36  F   UNL     1     -12.161  14.171  63.846  1.00  0.00    -0.493 F  
HETATM   37  F   UNL     1     -13.611  14.268  65.462  1.00  0.00    -0.386 F  
HETATM   38  F   UNL     1     -13.004  12.340  64.657  1.00  0.00    -0.555 F  
ENDBRANCH  28  29
ENDBRANCH  27  28
ENDBRANCH  24  27
ENDBRANCH  23  24
ENDBRANCH  20  22
ENDBRANCH  12  13
ENDBRANCH  11  12
ENDBRANCH   9  10
ENDBRANCH   8   9
ENDBRANCH   7   8
ENDBRANCH   5   7
ENDBRANCH   4   5
ENDBRANCH   2   4
TORSDOF 13
ENDMDL
MODEL      174
REMARK 921   NORMALIZED FREE ENERGY PREDICTED BY IDOCK:   -5.31 KCAL/MOL
REMARK 922        TOTAL FREE ENERGY PREDICTED BY IDOCK:  -11.56 KCAL/MOL
REMARK 923 INTER-LIGAND FREE ENERGY PREDICTED BY IDOCK:   -8.51 KCAL/MOL
REMARK 924 INTRA-LIGAND FREE ENERGY PREDICTED BY IDOCK:   -3.06 KCAL/MOL
REMARK 927      BINDING AFFINITY PREDICTED BY RF-SCORE:    0.00 PKD
ROOT
HETATM    1  C   UNL     1     -10.715   6.002  67.230  1.00  0.00    -0.400 C  
HETATM    2  C   UNL     1     -10.106   4.779  67.908  1.00  0.00    -0.056 C  
HETATM    3  C   UNL     1      -9.547   3.810  66.871  1.00  0.00    -0.207 C  
ENDROOT
BRANCH   2   4
HETATM    4  O   UNL     1      -9.012   5.196  68.745  1.00  0.00    -0.099 OA 
BRANCH   4   5
HETATM    5  C   UNL     1      -8.608   4.273  69.664  1.00  0.00    -0.072 C  
HETATM    6  O   UNL     1      -7.563   3.639  69.609  1.00  0.00    -0.051 OA 
BRANCH   5   7
HETATM    7  C   UNL     1      -9.661   4.099  70.727  1.00  0.00    -0.260 C  
BRANCH   7   8
HETATM    8  C   UNL     1      -9.647   5.301  71.672  1.00  0.00    -0.197 C  
BRANCH   8   9
HETATM    9  C   UNL     1     -11.021   5.647  72.237  1.00  0.00    -0.312 C  
BRANCH   9  10
HETATM   10  C   UNL     1     -11.030   6.951  72.988  1.00  0.00    -0.308 C  
HETATM   11  C   UNL     1     -11.254   8.164  72.458  1.00  0.00    -0.459 C  
BRANCH  11  12
HETATM   12  C   UNL     1     -11.462   8.459  70.998  1.00  0.00    -0.302 C  
BRANCH  12  13
HETATM   13  C   UNL     1     -10.611   9.633  70.495  1.00  0.00    -0.369 C  
HETATM   14  C   UNL     1      -9.149   9.301  70.177  1.00  0.00    -0.222 C  
HETATM   15  O   UNL     1      -9.019   8.019  69.571  1.00  0.00    -0.146 OA 
HETATM   16  C   UNL     1      -8.742  10.361  69.161  1.00  0.00    -0.173 C  
HETATM   17  C   UNL     1      -9.973  10.500  68.270  1.00  0.00    -0.159 C  
HETATM   18  H   UNL     1      -8.113   7.813  69.374  1.00  0.00     0.000 HD 
HETATM   19  O   UNL     1      -9.927   9.519  67.229  1.00  0.00    -0.167 OA 
HETATM   20  C   UNL     1     -11.194  10.233  69.184  1.00  0.00    -0.268 C  
HETATM   21  H   UNL     1     -10.694   9.605  66.674  1.00  0.00     0.000 HD 
BRANCH  20  22
HETATM   22  C   UNL     1     -12.079  11.420  69.520  1.00  0.00    -0.370 C  
HETATM   23  C   UNL     1     -11.950  12.240  70.579  1.00  0.00    -0.296 C  
BRANCH  23  24
HETATM   24  C   UNL     1     -12.856  13.391  70.958  1.00  0.00    -0.251 C  
HETATM   25  H   UNL     1     -13.999  13.870  72.477  1.00  0.00     0.000 HD 
HETATM   26  O   UNL     1     -13.430  13.147  72.239  1.00  0.00    -0.527 OA 
BRANCH  24  27
HETATM   27  C   UNL     1     -12.063  14.713  70.976  1.00  0.00    -0.329 C  
BRANCH  27  28
HETATM   28  O   UNL     1     -12.188  15.411  69.726  1.00  0.00    -0.337 OA 
BRANCH  28  29
HETATM   29  C   UNL     1     -11.447  14.872  68.704  1.00  0.00    -0.306 A  
HETATM   30  C   UNL     1     -11.980  14.462  67.479  1.00  0.00    -0.389 A  
HETATM   31  C   UNL     1     -11.147  13.935  66.489  1.00  0.00    -0.310 A  
HETATM   32  C   UNL     1      -9.778  13.823  66.716  1.00  0.00    -0.277 A  
HETATM   33  C   UNL     1      -9.222  14.242  67.931  1.00  0.00    -0.194 A  
HETATM   34  C   UNL     1      -7.738  14.121  68.178  1.00  0.00    -0.140 C  
HETATM   35  C   UNL     1     -10.068  14.779  68.918  1.00  0.00    -0.237 A  
HETATM   36  F   UNL     1      -7.063  13.541  67.144  1.00  0.00    -0.164 F  
HETATM   37  F   UNL     1      -7.451  13.366  69.274  1.00  0.00    -0.050 F  
HETATM   38  F   UNL     1      -7.138  15.325  68.381  1.00  0.00    -0.102 F  
ENDBRANCH  28  29
ENDBRANCH  27  28
ENDBRANCH  24  27
ENDBRANCH  23  24
ENDBRANCH  20  22
ENDBRANCH  12  13
ENDBRANCH  11  12
ENDBRANCH   9  10
ENDBRANCH   8   9
ENDBRANCH   7   8
ENDBRANCH   5   7
ENDBRANCH   4   5
ENDBRANCH   2   4
TORSDOF 13
ENDMDL
MODEL      175
REMARK 921   NORMALIZED FREE ENERGY PREDICTED BY IDOCK:   -5.31 KCAL/MOL
REMARK 922        TOTAL FREE ENERGY PREDICTED BY IDOCK:  -11.56 KCAL/MOL
REMARK 923 INTER-LIGAND FREE ENERGY PREDICTED BY IDOCK:   -9.22 KCAL/MOL
REMARK 924 INTRA-LIGAND FREE ENERGY PREDICTED BY IDOCK:   -2.34 KCAL/MOL
REMARK 927      BINDING AFFINITY PREDICTED BY RF-SCORE:    0.00 PKD
ROOT
HETATM    1  C   UNL     1      -7.960   6.039  71.295  1.00  0.00    -0.113 C  
HETATM    2  C   UNL     1      -9.459   5.795  71.156  1.00  0.00    -0.158 C  
HETATM    3  C   UNL     1      -9.904   4.645  72.055  1.00  0.00    -0.239 C  
ENDROOT
BRANCH   2   4
HETATM    4  O   UNL     1     -10.173   6.973  71.573  1.00  0.00    -0.198 OA 
BRANCH   4   5
HETATM    5  C   UNL     1     -11.422   7.104  71.043  1.00  0.00    -0.297 C  
HETATM    6  O   UNL     1     -11.731   6.818  69.895  1.00  0.00    -0.306 OA 
BRANCH   5   7
HETATM    7  C   UNL     1     -12.357   7.710  72.056  1.00  0.00    -0.312 C  
BRANCH   7   8
HETATM    8  C   UNL     1     -12.812   9.090  71.582  1.00  0.00    -0.419 C  
BRANCH   8   9
HETATM    9  C   UNL     1     -11.667  10.084  71.410  1.00  0.00    -0.414 C  
BRANCH   9  10
HETATM   10  C   UNL     1     -12.043  11.264  70.555  1.00  0.00    -0.481 C  
HETATM   11  C   UNL     1     -11.925  11.339  69.220  1.00  0.00    -0.411 C  
BRANCH  11  12
HETATM   12  C   UNL     1     -11.323  10.286  68.331  1.00  0.00    -0.244 C  
BRANCH  12  13
HETATM   13  C   UNL     1      -9.930  10.665  67.809  1.00  0.00    -0.192 C  
HETATM   14  C   UNL     1      -8.757  10.283  68.719  1.00  0.00    -0.144 C  
HETATM   15  O   UNL     1      -8.962   9.019  69.342  1.00  0.00    -0.139 OA 
HETATM   16  C   UNL     1      -7.574  10.168  67.766  1.00  0.00    -0.090 C  
HETATM   17  C   UNL     1      -8.166   9.496  66.531  1.00  0.00    -0.119 C  
HETATM   18  H   UNL     1      -8.235   8.783  69.906  1.00  0.00     0.000 HD 
HETATM   19  O   UNL     1      -8.140   8.074  66.697  1.00  0.00    -0.100 OA 
HETATM   20  C   UNL     1      -9.634   9.982  66.443  1.00  0.00    -0.248 C  
HETATM   21  H   UNL     1      -8.510   7.656  65.929  1.00  0.00     0.000 HD 
BRANCH  20  22
HETATM   22  C   UNL     1      -9.979  10.938  65.315  1.00  0.00    -0.330 C  
HETATM   23  C   UNL     1     -10.201  12.261  65.426  1.00  0.00    -0.297 C  
BRANCH  23  24
HETATM   24  C   UNL     1     -10.600  13.216  64.322  1.00  0.00    -0.412 C  
HETATM   25  H   UNL     1     -11.731  13.158  62.723  1.00  0.00     0.000 HD 
HETATM   26  O   UNL     1     -11.481  12.558  63.416  1.00  0.00    -0.472 OA 
BRANCH  24  27
HETATM   27  C   UNL     1     -11.285  14.464  64.915  1.00  0.00    -0.389 C  
BRANCH  27  28
HETATM   28  O   UNL     1     -10.461  15.631  64.763  1.00  0.00    -0.446 OA 
BRANCH  28  29
HETATM   29  C   UNL     1     -10.040  16.182  65.947  1.00  0.00    -0.354 A  
HETATM   30  C   UNL     1     -10.896  16.558  66.986  1.00  0.00    -0.113 A  
HETATM   31  C   UNL     1     -10.378  17.101  68.165  1.00  0.00    -0.350 A  
HETATM   32  C   UNL     1      -9.002  17.262  68.313  1.00  0.00    -0.262 A  
HETATM   33  C   UNL     1      -8.127  16.877  67.290  1.00  0.00    -0.207 A  
HETATM   34  C   UNL     1      -6.637  17.052  67.449  1.00  0.00    -0.151 C  
HETATM   35  C   UNL     1      -8.659  16.324  66.111  1.00  0.00    -0.342 A  
HETATM   36  F   UNL     1      -6.284  17.642  68.628  1.00  0.00    -0.166 F  
HETATM   37  F   UNL     1      -6.094  17.830  66.472  1.00  0.00    -0.157 F  
HETATM   38  F   UNL     1      -5.961  15.872  67.411  1.00  0.00    -0.149 F  
ENDBRANCH  28  29
ENDBRANCH  27  28
ENDBRANCH  24  27
ENDBRANCH  23  24
ENDBRANCH  20  22
ENDBRANCH  12  13
ENDBRANCH  11  12
ENDBRANCH   9  10
ENDBRANCH   8   9
ENDBRANCH   7   8
ENDBRANCH   5   7
ENDBRANCH   4   5
ENDBRANCH   2   4
TORSDOF 13
ENDMDL
MODEL      176
REMARK 921   NORMALIZED FREE ENERGY PREDICTED BY IDOCK:   -5.30 KCAL/MOL
REMARK 922        TOTAL FREE ENERGY PREDICTED BY IDOCK:  -11.56 KCAL/MOL
REMARK 923 INTER-LIGAND FREE ENERGY PREDICTED BY IDOCK:   -7.41 KCAL/MOL
REMARK 924 INTRA-LIGAND FREE ENERGY PREDICTED BY IDOCK:   -4.15 KCAL/MOL
REMARK 927      BINDING AFFINITY PREDICTED BY RF-SCORE:    0.00 PKD
ROOT
HETATM    1  C   UNL     1      -5.968  12.133  67.172  1.00  0.00    -0.143 C  
HETATM    2  C   UNL     1      -5.688  10.910  66.305  1.00  0.00    -0.128 C  
HETATM    3  C   UNL     1      -5.486   9.670  67.170  1.00  0.00    -0.043 C  
ENDROOT
BRANCH   2   4
HETATM    4  O   UNL     1      -6.819  10.664  65.451  1.00  0.00    -0.111 OA 
BRANCH   4   5
HETATM    5  C   UNL     1      -6.523  10.049  64.270  1.00  0.00    -0.131 C  
HETATM    6  O   UNL     1      -5.867  10.546  63.365  1.00  0.00    -0.148 OA 
BRANCH   5   7
HETATM    7  C   UNL     1      -7.170   8.690  64.213  1.00  0.00    -0.094 C  
BRANCH   7   8
HETATM    8  C   UNL     1      -8.620   8.785  64.689  1.00  0.00    -0.140 C  
BRANCH   8   9
HETATM    9  C   UNL     1      -8.866   8.108  66.034  1.00  0.00    -0.206 C  
BRANCH   9  10
HETATM   10  C   UNL     1     -10.203   8.458  66.626  1.00  0.00    -0.335 C  
HETATM   11  C   UNL     1     -10.485   9.559  67.340  1.00  0.00    -0.336 C  
BRANCH  11  12
HETATM   12  C   UNL     1      -9.497  10.616  67.750  1.00  0.00    -0.165 C  
BRANCH  12  13
HETATM   13  C   UNL     1     -10.115  11.706  68.637  1.00  0.00    -0.206 C  
HETATM   14  C   UNL     1      -9.573  13.123  68.415  1.00  0.00    -0.186 C  
HETATM   15  O   UNL     1      -9.327  13.384  67.037  1.00  0.00    -0.226 OA 
HETATM   16  C   UNL     1     -10.706  14.028  68.885  1.00  0.00    -0.265 C  
HETATM   17  C   UNL     1     -11.963  13.326  68.381  1.00  0.00    -0.301 C  
HETATM   18  H   UNL     1      -8.992  14.262  66.900  1.00  0.00     0.000 HD 
HETATM   19  O   UNL     1     -12.233  13.729  67.034  1.00  0.00    -0.401 OA 
HETATM   20  C   UNL     1     -11.650  11.810  68.418  1.00  0.00    -0.380 C  
HETATM   21  H   UNL     1     -13.015  13.292  66.720  1.00  0.00     0.000 HD 
BRANCH  20  22
HETATM   22  C   UNL     1     -12.369  10.981  69.468  1.00  0.00    -0.266 C  
HETATM   23  C   UNL     1     -12.114  10.970  70.790  1.00  0.00    -0.467 C  
BRANCH  23  24
HETATM   24  C   UNL     1     -12.782  10.110  71.840  1.00  0.00    -0.396 C  
HETATM   25  H   UNL     1     -14.445   9.085  72.003  1.00  0.00     0.000 HD 
HETATM   26  O   UNL     1     -14.026   9.625  71.343  1.00  0.00    -0.202 OA 
BRANCH  24  27
HETATM   27  C   UNL     1     -11.869   8.928  72.225  1.00  0.00    -0.295 C  
BRANCH  27  28
HETATM   28  O   UNL     1     -11.999   7.845  71.289  1.00  0.00    -0.293 OA 
BRANCH  28  29
HETATM   29  C   UNL     1     -10.821   7.470  70.694  1.00  0.00    -0.240 A  
HETATM   30  C   UNL     1     -10.685   6.369  69.845  1.00  0.00    -0.332 A  
HETATM   31  C   UNL     1      -9.446   6.069  69.272  1.00  0.00    -0.152 A  
HETATM   32  C   UNL     1      -8.341   6.874  69.538  1.00  0.00    -0.133 A  
HETATM   33  C   UNL     1      -8.460   7.991  70.373  1.00  0.00    -0.130 A  
HETATM   34  C   UNL     1      -7.263   8.863  70.663  1.00  0.00    -0.075 C  
HETATM   35  C   UNL     1      -9.713   8.289  70.939  1.00  0.00    -0.204 A  
HETATM   36  F   UNL     1      -6.114   8.417  70.078  1.00  0.00    -0.030 F  
HETATM   37  F   UNL     1      -6.988   8.949  71.994  1.00  0.00    -0.101 F  
HETATM   38  F   UNL     1      -7.426  10.142  70.229  1.00  0.00    -0.149 F  
ENDBRANCH  28  29
ENDBRANCH  27  28
ENDBRANCH  24  27
ENDBRANCH  23  24
ENDBRANCH  20  22
ENDBRANCH  12  13
ENDBRANCH  11  12
ENDBRANCH   9  10
ENDBRANCH   8   9
ENDBRANCH   7   8
ENDBRANCH   5   7
ENDBRANCH   4   5
ENDBRANCH   2   4
TORSDOF 13
ENDMDL
MODEL      177
REMARK 921   NORMALIZED FREE ENERGY PREDICTED BY IDOCK:   -5.29 KCAL/MOL
REMARK 922        TOTAL FREE ENERGY PREDICTED BY IDOCK:  -11.53 KCAL/MOL
REMARK 923 INTER-LIGAND FREE ENERGY PREDICTED BY IDOCK:   -9.73 KCAL/MOL
REMARK 924 INTRA-LIGAND FREE ENERGY PREDICTED BY IDOCK:   -1.80 KCAL/MOL
REMARK 927      BINDING AFFINITY PREDICTED BY RF-SCORE:    0.00 PKD
ROOT
HETATM    1  C   UNL     1     -10.113   3.710  64.533  1.00  0.00    -0.186 C  
HETATM    2  C   UNL     1      -9.511   4.236  65.831  1.00  0.00    -0.176 C  
HETATM    3  C   UNL     1     -10.473   5.197  66.522  1.00  0.00    -0.346 C  
ENDROOT
BRANCH   2   4
HETATM    4  O   UNL     1      -9.279   3.135  66.728  1.00  0.00    -0.162 OA 
BRANCH   4   5
HETATM    5  C   UNL     1      -7.980   2.961  67.100  1.00  0.00    -0.075 C  
HETATM    6  O   UNL     1      -7.010   3.374  66.478  1.00  0.00    -0.052 OA 
BRANCH   5   7
HETATM    7  C   UNL     1      -7.902   2.135  68.356  1.00  0.00    -0.057 C  
BRANCH   7   8
HETATM    8  C   UNL     1      -7.358   2.986  69.504  1.00  0.00    -0.044 C  
BRANCH   8   9
HETATM    9  C   UNL     1      -8.304   3.076  70.698  1.00  0.00    -0.085 C  
BRANCH   9  10
HETATM   10  C   UNL     1      -9.648   3.646  70.335  1.00  0.00    -0.254 C  
HETATM   11  C   UNL     1      -9.989   4.944  70.372  1.00  0.00    -0.316 C  
BRANCH  11  12
HETATM   12  C   UNL     1      -9.116   6.068  70.857  1.00  0.00    -0.161 C  
BRANCH  12  13
HETATM   13  C   UNL     1      -9.346   6.414  72.334  1.00  0.00    -0.140 C  
HETATM   14  C   UNL     1      -8.291   5.879  73.310  1.00  0.00    -0.116 C  
HETATM   15  O   UNL     1      -6.980   5.951  72.759  1.00  0.00    -0.074 OA 
HETATM   16  C   UNL     1      -8.371   6.831  74.498  1.00  0.00    -0.172 C  
HETATM   17  C   UNL     1      -8.562   8.200  73.852  1.00  0.00    -0.222 C  
HETATM   18  H   UNL     1      -6.326   5.620  73.364  1.00  0.00     0.000 HD 
HETATM   19  O   UNL     1      -7.286   8.759  73.521  1.00  0.00    -0.370 OA 
HETATM   20  C   UNL     1      -9.374   7.953  72.557  1.00  0.00    -0.258 C  
HETATM   21  H   UNL     1      -7.405   9.612  73.119  1.00  0.00     0.000 HD 
BRANCH  20  22
HETATM   22  C   UNL     1     -10.811   8.441  72.538  1.00  0.00    -0.375 C  
HETATM   23  C   UNL     1     -11.594   8.582  71.453  1.00  0.00    -0.344 C  
BRANCH  23  24
HETATM   24  C   UNL     1     -13.008   9.119  71.410  1.00  0.00    -0.307 C  
HETATM   25  H   UNL     1     -14.489   9.346  72.673  1.00  0.00     0.000 HD 
HETATM   26  O   UNL     1     -13.601   9.008  72.700  1.00  0.00    -0.465 OA 
BRANCH  24  27
HETATM   27  C   UNL     1     -13.008  10.592  70.952  1.00  0.00    -0.367 C  
BRANCH  27  28
HETATM   28  O   UNL     1     -13.136  11.484  72.071  1.00  0.00    -0.486 OA 
BRANCH  28  29
HETATM   29  C   UNL     1     -13.113  12.815  71.736  1.00  0.00    -0.356 A  
HETATM   30  C   UNL     1     -13.672  13.831  72.514  1.00  0.00    -0.667 A  
HETATM   31  C   UNL     1     -13.589  15.163  72.100  1.00  0.00    -0.558 A  
HETATM   32  C   UNL     1     -12.940  15.485  70.910  1.00  0.00    -0.526 A  
HETATM   33  C   UNL     1     -12.360  14.483  70.123  1.00  0.00    -0.398 A  
HETATM   34  C   UNL     1     -11.658  14.830  68.834  1.00  0.00    -0.313 C  
HETATM   35  C   UNL     1     -12.442  13.146  70.554  1.00  0.00    -0.322 A  
HETATM   36  F   UNL     1     -11.703  16.160  68.534  1.00  0.00    -0.372 F  
HETATM   37  F   UNL     1     -12.195  14.192  67.757  1.00  0.00    -0.395 F  
HETATM   38  F   UNL     1     -10.337  14.500  68.848  1.00  0.00    -0.218 F  
ENDBRANCH  28  29
ENDBRANCH  27  28
ENDBRANCH  24  27
ENDBRANCH  23  24
ENDBRANCH  20  22
ENDBRANCH  12  13
ENDBRANCH  11  12
ENDBRANCH   9  10
ENDBRANCH   8   9
ENDBRANCH   7   8
ENDBRANCH   5   7
ENDBRANCH   4   5
ENDBRANCH   2   4
TORSDOF 13
ENDMDL
MODEL      178
REMARK 921   NORMALIZED FREE ENERGY PREDICTED BY IDOCK:   -5.29 KCAL/MOL
REMARK 922        TOTAL FREE ENERGY PREDICTED BY IDOCK:  -11.53 KCAL/MOL
REMARK 923 INTER-LIGAND FREE ENERGY PREDICTED BY IDOCK:  -10.24 KCAL/MOL
REMARK 924 INTRA-LIGAND FREE ENERGY PREDICTED BY IDOCK:   -1.29 KCAL/MOL
REMARK 927      BINDING AFFINITY PREDICTED BY RF-SCORE:    0.00 PKD
ROOT
HETATM    1  C   UNL     1      -6.494  20.503  65.137  1.00  0.00    -0.309 C  
HETATM    2  C   UNL     1      -6.995  19.140  65.602  1.00  0.00    -0.260 C  
HETATM    3  C   UNL     1      -5.830  18.251  66.023  1.00  0.00    -0.231 C  
ENDROOT
BRANCH   2   4
HETATM    4  O   UNL     1      -7.846  19.313  66.750  1.00  0.00    -0.246 OA 
BRANCH   4   5
HETATM    5  C   UNL     1      -9.175  19.418  66.468  1.00  0.00    -0.356 C  
HETATM    6  O   UNL     1      -9.691  19.134  65.396  1.00  0.00    -0.080 OA 
BRANCH   5   7
HETATM    7  C   UNL     1      -9.915  19.993  67.647  1.00  0.00    -0.566 C  
BRANCH   7   8
HETATM    8  C   UNL     1      -9.976  18.961  68.774  1.00  0.00    -0.466 C  
BRANCH   8   9
HETATM    9  C   UNL     1     -10.549  17.615  68.338  1.00  0.00    -0.318 C  
BRANCH   9  10
HETATM   10  C   UNL     1      -9.696  16.453  68.768  1.00  0.00    -0.250 C  
HETATM   11  C   UNL     1     -10.133  15.337  69.373  1.00  0.00    -0.266 C  
BRANCH  11  12
HETATM   12  C   UNL     1     -11.547  15.070  69.807  1.00  0.00    -0.336 C  
BRANCH  12  13
HETATM   13  C   UNL     1     -11.653  14.615  71.269  1.00  0.00    -0.252 C  
HETATM   14  C   UNL     1     -11.329  15.686  72.318  1.00  0.00    -0.244 C  
HETATM   15  O   UNL     1     -11.823  16.965  71.935  1.00  0.00    -0.516 OA 
HETATM   16  C   UNL     1     -12.086  15.226  73.559  1.00  0.00    -0.603 C  
HETATM   17  C   UNL     1     -13.410  14.708  73.005  1.00  0.00    -0.423 C  
HETATM   18  H   UNL     1     -11.622  17.628  72.586  1.00  0.00     0.000 HD 
HETATM   19  O   UNL     1     -14.334  15.793  72.873  1.00  0.00    -0.478 OA 
HETATM   20  C   UNL     1     -13.089  14.125  71.607  1.00  0.00    -0.425 C  
HETATM   21  H   UNL     1     -15.158  15.471  72.527  1.00  0.00     0.000 HD 
BRANCH  20  22
HETATM   22  C   UNL     1     -13.157  12.616  71.455  1.00  0.00    -0.373 C  
HETATM   23  C   UNL     1     -12.178  11.813  70.999  1.00  0.00    -0.303 C  
BRANCH  23  24
HETATM   24  C   UNL     1     -12.250  10.316  70.789  1.00  0.00    -0.350 C  
HETATM   25  H   UNL     1     -11.799   9.050  69.362  1.00  0.00     0.000 HD 
HETATM   26  O   UNL     1     -11.754   9.990  69.493  1.00  0.00    -0.131 OA 
BRANCH  24  27
HETATM   27  C   UNL     1     -11.429   9.583  71.869  1.00  0.00    -0.147 C  
BRANCH  27  28
HETATM   28  O   UNL     1     -11.563   8.158  71.747  1.00  0.00    -0.264 OA 
BRANCH  28  29
HETATM   29  C   UNL     1     -10.610   7.442  72.428  1.00  0.00    -0.244 A  
HETATM   30  C   UNL     1      -9.587   8.018  73.186  1.00  0.00    -0.344 A  
HETATM   31  C   UNL     1      -8.667   7.210  73.858  1.00  0.00    -0.206 A  
HETATM   32  C   UNL     1      -8.771   5.822  73.783  1.00  0.00    -0.121 A  
HETATM   33  C   UNL     1      -9.798   5.226  73.041  1.00  0.00    -0.175 A  
HETATM   34  C   UNL     1      -9.910   3.724  72.958  1.00  0.00    -0.132 C  
HETATM   35  C   UNL     1     -10.724   6.049  72.375  1.00  0.00    -0.267 A  
HETATM   36  F   UNL     1      -8.913   3.069  73.620  1.00  0.00    -0.078 F  
HETATM   37  F   UNL     1      -9.863   3.266  71.676  1.00  0.00    -0.216 F  
HETATM   38  F   UNL     1     -11.073   3.252  73.484  1.00  0.00    -0.264 F  
ENDBRANCH  28  29
ENDBRANCH  27  28
ENDBRANCH  24  27
ENDBRANCH  23  24
ENDBRANCH  20  22
ENDBRANCH  12  13
ENDBRANCH  11  12
ENDBRANCH   9  10
ENDBRANCH   8   9
ENDBRANCH   7   8
ENDBRANCH   5   7
ENDBRANCH   4   5
ENDBRANCH   2   4
TORSDOF 13
ENDMDL
MODEL      179
REMARK 921   NORMALIZED FREE ENERGY PREDICTED BY IDOCK:   -5.29 KCAL/MOL
REMARK 922        TOTAL FREE ENERGY PREDICTED BY IDOCK:  -11.52 KCAL/MOL
REMARK 923 INTER-LIGAND FREE ENERGY PREDICTED BY IDOCK:   -9.02 KCAL/MOL
REMARK 924 INTRA-LIGAND FREE ENERGY PREDICTED BY IDOCK:   -2.50 KCAL/MOL
REMARK 927      BINDING AFFINITY PREDICTED BY RF-SCORE:    0.00 PKD
ROOT
HETATM    1  C   UNL     1     -12.507   7.800  71.569  1.00  0.00    -0.348 C  
HETATM    2  C   UNL     1     -11.954   6.471  71.069  1.00  0.00    -0.297 C  
HETATM    3  C   UNL     1     -11.438   6.604  69.640  1.00  0.00    -0.358 C  
ENDROOT
BRANCH   2   4
HETATM    4  O   UNL     1     -10.845   6.075  71.896  1.00  0.00    -0.235 OA 
BRANCH   4   5
HETATM    5  C   UNL     1     -10.319   7.071  72.664  1.00  0.00    -0.209 C  
HETATM    6  O   UNL     1     -10.790   7.464  73.723  1.00  0.00    -0.321 OA 
BRANCH   5   7
HETATM    7  C   UNL     1      -9.106   7.661  71.995  1.00  0.00    -0.167 C  
BRANCH   7   8
HETATM    8  C   UNL     1      -9.359   9.133  71.667  1.00  0.00    -0.132 C  
BRANCH   8   9
HETATM    9  C   UNL     1      -9.194   9.465  70.187  1.00  0.00    -0.268 C  
BRANCH   9  10
HETATM   10  C   UNL     1     -10.312  10.318  69.653  1.00  0.00    -0.281 C  
HETATM   11  C   UNL     1     -10.857  10.226  68.429  1.00  0.00    -0.288 C  
BRANCH  11  12
HETATM   12  C   UNL     1     -10.400   9.304  67.332  1.00  0.00    -0.327 C  
BRANCH  12  13
HETATM   13  C   UNL     1      -9.210   9.858  66.537  1.00  0.00    -0.190 C  
HETATM   14  C   UNL     1      -7.831   9.349  66.973  1.00  0.00    -0.098 C  
HETATM   15  O   UNL     1      -7.867   7.971  67.331  1.00  0.00    -0.113 OA 
HETATM   16  C   UNL     1      -6.970   9.503  65.725  1.00  0.00    -0.095 C  
HETATM   17  C   UNL     1      -7.899   9.085  64.589  1.00  0.00    -0.121 C  
HETATM   18  H   UNL     1      -7.012   7.656  67.601  1.00  0.00     0.000 HD 
HETATM   19  O   UNL     1      -7.846   7.664  64.422  1.00  0.00    -0.127 OA 
HETATM   20  C   UNL     1      -9.324   9.503  65.027  1.00  0.00    -0.294 C  
HETATM   21  H   UNL     1      -8.424   7.403  63.715  1.00  0.00     0.000 HD 
BRANCH  20  22
HETATM   22  C   UNL     1      -9.964  10.662  64.283  1.00  0.00    -0.413 C  
HETATM   23  C   UNL     1     -11.143  11.243  64.570  1.00  0.00    -0.245 C  
BRANCH  23  24
HETATM   24  C   UNL     1     -11.820  12.360  63.805  1.00  0.00    -0.502 C  
HETATM   25  H   UNL     1     -13.638  13.070  63.623  1.00  0.00     0.000 HD 
HETATM   26  O   UNL     1     -13.213  12.369  64.104  1.00  0.00    -0.761 OA 
BRANCH  24  27
HETATM   27  C   UNL     1     -11.191  13.719  64.172  1.00  0.00    -0.219 C  
BRANCH  27  28
HETATM   28  O   UNL     1     -11.967  14.398  65.173  1.00  0.00    -0.368 OA 
BRANCH  28  29
HETATM   29  C   UNL     1     -11.418  14.362  66.431  1.00  0.00    -0.360 A  
HETATM   30  C   UNL     1     -12.150  14.505  67.612  1.00  0.00    -0.266 A  
HETATM   31  C   UNL     1     -11.508  14.442  68.851  1.00  0.00    -0.319 A  
HETATM   32  C   UNL     1     -10.133  14.228  68.915  1.00  0.00    -0.179 A  
HETATM   33  C   UNL     1      -9.384  14.067  67.743  1.00  0.00    -0.205 A  
HETATM   34  C   UNL     1      -7.894  13.837  67.811  1.00  0.00    -0.172 C  
HETATM   35  C   UNL     1     -10.041  14.124  66.501  1.00  0.00    -0.283 A  
HETATM   36  F   UNL     1      -7.401  13.853  69.083  1.00  0.00    -0.112 F  
HETATM   37  F   UNL     1      -7.187  14.781  67.131  1.00  0.00    -0.216 F  
HETATM   38  F   UNL     1      -7.523  12.637  67.287  1.00  0.00    -0.131 F  
ENDBRANCH  28  29
ENDBRANCH  27  28
ENDBRANCH  24  27
ENDBRANCH  23  24
ENDBRANCH  20  22
ENDBRANCH  12  13
ENDBRANCH  11  12
ENDBRANCH   9  10
ENDBRANCH   8   9
ENDBRANCH   7   8
ENDBRANCH   5   7
ENDBRANCH   4   5
ENDBRANCH   2   4
TORSDOF 13
ENDMDL
MODEL      180
REMARK 921   NORMALIZED FREE ENERGY PREDICTED BY IDOCK:   -5.28 KCAL/MOL
REMARK 922        TOTAL FREE ENERGY PREDICTED BY IDOCK:  -11.51 KCAL/MOL
REMARK 923 INTER-LIGAND FREE ENERGY PREDICTED BY IDOCK:   -8.94 KCAL/MOL
REMARK 924 INTRA-LIGAND FREE ENERGY PREDICTED BY IDOCK:   -2.57 KCAL/MOL
REMARK 927      BINDING AFFINITY PREDICTED BY RF-SCORE:    0.00 PKD
ROOT
HETATM    1  C   UNL     1     -11.334   4.389  73.135  1.00  0.00    -0.282 C  
HETATM    2  C   UNL     1     -11.396   5.911  73.049  1.00  0.00    -0.170 C  
HETATM    3  C   UNL     1     -10.045   6.527  73.399  1.00  0.00    -0.235 C  
ENDROOT
BRANCH   2   4
HETATM    4  O   UNL     1     -11.712   6.297  71.700  1.00  0.00    -0.305 OA 
BRANCH   4   5
HETATM    5  C   UNL     1     -12.450   7.439  71.588  1.00  0.00    -0.349 C  
HETATM    6  O   UNL     1     -13.633   7.542  71.882  1.00  0.00    -0.311 OA 
BRANCH   5   7
HETATM    7  C   UNL     1     -11.615   8.543  70.995  1.00  0.00    -0.317 C  
BRANCH   7   8
HETATM    8  C   UNL     1     -12.053   9.890  71.570  1.00  0.00    -0.496 C  
BRANCH   8   9
HETATM    9  C   UNL     1     -12.121  11.004  70.530  1.00  0.00    -0.470 C  
BRANCH   9  10
HETATM   10  C   UNL     1     -10.863  11.115  69.712  1.00  0.00    -0.152 C  
HETATM   11  C   UNL     1     -10.739  11.762  68.542  1.00  0.00    -0.251 C  
BRANCH  11  12
HETATM   12  C   UNL     1     -11.852  12.435  67.788  1.00  0.00    -0.362 C  
BRANCH  12  13
HETATM   13  C   UNL     1     -11.720  12.292  66.266  1.00  0.00    -0.431 C  
HETATM   14  C   UNL     1     -12.707  13.121  65.436  1.00  0.00    -0.360 C  
HETATM   15  O   UNL     1     -12.931  14.404  66.012  1.00  0.00    -0.426 OA 
HETATM   16  C   UNL     1     -12.000  13.307  64.099  1.00  0.00    -0.505 C  
HETATM   17  C   UNL     1     -10.544  13.545  64.489  1.00  0.00    -0.424 C  
HETATM   18  H   UNL     1     -13.543  14.918  65.498  1.00  0.00     0.000 HD 
HETATM   19  O   UNL     1     -10.339  14.934  64.763  1.00  0.00    -0.478 OA 
HETATM   20  C   UNL     1     -10.307  12.720  65.778  1.00  0.00    -0.297 C  
HETATM   21  H   UNL     1      -9.433  15.083  65.006  1.00  0.00     0.000 HD 
BRANCH  20  22
HETATM   22  C   UNL     1      -9.419  11.494  65.660  1.00  0.00    -0.244 C  
HETATM   23  C   UNL     1      -8.155  11.376  66.106  1.00  0.00    -0.011 C  
BRANCH  23  24
HETATM   24  C   UNL     1      -7.238  10.182  65.948  1.00  0.00    -0.121 C  
HETATM   25  H   UNL     1      -5.557   9.784  65.023  1.00  0.00     0.000 HD 
HETATM   26  O   UNL     1      -6.132  10.534  65.122  1.00  0.00    -0.129 OA 
BRANCH  24  27
HETATM   27  C   UNL     1      -6.739   9.703  67.326  1.00  0.00    -0.071 C  
BRANCH  27  28
HETATM   28  O   UNL     1      -7.772   9.813  68.319  1.00  0.00    -0.084 OA 
BRANCH  28  29
HETATM   29  C   UNL     1      -7.956   8.677  69.068  1.00  0.00    -0.115 A  
HETATM   30  C   UNL     1      -7.336   8.437  70.297  1.00  0.00    -0.055 A  
HETATM   31  C   UNL     1      -7.593   7.256  70.997  1.00  0.00    -0.084 A  
HETATM   32  C   UNL     1      -8.478   6.314  70.477  1.00  0.00    -0.138 A  
HETATM   33  C   UNL     1      -9.122   6.543  69.255  1.00  0.00    -0.137 A  
HETATM   34  C   UNL     1     -10.080   5.524  68.690  1.00  0.00    -0.183 C  
HETATM   35  C   UNL     1      -8.862   7.739  68.561  1.00  0.00    -0.130 A  
HETATM   36  F   UNL     1     -10.189   4.401  69.457  1.00  0.00    -0.285 F  
HETATM   37  F   UNL     1      -9.711   5.089  67.453  1.00  0.00    -0.135 F  
HETATM   38  F   UNL     1     -11.345   6.006  68.558  1.00  0.00    -0.397 F  
ENDBRANCH  28  29
ENDBRANCH  27  28
ENDBRANCH  24  27
ENDBRANCH  23  24
ENDBRANCH  20  22
ENDBRANCH  12  13
ENDBRANCH  11  12
ENDBRANCH   9  10
ENDBRANCH   8   9
ENDBRANCH   7   8
ENDBRANCH   5   7
ENDBRANCH   4   5
ENDBRANCH   2   4
TORSDOF 13
ENDMDL
MODEL      181
REMARK 921   NORMALIZED FREE ENERGY PREDICTED BY IDOCK:   -5.27 KCAL/MOL
REMARK 922        TOTAL FREE ENERGY PREDICTED BY IDOCK:  -11.50 KCAL/MOL
REMARK 923 INTER-LIGAND FREE ENERGY PREDICTED BY IDOCK:   -9.96 KCAL/MOL
REMARK 924 INTRA-LIGAND FREE ENERGY PREDICTED BY IDOCK:   -1.55 KCAL/MOL
REMARK 927      BINDING AFFINITY PREDICTED BY RF-SCORE:    0.00 PKD
ROOT
HETATM    1  C   UNL     1      -6.421   4.672  63.473  1.00  0.00    -0.026 C  
HETATM    2  C   UNL     1      -7.142   4.247  64.748  1.00  0.00    -0.058 C  
HETATM    3  C   UNL     1      -6.471   3.024  65.366  1.00  0.00    -0.032 C  
ENDROOT
BRANCH   2   4
HETATM    4  O   UNL     1      -7.072   5.313  65.712  1.00  0.00    -0.065 OA 
BRANCH   4   5
HETATM    5  C   UNL     1      -8.144   5.401  66.548  1.00  0.00    -0.105 C  
HETATM    6  O   UNL     1      -9.315   5.321  66.201  1.00  0.00    -0.148 OA 
BRANCH   5   7
HETATM    7  C   UNL     1      -7.687   5.672  67.957  1.00  0.00    -0.089 C  
BRANCH   7   8
HETATM    8  C   UNL     1      -8.865   5.537  68.921  1.00  0.00    -0.110 C  
BRANCH   8   9
HETATM    9  C   UNL     1      -9.531   6.867  69.262  1.00  0.00    -0.147 C  
BRANCH   9  10
HETATM   10  C   UNL     1      -8.782   7.640  70.314  1.00  0.00    -0.144 C  
HETATM   11  C   UNL     1      -9.176   7.827  71.583  1.00  0.00    -0.168 C  
BRANCH  11  12
HETATM   12  C   UNL     1     -10.478   7.364  72.176  1.00  0.00    -0.243 C  
BRANCH  12  13
HETATM   13  C   UNL     1     -11.704   7.858  71.397  1.00  0.00    -0.311 C  
HETATM   14  C   UNL     1     -12.914   6.917  71.405  1.00  0.00    -0.280 C  
HETATM   15  O   UNL     1     -13.084   6.287  72.670  1.00  0.00    -0.283 OA 
HETATM   16  C   UNL     1     -14.101   7.842  71.160  1.00  0.00    -0.231 C  
HETATM   17  C   UNL     1     -13.769   9.083  71.984  1.00  0.00    -0.461 C  
HETATM   18  H   UNL     1     -13.835   5.704  72.674  1.00  0.00     0.000 HD 
HETATM   19  O   UNL     1     -14.218   8.902  73.330  1.00  0.00    -1.241 OA 
HETATM   20  C   UNL     1     -12.226   9.210  71.962  1.00  0.00    -0.443 C  
HETATM   21  H   UNL     1     -14.011   9.675  73.843  1.00  0.00     0.000 HD 
BRANCH  20  22
HETATM   22  C   UNL     1     -11.637  10.355  71.158  1.00  0.00    -0.315 C  
HETATM   23  C   UNL     1     -11.346  10.343  69.844  1.00  0.00    -0.370 C  
BRANCH  23  24
HETATM   24  C   UNL     1     -10.708  11.456  69.040  1.00  0.00    -0.205 C  
HETATM   25  H   UNL     1      -9.492  11.597  67.509  1.00  0.00     0.000 HD 
HETATM   26  O   UNL     1      -9.893  10.898  68.013  1.00  0.00    -0.165 OA 
BRANCH  24  27
HETATM   27  C   UNL     1     -11.792  12.362  68.423  1.00  0.00    -0.309 C  
BRANCH  27  28
HETATM   28  O   UNL     1     -11.992  12.059  67.033  1.00  0.00    -0.609 OA 
BRANCH  28  29
HETATM   29  C   UNL     1     -11.845  13.136  66.195  1.00  0.00    -0.401 A  
HETATM   30  C   UNL     1     -12.310  13.178  64.878  1.00  0.00    -0.494 A  
HETATM   31  C   UNL     1     -12.127  14.324  64.101  1.00  0.00    -0.423 A  
HETATM   32  C   UNL     1     -11.484  15.437  64.640  1.00  0.00    -0.339 A  
HETATM   33  C   UNL     1     -11.023  15.421  65.962  1.00  0.00    -0.286 A  
HETATM   34  C   UNL     1     -10.326  16.625  66.545  1.00  0.00    -0.299 C  
HETATM   35  C   UNL     1     -11.221  14.265  66.738  1.00  0.00    -0.337 A  
HETATM   36  F   UNL     1     -10.173  17.646  65.654  1.00  0.00    -0.283 F  
HETATM   37  F   UNL     1      -9.073  16.337  66.994  1.00  0.00    -0.196 F  
HETATM   38  F   UNL     1     -10.993  17.157  67.605  1.00  0.00    -0.343 F  
ENDBRANCH  28  29
ENDBRANCH  27  28
ENDBRANCH  24  27
ENDBRANCH  23  24
ENDBRANCH  20  22
ENDBRANCH  12  13
ENDBRANCH  11  12
ENDBRANCH   9  10
ENDBRANCH   8   9
ENDBRANCH   7   8
ENDBRANCH   5   7
ENDBRANCH   4   5
ENDBRANCH   2   4
TORSDOF 13
ENDMDL
MODEL      182
REMARK 921   NORMALIZED FREE ENERGY PREDICTED BY IDOCK:   -5.27 KCAL/MOL
REMARK 922        TOTAL FREE ENERGY PREDICTED BY IDOCK:  -11.49 KCAL/MOL
REMARK 923 INTER-LIGAND FREE ENERGY PREDICTED BY IDOCK:   -9.51 KCAL/MOL
REMARK 924 INTRA-LIGAND FREE ENERGY PREDICTED BY IDOCK:   -1.98 KCAL/MOL
REMARK 927      BINDING AFFINITY PREDICTED BY RF-SCORE:    0.00 PKD
ROOT
HETATM    1  C   UNL     1      -8.723   9.573  63.664  1.00  0.00    -0.239 C  
HETATM    2  C   UNL     1      -8.200   8.263  64.243  1.00  0.00    -0.113 C  
HETATM    3  C   UNL     1      -6.907   7.844  63.551  1.00  0.00    -0.075 C  
ENDROOT
BRANCH   2   4
HETATM    4  O   UNL     1      -7.905   8.445  65.640  1.00  0.00    -0.097 OA 
BRANCH   4   5
HETATM    5  C   UNL     1      -7.331   9.641  65.954  1.00  0.00    -0.099 C  
HETATM    6  O   UNL     1      -6.175   9.952  65.703  1.00  0.00    -0.067 OA 
BRANCH   5   7
HETATM    7  C   UNL     1      -8.306  10.506  66.708  1.00  0.00    -0.128 C  
BRANCH   7   8
HETATM    8  C   UNL     1      -8.536   9.930  68.105  1.00  0.00    -0.118 C  
BRANCH   8   9
HETATM    9  C   UNL     1      -9.411  10.812  68.992  1.00  0.00    -0.179 C  
BRANCH   9  10
HETATM   10  C   UNL     1     -10.854  10.387  68.994  1.00  0.00    -0.273 C  
HETATM   11  C   UNL     1     -11.891  11.119  68.557  1.00  0.00    -0.330 C  
BRANCH  11  12
HETATM   12  C   UNL     1     -11.818  12.534  68.053  1.00  0.00    -0.382 C  
BRANCH  12  13
HETATM   13  C   UNL     1     -10.803  12.716  66.917  1.00  0.00    -0.282 C  
HETATM   14  C   UNL     1     -11.286  12.287  65.526  1.00  0.00    -0.332 C  
HETATM   15  O   UNL     1     -12.654  12.620  65.317  1.00  0.00    -0.630 OA 
HETATM   16  C   UNL     1     -10.434  13.113  64.569  1.00  0.00    -0.425 C  
HETATM   17  C   UNL     1     -10.353  14.479  65.243  1.00  0.00    -0.410 C  
HETATM   18  H   UNL     1     -12.953  12.354  64.455  1.00  0.00     0.000 HD 
HETATM   19  O   UNL     1     -11.489  15.267  64.874  1.00  0.00    -0.378 OA 
HETATM   20  C   UNL     1     -10.383  14.206  66.767  1.00  0.00    -0.274 C  
HETATM   21  H   UNL     1     -11.439  16.118  65.294  1.00  0.00     0.000 HD 
BRANCH  20  22
HETATM   22  C   UNL     1      -9.097  14.448  67.538  1.00  0.00    -0.195 C  
HETATM   23  C   UNL     1      -7.870  14.007  67.206  1.00  0.00    -0.143 C  
BRANCH  23  24
HETATM   24  C   UNL     1      -6.590  14.192  67.992  1.00  0.00    -0.151 C  
HETATM   25  H   UNL     1      -4.729  13.593  67.853  1.00  0.00     0.000 HD 
HETATM   26  O   UNL     1      -5.532  13.477  67.360  1.00  0.00    -0.349 OA 
BRANCH  24  27
HETATM   27  C   UNL     1      -6.233  15.689  68.091  1.00  0.00    -0.127 C  
BRANCH  27  28
HETATM   28  O   UNL     1      -6.184  16.298  66.791  1.00  0.00    -0.309 OA 
BRANCH  28  29
HETATM   29  C   UNL     1      -6.750  17.547  66.733  1.00  0.00    -0.202 A  
HETATM   30  C   UNL     1      -6.022  18.740  66.731  1.00  0.00    -0.173 A  
HETATM   31  C   UNL     1      -6.683  19.969  66.656  1.00  0.00    -0.238 A  
HETATM   32  C   UNL     1      -8.073  20.010  66.574  1.00  0.00    -0.346 A  
HETATM   33  C   UNL     1      -8.819  18.826  66.560  1.00  0.00    -0.315 A  
HETATM   34  C   UNL     1     -10.325  18.869  66.473  1.00  0.00    -0.431 C  
HETATM   35  C   UNL     1      -8.144  17.594  66.627  1.00  0.00    -0.286 A  
HETATM   36  F   UNL     1     -10.830  20.137  66.460  1.00  0.00    -0.527 F  
HETATM   37  F   UNL     1     -10.928  18.244  67.522  1.00  0.00    -0.421 F  
HETATM   38  F   UNL     1     -10.805  18.270  65.350  1.00  0.00    -0.466 F  
ENDBRANCH  28  29
ENDBRANCH  27  28
ENDBRANCH  24  27
ENDBRANCH  23  24
ENDBRANCH  20  22
ENDBRANCH  12  13
ENDBRANCH  11  12
ENDBRANCH   9  10
ENDBRANCH   8   9
ENDBRANCH   7   8
ENDBRANCH   5   7
ENDBRANCH   4   5
ENDBRANCH   2   4
TORSDOF 13
ENDMDL
MODEL      183
REMARK 921   NORMALIZED FREE ENERGY PREDICTED BY IDOCK:   -5.26 KCAL/MOL
REMARK 922        TOTAL FREE ENERGY PREDICTED BY IDOCK:  -11.47 KCAL/MOL
REMARK 923 INTER-LIGAND FREE ENERGY PREDICTED BY IDOCK:   -9.22 KCAL/MOL
REMARK 924 INTRA-LIGAND FREE ENERGY PREDICTED BY IDOCK:   -2.25 KCAL/MOL
REMARK 927      BINDING AFFINITY PREDICTED BY RF-SCORE:    0.00 PKD
ROOT
HETATM    1  C   UNL     1     -14.352   8.810  72.304  1.00  0.00    -0.468 C  
HETATM    2  C   UNL     1     -13.072   9.246  71.600  1.00  0.00    -0.382 C  
HETATM    3  C   UNL     1     -12.959  10.767  71.578  1.00  0.00    -0.562 C  
ENDROOT
BRANCH   2   4
HETATM    4  O   UNL     1     -11.935   8.738  72.323  1.00  0.00    -0.365 OA 
BRANCH   4   5
HETATM    5  C   UNL     1     -11.641   7.428  72.082  1.00  0.00    -0.293 C  
HETATM    6  O   UNL     1     -12.271   6.693  71.334  1.00  0.00    -0.347 OA 
BRANCH   5   7
HETATM    7  C   UNL     1     -10.464   6.996  72.916  1.00  0.00    -0.283 C  
BRANCH   7   8
HETATM    8  C   UNL     1     -10.395   5.470  72.963  1.00  0.00    -0.231 C  
BRANCH   8   9
HETATM    9  C   UNL     1      -9.352   4.877  72.020  1.00  0.00    -0.175 C  
BRANCH   9  10
HETATM   10  C   UNL     1      -9.965   4.228  70.809  1.00  0.00    -0.224 C  
HETATM   11  C   UNL     1      -9.377   4.084  69.610  1.00  0.00    -0.243 C  
BRANCH  11  12
HETATM   12  C   UNL     1      -8.022   4.613  69.228  1.00  0.00    -0.070 C  
BRANCH  12  13
HETATM   13  C   UNL     1      -7.993   5.236  67.826  1.00  0.00    -0.099 C  
HETATM   14  C   UNL     1      -7.531   4.306  66.699  1.00  0.00    -0.081 C  
HETATM   15  O   UNL     1      -8.018   2.980  66.876  1.00  0.00    -0.078 OA 
HETATM   16  C   UNL     1      -8.172   4.895  65.448  1.00  0.00    -0.121 C  
HETATM   17  C   UNL     1      -9.561   5.315  65.917  1.00  0.00    -0.125 C  
HETATM   18  H   UNL     1      -7.731   2.403  66.177  1.00  0.00     0.000 HD 
HETATM   19  O   UNL     1     -10.458   4.204  65.824  1.00  0.00    -0.457 OA 
HETATM   20  C   UNL     1      -9.403   5.734  67.399  1.00  0.00    -0.112 C  
HETATM   21  H   UNL     1     -11.324   4.465  66.116  1.00  0.00     0.000 HD 
BRANCH  20  22
HETATM   22  C   UNL     1      -9.536   7.213  67.718  1.00  0.00    -0.136 C  
HETATM   23  C   UNL     1      -9.945   7.746  68.884  1.00  0.00    -0.185 C  
BRANCH  23  24
HETATM   24  C   UNL     1     -10.136   9.214  69.199  1.00  0.00    -0.194 C  
HETATM   25  H   UNL     1      -9.044  10.841  69.145  1.00  0.00     0.000 HD 
HETATM   26  O   UNL     1      -8.924   9.919  68.946  1.00  0.00    -0.138 OA 
BRANCH  24  27
HETATM   27  C   UNL     1     -11.278   9.801  68.346  1.00  0.00    -0.017 C  
BRANCH  27  28
HETATM   28  O   UNL     1     -10.769  10.434  67.160  1.00  0.00    -0.259 OA 
BRANCH  28  29
HETATM   29  C   UNL     1     -11.238  11.708  66.957  1.00  0.00    -0.314 A  
HETATM   30  C   UNL     1     -11.655  12.203  65.719  1.00  0.00    -0.414 A  
HETATM   31  C   UNL     1     -12.132  13.512  65.607  1.00  0.00    -0.467 A  
HETATM   32  C   UNL     1     -12.201  14.328  66.734  1.00  0.00    -0.384 A  
HETATM   33  C   UNL     1     -11.802  13.846  67.986  1.00  0.00    -0.411 A  
HETATM   34  C   UNL     1     -11.876  14.729  69.207  1.00  0.00    -0.318 C  
HETATM   35  C   UNL     1     -11.332  12.524  68.089  1.00  0.00    -0.343 A  
HETATM   36  F   UNL     1     -12.310  15.994  68.935  1.00  0.00    -0.307 F  
HETATM   37  F   UNL     1     -10.668  14.878  69.819  1.00  0.00    -0.244 F  
HETATM   38  F   UNL     1     -12.722  14.245  70.157  1.00  0.00    -0.379 F  
ENDBRANCH  28  29
ENDBRANCH  27  28
ENDBRANCH  24  27
ENDBRANCH  23  24
ENDBRANCH  20  22
ENDBRANCH  12  13
ENDBRANCH  11  12
ENDBRANCH   9  10
ENDBRANCH   8   9
ENDBRANCH   7   8
ENDBRANCH   5   7
ENDBRANCH   4   5
ENDBRANCH   2   4
TORSDOF 13
ENDMDL
MODEL      184
REMARK 921   NORMALIZED FREE ENERGY PREDICTED BY IDOCK:   -5.25 KCAL/MOL
REMARK 922        TOTAL FREE ENERGY PREDICTED BY IDOCK:  -11.46 KCAL/MOL
REMARK 923 INTER-LIGAND FREE ENERGY PREDICTED BY IDOCK:  -10.18 KCAL/MOL
REMARK 924 INTRA-LIGAND FREE ENERGY PREDICTED BY IDOCK:   -1.28 KCAL/MOL
REMARK 927      BINDING AFFINITY PREDICTED BY RF-SCORE:    0.00 PKD
ROOT
HETATM    1  C   UNL     1      -6.556  20.312  64.850  1.00  0.00    -0.323 C  
HETATM    2  C   UNL     1      -6.538  18.859  65.312  1.00  0.00    -0.221 C  
HETATM    3  C   UNL     1      -5.464  18.642  66.373  1.00  0.00    -0.172 C  
ENDROOT
BRANCH   2   4
HETATM    4  O   UNL     1      -7.807  18.534  65.907  1.00  0.00    -0.474 OA 
BRANCH   4   5
HETATM    5  C   UNL     1      -8.638  19.596  66.103  1.00  0.00    -0.333 C  
HETATM    6  O   UNL     1      -9.536  19.935  65.344  1.00  0.00    -0.161 OA 
BRANCH   5   7
HETATM    7  C   UNL     1      -8.256  20.333  67.360  1.00  0.00    -0.387 C  
BRANCH   7   8
HETATM    8  C   UNL     1      -8.537  19.457  68.581  1.00  0.00    -0.394 C  
BRANCH   8   9
HETATM    9  C   UNL     1     -10.021  19.328  68.911  1.00  0.00    -0.495 C  
BRANCH   9  10
HETATM   10  C   UNL     1     -10.626  18.053  68.390  1.00  0.00    -0.249 C  
HETATM   11  C   UNL     1     -10.044  16.843  68.401  1.00  0.00    -0.304 C  
BRANCH  11  12
HETATM   12  C   UNL     1      -8.645  16.546  68.866  1.00  0.00    -0.241 C  
BRANCH  12  13
HETATM   13  C   UNL     1      -7.985  15.397  68.093  1.00  0.00    -0.132 C  
HETATM   14  C   UNL     1      -6.463  15.491  67.942  1.00  0.00    -0.154 C  
HETATM   15  O   UNL     1      -5.846  16.000  69.120  1.00  0.00    -0.114 OA 
HETATM   16  C   UNL     1      -6.021  14.045  67.749  1.00  0.00    -0.115 C  
HETATM   17  C   UNL     1      -6.903  13.265  68.719  1.00  0.00    -0.102 C  
HETATM   18  H   UNL     1      -4.902  16.058  69.026  1.00  0.00     0.000 HD 
HETATM   19  O   UNL     1      -6.298  13.252  70.016  1.00  0.00    -0.288 OA 
HETATM   20  C   UNL     1      -8.249  14.027  68.781  1.00  0.00    -0.049 C  
HETATM   21  H   UNL     1      -6.847  12.766  70.621  1.00  0.00     0.000 HD 
BRANCH  20  22
HETATM   22  C   UNL     1      -9.451  13.361  68.136  1.00  0.00    -0.218 C  
HETATM   23  C   UNL     1      -9.433  12.530  67.077  1.00  0.00    -0.217 C  
BRANCH  23  24
HETATM   24  C   UNL     1     -10.626  11.903  66.389  1.00  0.00    -0.248 C  
HETATM   25  H   UNL     1     -11.104  10.138  65.683  1.00  0.00     0.000 HD 
HETATM   26  O   UNL     1     -10.355  10.531  66.116  1.00  0.00    -0.241 OA 
BRANCH  24  27
HETATM   27  C   UNL     1     -11.883  12.028  67.274  1.00  0.00    -0.187 C  
BRANCH  27  28
HETATM   28  O   UNL     1     -11.918  10.997  68.275  1.00  0.00    -0.593 OA 
BRANCH  28  29
HETATM   29  C   UNL     1     -12.275  11.438  69.524  1.00  0.00    -0.235 A  
HETATM   30  C   UNL     1     -12.751  10.610  70.544  1.00  0.00    -0.395 A  
HETATM   31  C   UNL     1     -13.077  11.145  71.792  1.00  0.00    -0.536 A  
HETATM   32  C   UNL     1     -12.922  12.509  72.030  1.00  0.00    -0.379 A  
HETATM   33  C   UNL     1     -12.433  13.353  71.026  1.00  0.00    -0.437 A  
HETATM   34  C   UNL     1     -12.266  14.831  71.282  1.00  0.00    -0.333 C  
HETATM   35  C   UNL     1     -12.099  12.803  69.775  1.00  0.00    -0.305 A  
HETATM   36  F   UNL     1     -12.675  15.215  72.526  1.00  0.00    -0.339 F  
HETATM   37  F   UNL     1     -12.977  15.597  70.408  1.00  0.00    -0.454 F  
HETATM   38  F   UNL     1     -10.972  15.241  71.176  1.00  0.00    -0.355 F  
ENDBRANCH  28  29
ENDBRANCH  27  28
ENDBRANCH  24  27
ENDBRANCH  23  24
ENDBRANCH  20  22
ENDBRANCH  12  13
ENDBRANCH  11  12
ENDBRANCH   9  10
ENDBRANCH   8   9
ENDBRANCH   7   8
ENDBRANCH   5   7
ENDBRANCH   4   5
ENDBRANCH   2   4
TORSDOF 13
ENDMDL
MODEL      185
REMARK 921   NORMALIZED FREE ENERGY PREDICTED BY IDOCK:   -5.25 KCAL/MOL
REMARK 922        TOTAL FREE ENERGY PREDICTED BY IDOCK:  -11.46 KCAL/MOL
REMARK 923 INTER-LIGAND FREE ENERGY PREDICTED BY IDOCK:   -8.27 KCAL/MOL
REMARK 924 INTRA-LIGAND FREE ENERGY PREDICTED BY IDOCK:   -3.19 KCAL/MOL
REMARK 927      BINDING AFFINITY PREDICTED BY RF-SCORE:    0.00 PKD
ROOT
HETATM    1  C   UNL     1     -10.435  14.322  65.536  1.00  0.00    -0.361 C  
HETATM    2  C   UNL     1     -11.954  14.200  65.580  1.00  0.00    -0.396 C  
HETATM    3  C   UNL     1     -12.449  13.222  64.519  1.00  0.00    -0.381 C  
ENDROOT
BRANCH   2   4
HETATM    4  O   UNL     1     -12.352  13.685  66.863  1.00  0.00    -0.365 OA 
BRANCH   4   5
HETATM    5  C   UNL     1     -11.687  14.218  67.927  1.00  0.00    -0.359 C  
HETATM    6  O   UNL     1     -11.569  15.414  68.154  1.00  0.00    -0.347 OA 
BRANCH   5   7
HETATM    7  C   UNL     1     -11.064  13.124  68.754  1.00  0.00    -0.309 C  
BRANCH   7   8
HETATM    8  C   UNL     1     -12.122  12.493  69.660  1.00  0.00    -0.272 C  
BRANCH   8   9
HETATM    9  C   UNL     1     -12.160  10.970  69.583  1.00  0.00    -0.411 C  
BRANCH   9  10
HETATM   10  C   UNL     1     -11.205  10.313  70.542  1.00  0.00    -0.408 C  
HETATM   11  C   UNL     1     -10.052   9.708  70.216  1.00  0.00    -0.331 C  
BRANCH  11  12
HETATM   12  C   UNL     1      -9.533   9.503  68.819  1.00  0.00    -0.147 C  
BRANCH  12  13
HETATM   13  C   UNL     1      -8.009   9.336  68.763  1.00  0.00    -0.099 C  
HETATM   14  C   UNL     1      -7.237  10.515  68.159  1.00  0.00    -0.087 C  
HETATM   15  O   UNL     1      -7.800  11.765  68.542  1.00  0.00    -0.137 OA 
HETATM   16  C   UNL     1      -5.847  10.400  68.774  1.00  0.00    -0.040 C  
HETATM   17  C   UNL     1      -6.123   9.995  70.219  1.00  0.00    -0.082 C  
HETATM   18  H   UNL     1      -7.322  12.496  68.167  1.00  0.00     0.000 HD 
HETATM   19  O   UNL     1      -6.352  11.165  71.012  1.00  0.00    -0.432 OA 
HETATM   20  C   UNL     1      -7.408   9.132  70.183  1.00  0.00    -0.077 C  
HETATM   21  H   UNL     1      -6.524  10.912  71.912  1.00  0.00     0.000 HD 
BRANCH  20  22
HETATM   22  C   UNL     1      -7.252   7.647  70.457  1.00  0.00    -0.062 C  
HETATM   23  C   UNL     1      -6.436   7.084  71.368  1.00  0.00    -0.041 C  
BRANCH  23  24
HETATM   24  C   UNL     1      -6.227   5.605  71.615  1.00  0.00    -0.042 C  
HETATM   25  H   UNL     1      -6.702   4.307  73.005  1.00  0.00     0.000 HD 
HETATM   26  O   UNL     1      -6.834   5.236  72.850  1.00  0.00    -0.075 OA 
BRANCH  24  27
HETATM   27  C   UNL     1      -6.830   4.778  70.461  1.00  0.00    -0.037 C  
BRANCH  27  28
HETATM   28  O   UNL     1      -8.117   4.250  70.817  1.00  0.00    -0.065 OA 
BRANCH  28  29
HETATM   29  C   UNL     1      -9.177   4.937  70.280  1.00  0.00    -0.137 A  
HETATM   30  C   UNL     1      -9.408   5.079  68.910  1.00  0.00    -0.174 A  
HETATM   31  C   UNL     1     -10.522   5.787  68.452  1.00  0.00    -0.283 A  
HETATM   32  C   UNL     1     -11.414   6.350  69.363  1.00  0.00    -0.374 A  
HETATM   33  C   UNL     1     -11.208   6.206  70.740  1.00  0.00    -0.373 A  
HETATM   34  C   UNL     1     -12.173   6.816  71.727  1.00  0.00    -0.358 C  
HETATM   35  C   UNL     1     -10.088   5.484  71.190  1.00  0.00    -0.267 A  
HETATM   36  F   UNL     1     -13.180   7.521  71.135  1.00  0.00    -0.353 F  
HETATM   37  F   UNL     1     -11.567   7.687  72.581  1.00  0.00    -0.325 F  
HETATM   38  F   UNL     1     -12.784   5.886  72.510  1.00  0.00    -0.263 F  
ENDBRANCH  28  29
ENDBRANCH  27  28
ENDBRANCH  24  27
ENDBRANCH  23  24
ENDBRANCH  20  22
ENDBRANCH  12  13
ENDBRANCH  11  12
ENDBRANCH   9  10
ENDBRANCH   8   9
ENDBRANCH   7   8
ENDBRANCH   5   7
ENDBRANCH   4   5
ENDBRANCH   2   4
TORSDOF 13
ENDMDL
MODEL      186
REMARK 921   NORMALIZED FREE ENERGY PREDICTED BY IDOCK:   -5.24 KCAL/MOL
REMARK 922        TOTAL FREE ENERGY PREDICTED BY IDOCK:  -11.45 KCAL/MOL
REMARK 923 INTER-LIGAND FREE ENERGY PREDICTED BY IDOCK:   -8.44 KCAL/MOL
REMARK 924 INTRA-LIGAND FREE ENERGY PREDICTED BY IDOCK:   -3.00 KCAL/MOL
REMARK 927      BINDING AFFINITY PREDICTED BY RF-SCORE:    0.00 PKD
ROOT
HETATM    1  C   UNL     1     -10.850   9.293  71.245  1.00  0.00    -0.417 C  
HETATM    2  C   UNL     1     -12.103  10.039  70.797  1.00  0.00    -0.327 C  
HETATM    3  C   UNL     1     -13.117  10.122  71.932  1.00  0.00    -0.571 C  
ENDROOT
BRANCH   2   4
HETATM    4  O   UNL     1     -11.749  11.385  70.432  1.00  0.00    -0.324 OA 
BRANCH   4   5
HETATM    5  C   UNL     1     -11.734  11.631  69.091  1.00  0.00    -0.326 C  
HETATM    6  O   UNL     1     -12.452  11.080  68.268  1.00  0.00    -0.247 OA 
BRANCH   5   7
HETATM    7  C   UNL     1     -10.664  12.637  68.756  1.00  0.00    -0.240 C  
BRANCH   7   8
HETATM    8  C   UNL     1     -10.907  13.207  67.359  1.00  0.00    -0.269 C  
BRANCH   8   9
HETATM    9  C   UNL     1      -9.886  12.743  66.325  1.00  0.00    -0.269 C  
BRANCH   9  10
HETATM   10  C   UNL     1     -10.498  11.906  65.235  1.00  0.00    -0.317 C  
HETATM   11  C   UNL     1     -10.178  10.635  64.944  1.00  0.00    -0.395 C  
BRANCH  11  12
HETATM   12  C   UNL     1      -9.091   9.831  65.601  1.00  0.00    -0.222 C  
BRANCH  12  13
HETATM   13  C   UNL     1      -9.498   9.278  66.974  1.00  0.00    -0.205 C  
HETATM   14  C   UNL     1     -10.285   7.962  66.948  1.00  0.00    -0.310 C  
HETATM   15  O   UNL     1      -9.803   7.079  65.941  1.00  0.00    -0.381 OA 
HETATM   16  C   UNL     1     -10.007   7.341  68.312  1.00  0.00    -0.177 C  
HETATM   17  C   UNL     1      -8.531   7.641  68.553  1.00  0.00    -0.129 C  
HETATM   18  H   UNL     1     -10.291   6.263  65.926  1.00  0.00     0.000 HD 
HETATM   19  O   UNL     1      -7.727   6.621  67.951  1.00  0.00    -0.104 OA 
HETATM   20  C   UNL     1      -8.253   8.998  67.863  1.00  0.00    -0.110 C  
HETATM   21  H   UNL     1      -6.808   6.808  68.101  1.00  0.00     0.000 HD 
BRANCH  20  22
HETATM   22  C   UNL     1      -7.996  10.193  68.764  1.00  0.00    -0.104 C  
HETATM   23  C   UNL     1      -6.957  11.045  68.686  1.00  0.00    -0.075 C  
BRANCH  23  24
HETATM   24  C   UNL     1      -6.657  12.206  69.610  1.00  0.00    -0.029 C  
HETATM   25  H   UNL     1      -5.615  12.499  71.244  1.00  0.00     0.000 HD 
HETATM   26  O   UNL     1      -5.803  11.771  70.663  1.00  0.00    -0.244 OA 
BRANCH  24  27
HETATM   27  C   UNL     1      -5.990  13.355  68.827  1.00  0.00    -0.084 C  
BRANCH  27  28
HETATM   28  O   UNL     1      -5.967  14.566  69.601  1.00  0.00    -0.097 OA 
BRANCH  28  29
HETATM   29  C   UNL     1      -6.866  15.516  69.188  1.00  0.00    -0.155 A  
HETATM   30  C   UNL     1      -8.177  15.237  68.792  1.00  0.00    -0.169 A  
HETATM   31  C   UNL     1      -9.029  16.272  68.398  1.00  0.00    -0.203 A  
HETATM   32  C   UNL     1      -8.578  17.589  68.406  1.00  0.00    -0.275 A  
HETATM   33  C   UNL     1      -7.273  17.891  68.813  1.00  0.00    -0.275 A  
HETATM   34  C   UNL     1      -6.782  19.318  68.821  1.00  0.00    -0.303 C  
HETATM   35  C   UNL     1      -6.426  16.843  69.216  1.00  0.00    -0.228 A  
HETATM   36  F   UNL     1      -7.706  20.210  68.361  1.00  0.00    -0.333 F  
HETATM   37  F   UNL     1      -5.680  19.496  68.042  1.00  0.00    -0.194 F  
HETATM   38  F   UNL     1      -6.439  19.750  70.065  1.00  0.00    -0.336 F  
ENDBRANCH  28  29
ENDBRANCH  27  28
ENDBRANCH  24  27
ENDBRANCH  23  24
ENDBRANCH  20  22
ENDBRANCH  12  13
ENDBRANCH  11  12
ENDBRANCH   9  10
ENDBRANCH   8   9
ENDBRANCH   7   8
ENDBRANCH   5   7
ENDBRANCH   4   5
ENDBRANCH   2   4
TORSDOF 13
ENDMDL
MODEL      187
REMARK 921   NORMALIZED FREE ENERGY PREDICTED BY IDOCK:   -5.22 KCAL/MOL
REMARK 922        TOTAL FREE ENERGY PREDICTED BY IDOCK:  -11.41 KCAL/MOL
REMARK 923 INTER-LIGAND FREE ENERGY PREDICTED BY IDOCK:   -9.15 KCAL/MOL
REMARK 924 INTRA-LIGAND FREE ENERGY PREDICTED BY IDOCK:   -2.27 KCAL/MOL
REMARK 927      BINDING AFFINITY PREDICTED BY RF-SCORE:    0.00 PKD
ROOT
HETATM    1  C   UNL     1      -7.497   3.600  64.046  1.00  0.00    -0.066 C  
HETATM    2  C   UNL     1      -7.188   4.863  64.842  1.00  0.00    -0.063 C  
HETATM    3  C   UNL     1      -7.019   6.060  63.912  1.00  0.00    -0.050 C  
ENDROOT
BRANCH   2   4
HETATM    4  O   UNL     1      -8.289   5.150  65.723  1.00  0.00    -0.114 OA 
BRANCH   4   5
HETATM    5  C   UNL     1      -7.944   5.349  67.027  1.00  0.00    -0.101 C  
HETATM    6  O   UNL     1      -7.660   4.463  67.821  1.00  0.00    -0.075 OA 
BRANCH   5   7
HETATM    7  C   UNL     1      -8.020   6.814  67.369  1.00  0.00    -0.114 C  
BRANCH   7   8
HETATM    8  C   UNL     1      -9.348   7.393  66.882  1.00  0.00    -0.195 C  
BRANCH   8   9
HETATM    9  C   UNL     1     -10.364   7.612  67.999  1.00  0.00    -0.257 C  
BRANCH   9  10
HETATM   10  C   UNL     1     -11.017   6.335  68.452  1.00  0.00    -0.409 C  
HETATM   11  C   UNL     1     -10.718   5.649  69.566  1.00  0.00    -0.380 C  
BRANCH  11  12
HETATM   12  C   UNL     1      -9.618   5.985  70.536  1.00  0.00    -0.198 C  
BRANCH  12  13
HETATM   13  C   UNL     1     -10.140   6.402  71.917  1.00  0.00    -0.204 C  
HETATM   14  C   UNL     1      -9.851   5.417  73.056  1.00  0.00    -0.162 C  
HETATM   15  O   UNL     1      -8.558   4.833  72.932  1.00  0.00    -0.110 OA 
HETATM   16  C   UNL     1      -9.872   6.287  74.308  1.00  0.00    -0.297 C  
HETATM   17  C   UNL     1      -9.176   7.571  73.869  1.00  0.00    -0.262 C  
HETATM   18  H   UNL     1      -8.379   4.223  73.639  1.00  0.00     0.000 HD 
HETATM   19  O   UNL     1      -7.760   7.428  74.021  1.00  0.00    -0.112 OA 
HETATM   20  C   UNL     1      -9.523   7.754  72.372  1.00  0.00    -0.234 C  
HETATM   21  H   UNL     1      -7.326   8.228  73.748  1.00  0.00     0.000 HD 
BRANCH  20  22
HETATM   22  C   UNL     1     -10.468   8.888  72.014  1.00  0.00    -0.383 C  
HETATM   23  C   UNL     1     -11.733   8.765  71.573  1.00  0.00    -0.377 C  
BRANCH  23  24
HETATM   24  C   UNL     1     -12.668   9.881  71.159  1.00  0.00    -0.366 C  
HETATM   25  H   UNL     1     -13.965  11.058  72.039  1.00  0.00     0.000 HD 
HETATM   26  O   UNL     1     -13.378  10.358  72.298  1.00  0.00    -0.396 OA 
BRANCH  24  27
HETATM   27  C   UNL     1     -11.874  11.032  70.510  1.00  0.00    -0.367 C  
BRANCH  27  28
HETATM   28  O   UNL     1     -11.784  10.862  69.085  1.00  0.00    -0.292 OA 
BRANCH  28  29
HETATM   29  C   UNL     1     -11.729  12.039  68.381  1.00  0.00    -0.332 A  
HETATM   30  C   UNL     1     -11.754  12.121  66.986  1.00  0.00    -0.373 A  
HETATM   31  C   UNL     1     -11.706  13.365  66.352  1.00  0.00    -0.409 A  
HETATM   32  C   UNL     1     -11.641  14.532  67.110  1.00  0.00    -0.406 A  
HETATM   33  C   UNL     1     -11.630  14.472  68.509  1.00  0.00    -0.344 A  
HETATM   34  C   UNL     1     -11.559  15.735  69.330  1.00  0.00    -0.365 C  
HETATM   35  C   UNL     1     -11.687  13.215  69.137  1.00  0.00    -0.376 A  
HETATM   36  F   UNL     1     -11.464  16.868  68.575  1.00  0.00    -0.291 F  
HETATM   37  F   UNL     1     -10.482  15.758  70.163  1.00  0.00    -0.270 F  
HETATM   38  F   UNL     1     -12.651  15.911  70.122  1.00  0.00    -0.395 F  
ENDBRANCH  28  29
ENDBRANCH  27  28
ENDBRANCH  24  27
ENDBRANCH  23  24
ENDBRANCH  20  22
ENDBRANCH  12  13
ENDBRANCH  11  12
ENDBRANCH   9  10
ENDBRANCH   8   9
ENDBRANCH   7   8
ENDBRANCH   5   7
ENDBRANCH   4   5
ENDBRANCH   2   4
TORSDOF 13
ENDMDL
MODEL      188
REMARK 921   NORMALIZED FREE ENERGY PREDICTED BY IDOCK:   -5.22 KCAL/MOL
REMARK 922        TOTAL FREE ENERGY PREDICTED BY IDOCK:  -11.41 KCAL/MOL
REMARK 923 INTER-LIGAND FREE ENERGY PREDICTED BY IDOCK:   -8.90 KCAL/MOL
REMARK 924 INTRA-LIGAND FREE ENERGY PREDICTED BY IDOCK:   -2.51 KCAL/MOL
REMARK 927      BINDING AFFINITY PREDICTED BY RF-SCORE:    0.00 PKD
ROOT
HETATM    1  C   UNL     1     -10.161   4.754  66.427  1.00  0.00    -0.291 C  
HETATM    2  C   UNL     1     -10.364   6.014  67.261  1.00  0.00    -0.223 C  
HETATM    3  C   UNL     1     -10.620   5.658  68.723  1.00  0.00    -0.286 C  
ENDROOT
BRANCH   2   4
HETATM    4  O   UNL     1      -9.169   6.814  67.212  1.00  0.00    -0.129 OA 
BRANCH   4   5
HETATM    5  C   UNL     1      -9.381   8.153  67.064  1.00  0.00    -0.155 C  
HETATM    6  O   UNL     1     -10.277   8.652  66.398  1.00  0.00    -0.282 OA 
BRANCH   5   7
HETATM    7  C   UNL     1      -8.317   8.933  67.789  1.00  0.00    -0.110 C  
BRANCH   7   8
HETATM    8  C   UNL     1      -7.563   8.013  68.751  1.00  0.00    -0.103 C  
BRANCH   8   9
HETATM    9  C   UNL     1      -7.240   8.666  70.091  1.00  0.00    -0.052 C  
BRANCH   9  10
HETATM   10  C   UNL     1      -7.203   7.679  71.226  1.00  0.00    -0.062 C  
HETATM   11  C   UNL     1      -8.126   7.558  72.194  1.00  0.00    -0.115 C  
BRANCH  11  12
HETATM   12  C   UNL     1      -9.333   8.436  72.372  1.00  0.00    -0.356 C  
BRANCH  12  13
HETATM   13  C   UNL     1     -10.576   7.905  71.646  1.00  0.00    -0.267 C  
HETATM   14  C   UNL     1     -11.284   6.727  72.324  1.00  0.00    -0.259 C  
HETATM   15  O   UNL     1     -11.295   6.864  73.742  1.00  0.00    -0.340 OA 
HETATM   16  C   UNL     1     -12.719   6.819  71.818  1.00  0.00    -0.342 C  
HETATM   17  C   UNL     1     -13.007   8.317  71.815  1.00  0.00    -0.344 C  
HETATM   18  H   UNL     1     -11.734   6.133  74.162  1.00  0.00     0.000 HD 
HETATM   19  O   UNL     1     -13.463   8.723  73.110  1.00  0.00    -0.953 OA 
HETATM   20  C   UNL     1     -11.660   9.010  71.497  1.00  0.00    -0.413 C  
HETATM   21  H   UNL     1     -13.642   9.656  73.108  1.00  0.00     0.000 HD 
BRANCH  20  22
HETATM   22  C   UNL     1     -11.526   9.671  70.137  1.00  0.00    -0.238 C  
HETATM   23  C   UNL     1     -10.808  10.773  69.850  1.00  0.00    -0.264 C  
BRANCH  23  24
HETATM   24  C   UNL     1     -10.710  11.475  68.512  1.00  0.00    -0.209 C  
HETATM   25  H   UNL     1     -11.912  12.478  67.333  1.00  0.00     0.000 HD 
HETATM   26  O   UNL     1     -11.974  12.037  68.172  1.00  0.00    -0.465 OA 
BRANCH  24  27
HETATM   27  C   UNL     1      -9.636  12.580  68.566  1.00  0.00    -0.110 C  
BRANCH  27  28
HETATM   28  O   UNL     1     -10.063  13.682  69.384  1.00  0.00     0.202 OA 
BRANCH  28  29
HETATM   29  C   UNL     1     -10.152  14.878  68.717  1.00  0.00    -0.241 A  
HETATM   30  C   UNL     1      -9.842  16.117  69.282  1.00  0.00    -0.250 A  
HETATM   31  C   UNL     1      -9.950  17.285  68.523  1.00  0.00    -0.320 A  
HETATM   32  C   UNL     1     -10.360  17.218  67.193  1.00  0.00    -0.321 A  
HETATM   33  C   UNL     1     -10.660  15.984  66.604  1.00  0.00    -0.297 A  
HETATM   34  C   UNL     1     -11.106  15.910  65.164  1.00  0.00    -0.311 C  
HETATM   35  C   UNL     1     -10.541  14.813  67.375  1.00  0.00    -0.268 A  
HETATM   36  F   UNL     1     -11.215  17.132  64.568  1.00  0.00    -0.374 F  
HETATM   37  F   UNL     1     -12.326  15.322  65.024  1.00  0.00    -0.158 F  
HETATM   38  F   UNL     1     -10.250  15.194  64.385  1.00  0.00    -0.194 F  
ENDBRANCH  28  29
ENDBRANCH  27  28
ENDBRANCH  24  27
ENDBRANCH  23  24
ENDBRANCH  20  22
ENDBRANCH  12  13
ENDBRANCH  11  12
ENDBRANCH   9  10
ENDBRANCH   8   9
ENDBRANCH   7   8
ENDBRANCH   5   7
ENDBRANCH   4   5
ENDBRANCH   2   4
TORSDOF 13
ENDMDL
MODEL      189
REMARK 921   NORMALIZED FREE ENERGY PREDICTED BY IDOCK:   -5.22 KCAL/MOL
REMARK 922        TOTAL FREE ENERGY PREDICTED BY IDOCK:  -11.40 KCAL/MOL
REMARK 923 INTER-LIGAND FREE ENERGY PREDICTED BY IDOCK:   -9.24 KCAL/MOL
REMARK 924 INTRA-LIGAND FREE ENERGY PREDICTED BY IDOCK:   -2.16 KCAL/MOL
REMARK 927      BINDING AFFINITY PREDICTED BY RF-SCORE:    0.00 PKD
ROOT
HETATM    1  C   UNL     1     -10.425  17.073  66.641  1.00  0.00    -0.253 C  
HETATM    2  C   UNL     1      -9.623  17.446  67.883  1.00  0.00    -0.267 C  
HETATM    3  C   UNL     1     -10.054  18.809  68.415  1.00  0.00    -0.443 C  
ENDROOT
BRANCH   2   4
HETATM    4  O   UNL     1      -9.872  16.478  68.917  1.00  0.00    -0.239 OA 
BRANCH   4   5
HETATM    5  C   UNL     1     -11.053  15.806  68.803  1.00  0.00    -0.321 C  
HETATM    6  O   UNL     1     -12.131  16.208  69.218  1.00  0.00    -0.225 OA 
BRANCH   5   7
HETATM    7  C   UNL     1     -10.832  14.470  68.146  1.00  0.00    -0.246 C  
BRANCH   7   8
HETATM    8  C   UNL     1     -11.963  13.513  68.524  1.00  0.00    -0.379 C  
BRANCH   8   9
HETATM    9  C   UNL     1     -11.727  12.779  69.841  1.00  0.00    -0.321 C  
BRANCH   9  10
HETATM   10  C   UNL     1     -12.026  11.308  69.750  1.00  0.00    -0.431 C  
HETATM   11  C   UNL     1     -11.319  10.401  69.056  1.00  0.00    -0.279 C  
BRANCH  11  12
HETATM   12  C   UNL     1     -10.137  10.697  68.175  1.00  0.00    -0.179 C  
BRANCH  12  13
HETATM   13  C   UNL     1     -10.288  10.133  66.756  1.00  0.00    -0.285 C  
HETATM   14  C   UNL     1     -10.522  11.173  65.654  1.00  0.00    -0.248 C  
HETATM   15  O   UNL     1      -9.756  12.353  65.871  1.00  0.00    -0.252 OA 
HETATM   16  C   UNL     1     -10.015  10.490  64.389  1.00  0.00    -0.410 C  
HETATM   17  C   UNL     1      -8.757   9.760  64.852  1.00  0.00    -0.183 C  
HETATM   18  H   UNL     1      -9.901  12.997  65.187  1.00  0.00     0.000 HD 
HETATM   19  O   UNL     1      -7.636  10.648  64.794  1.00  0.00    -0.337 OA 
HETATM   20  C   UNL     1      -9.019   9.347  66.321  1.00  0.00    -0.189 C  
HETATM   21  H   UNL     1      -6.853  10.193  65.083  1.00  0.00     0.000 HD 
BRANCH  20  22
HETATM   22  C   UNL     1      -9.221   7.868  66.598  1.00  0.00    -0.221 C  
HETATM   23  C   UNL     1     -10.399   7.236  66.749  1.00  0.00    -0.311 C  
BRANCH  23  24
HETATM   24  C   UNL     1     -10.615   5.775  67.081  1.00  0.00    -0.291 C  
HETATM   25  H   UNL     1      -9.759   4.067  66.642  1.00  0.00     0.000 HD 
HETATM   26  O   UNL     1      -9.623   4.985  66.434  1.00  0.00    -0.140 OA 
BRANCH  24  27
HETATM   27  C   UNL     1     -10.553   5.557  68.607  1.00  0.00    -0.145 C  
BRANCH  27  28
HETATM   28  O   UNL     1     -11.642   6.219  69.271  1.00  0.00    -0.363 OA 
BRANCH  28  29
HETATM   29  C   UNL     1     -11.273   6.935  70.381  1.00  0.00    -0.312 A  
HETATM   30  C   UNL     1     -12.174   7.509  71.282  1.00  0.00    -0.357 A  
HETATM   31  C   UNL     1     -11.707   8.212  72.395  1.00  0.00    -0.461 A  
HETATM   32  C   UNL     1     -10.338   8.338  72.617  1.00  0.00    -0.374 A  
HETATM   33  C   UNL     1      -9.419   7.757  71.736  1.00  0.00    -0.191 A  
HETATM   34  C   UNL     1      -7.935   7.893  71.975  1.00  0.00    -0.113 C  
HETATM   35  C   UNL     1      -9.900   7.044  70.622  1.00  0.00    -0.187 A  
HETATM   36  F   UNL     1      -7.631   8.649  73.069  1.00  0.00    -0.156 F  
HETATM   37  F   UNL     1      -7.288   8.480  70.930  1.00  0.00    -0.047 F  
HETATM   38  F   UNL     1      -7.322   6.695  72.173  1.00  0.00    -0.083 F  
ENDBRANCH  28  29
ENDBRANCH  27  28
ENDBRANCH  24  27
ENDBRANCH  23  24
ENDBRANCH  20  22
ENDBRANCH  12  13
ENDBRANCH  11  12
ENDBRANCH   9  10
ENDBRANCH   8   9
ENDBRANCH   7   8
ENDBRANCH   5   7
ENDBRANCH   4   5
ENDBRANCH   2   4
TORSDOF 13
ENDMDL
MODEL      190
REMARK 921   NORMALIZED FREE ENERGY PREDICTED BY IDOCK:   -5.20 KCAL/MOL
REMARK 922        TOTAL FREE ENERGY PREDICTED BY IDOCK:  -11.37 KCAL/MOL
REMARK 923 INTER-LIGAND FREE ENERGY PREDICTED BY IDOCK:   -9.37 KCAL/MOL
REMARK 924 INTRA-LIGAND FREE ENERGY PREDICTED BY IDOCK:   -2.00 KCAL/MOL
REMARK 927      BINDING AFFINITY PREDICTED BY RF-SCORE:    0.00 PKD
ROOT
HETATM    1  C   UNL     1      -7.301   9.007  70.770  1.00  0.00    -0.109 C  
HETATM    2  C   UNL     1      -8.024   7.665  70.801  1.00  0.00    -0.102 C  
HETATM    3  C   UNL     1      -7.341   6.662  69.876  1.00  0.00    -0.086 C  
ENDROOT
BRANCH   2   4
HETATM    4  O   UNL     1      -7.972   7.129  72.136  1.00  0.00    -0.091 OA 
BRANCH   4   5
HETATM    5  C   UNL     1      -9.129   7.250  72.847  1.00  0.00    -0.140 C  
HETATM    6  O   UNL     1      -9.240   7.847  73.909  1.00  0.00    -0.267 OA 
BRANCH   5   7
HETATM    7  C   UNL     1     -10.240   6.491  72.171  1.00  0.00    -0.203 C  
BRANCH   7   8
HETATM    8  C   UNL     1     -11.519   7.329  72.177  1.00  0.00    -0.310 C  
BRANCH   8   9
HETATM    9  C   UNL     1     -11.766   8.074  70.869  1.00  0.00    -0.265 C  
BRANCH   9  10
HETATM   10  C   UNL     1     -11.173   9.457  70.864  1.00  0.00    -0.393 C  
HETATM   11  C   UNL     1     -10.747  10.127  69.783  1.00  0.00    -0.317 C  
BRANCH  11  12
HETATM   12  C   UNL     1     -10.709   9.594  68.377  1.00  0.00    -0.251 C  
BRANCH  12  13
HETATM   13  C   UNL     1      -9.677  10.305  67.491  1.00  0.00    -0.196 C  
HETATM   14  C   UNL     1      -8.368   9.541  67.259  1.00  0.00    -0.125 C  
HETATM   15  O   UNL     1      -8.594   8.143  67.105  1.00  0.00    -0.121 OA 
HETATM   16  C   UNL     1      -7.847  10.096  65.939  1.00  0.00    -0.132 C  
HETATM   17  C   UNL     1      -9.104  10.248  65.088  1.00  0.00    -0.197 C  
HETATM   18  H   UNL     1      -7.783   7.670  66.961  1.00  0.00     0.000 HD 
HETATM   19  O   UNL     1      -9.390   9.011  64.427  1.00  0.00    -0.392 OA 
HETATM   20  C   UNL     1     -10.248  10.588  66.073  1.00  0.00    -0.310 C  
HETATM   21  H   UNL     1     -10.173   9.105  63.897  1.00  0.00     0.000 HD 
BRANCH  20  22
HETATM   22  C   UNL     1     -10.805  12.000  66.024  1.00  0.00    -0.329 C  
HETATM   23  C   UNL     1     -10.092  13.141  66.004  1.00  0.00    -0.286 C  
BRANCH  23  24
HETATM   24  C   UNL     1     -10.631  14.555  66.013  1.00  0.00    -0.307 C  
HETATM   25  H   UNL     1     -12.147  15.502  66.819  1.00  0.00     0.000 HD 
HETATM   26  O   UNL     1     -11.808  14.614  66.814  1.00  0.00    -0.377 OA 
BRANCH  24  27
HETATM   27  C   UNL     1      -9.569  15.530  66.559  1.00  0.00    -0.272 C  
BRANCH  27  28
HETATM   28  O   UNL     1     -10.094  16.317  67.641  1.00  0.00    -0.250 OA 
BRANCH  28  29
HETATM   29  C   UNL     1      -9.847  17.663  67.530  1.00  0.00    -0.299 A  
HETATM   30  C   UNL     1     -10.770  18.594  67.046  1.00  0.00    -0.400 A  
HETATM   31  C   UNL     1     -10.436  19.949  66.981  1.00  0.00    -0.570 A  
HETATM   32  C   UNL     1      -9.181  20.380  67.406  1.00  0.00    -0.513 A  
HETATM   33  C   UNL     1      -8.248  19.465  67.908  1.00  0.00    -0.341 A  
HETATM   34  C   UNL     1      -6.889  19.931  68.368  1.00  0.00    -0.300 C  
HETATM   35  C   UNL     1      -8.598  18.104  67.978  1.00  0.00    -0.272 A  
HETATM   36  F   UNL     1      -6.688  21.269  68.195  1.00  0.00    -0.321 F  
HETATM   37  F   UNL     1      -5.872  19.317  67.701  1.00  0.00    -0.185 F  
HETATM   38  F   UNL     1      -6.670  19.693  69.690  1.00  0.00    -0.341 F  
ENDBRANCH  28  29
ENDBRANCH  27  28
ENDBRANCH  24  27
ENDBRANCH  23  24
ENDBRANCH  20  22
ENDBRANCH  12  13
ENDBRANCH  11  12
ENDBRANCH   9  10
ENDBRANCH   8   9
ENDBRANCH   7   8
ENDBRANCH   5   7
ENDBRANCH   4   5
ENDBRANCH   2   4
TORSDOF 13
ENDMDL
MODEL      191
REMARK 921   NORMALIZED FREE ENERGY PREDICTED BY IDOCK:   -5.20 KCAL/MOL
REMARK 922        TOTAL FREE ENERGY PREDICTED BY IDOCK:  -11.37 KCAL/MOL
REMARK 923 INTER-LIGAND FREE ENERGY PREDICTED BY IDOCK:  -10.12 KCAL/MOL
REMARK 924 INTRA-LIGAND FREE ENERGY PREDICTED BY IDOCK:   -1.25 KCAL/MOL
REMARK 927      BINDING AFFINITY PREDICTED BY RF-SCORE:    0.00 PKD
ROOT
HETATM    1  C   UNL     1     -10.290   4.804  71.599  1.00  0.00    -0.215 C  
HETATM    2  C   UNL     1      -9.300   3.782  71.051  1.00  0.00    -0.148 C  
HETATM    3  C   UNL     1      -9.521   3.562  69.558  1.00  0.00    -0.236 C  
ENDROOT
BRANCH   2   4
HETATM    4  O   UNL     1      -7.960   4.280  71.222  1.00  0.00    -0.073 OA 
BRANCH   4   5
HETATM    5  C   UNL     1      -7.815   5.619  71.014  1.00  0.00    -0.105 C  
HETATM    6  O   UNL     1      -7.953   6.482  71.871  1.00  0.00    -0.102 OA 
BRANCH   5   7
HETATM    7  C   UNL     1      -7.518   5.893  69.563  1.00  0.00    -0.076 C  
BRANCH   7   8
HETATM    8  C   UNL     1      -8.202   7.190  69.130  1.00  0.00    -0.122 C  
BRANCH   8   9
HETATM    9  C   UNL     1      -9.710   7.051  68.942  1.00  0.00    -0.144 C  
BRANCH   9  10
HETATM   10  C   UNL     1     -10.439   8.359  69.088  1.00  0.00    -0.218 C  
HETATM   11  C   UNL     1     -10.878   9.133  68.084  1.00  0.00    -0.118 C  
BRANCH  11  12
HETATM   12  C   UNL     1     -10.657   8.879  66.618  1.00  0.00    -0.150 C  
BRANCH  12  13
HETATM   13  C   UNL     1      -9.477   9.672  66.041  1.00  0.00    -0.284 C  
HETATM   14  C   UNL     1      -8.281   8.832  65.578  1.00  0.00    -0.132 C  
HETATM   15  O   UNL     1      -8.696   7.622  64.954  1.00  0.00    -0.369 OA 
HETATM   16  C   UNL     1      -7.599   9.707  64.533  1.00  0.00    -0.127 C  
HETATM   17  C   UNL     1      -8.762  10.333  63.769  1.00  0.00    -0.205 C  
HETATM   18  H   UNL     1      -7.954   7.101  64.667  1.00  0.00     0.000 HD 
HETATM   19  O   UNL     1      -9.180   9.451  62.722  1.00  0.00    -0.468 OA 
HETATM   20  C   UNL     1      -9.907  10.501  64.797  1.00  0.00    -0.387 C  
HETATM   21  H   UNL     1      -9.905   9.840  62.247  1.00  0.00     0.000 HD 
BRANCH  20  22
HETATM   22  C   UNL     1     -10.249  11.916  65.227  1.00  0.00    -0.309 C  
HETATM   23  C   UNL     1     -11.465  12.374  65.577  1.00  0.00    -0.404 C  
BRANCH  23  24
HETATM   24  C   UNL     1     -11.833  13.794  65.952  1.00  0.00    -0.383 C  
HETATM   25  H   UNL     1     -13.256  15.066  65.509  1.00  0.00     0.000 HD 
HETATM   26  O   UNL     1     -13.026  14.175  65.274  1.00  0.00    -0.725 OA 
BRANCH  24  27
HETATM   27  C   UNL     1     -12.030  13.910  67.477  1.00  0.00    -0.386 C  
BRANCH  27  28
HETATM   28  O   UNL     1     -11.727  12.670  68.137  1.00  0.00    -0.315 OA 
BRANCH  28  29
HETATM   29  C   UNL     1     -12.132  12.615  69.447  1.00  0.00    -0.179 A  
HETATM   30  C   UNL     1     -12.266  11.433  70.179  1.00  0.00    -0.401 A  
HETATM   31  C   UNL     1     -12.673  11.473  71.515  1.00  0.00    -0.439 A  
HETATM   32  C   UNL     1     -12.939  12.696  72.127  1.00  0.00    -0.333 A  
HETATM   33  C   UNL     1     -12.796  13.893  71.415  1.00  0.00    -0.439 A  
HETATM   34  C   UNL     1     -13.085  15.218  72.077  1.00  0.00    -0.384 C  
HETATM   35  C   UNL     1     -12.378  13.842  70.073  1.00  0.00    -0.364 A  
HETATM   36  F   UNL     1     -13.523  15.096  73.363  1.00  0.00    -0.519 F  
HETATM   37  F   UNL     1     -14.048  15.928  71.426  1.00  0.00    -0.431 F  
HETATM   38  F   UNL     1     -11.993  16.028  72.134  1.00  0.00    -0.428 F  
ENDBRANCH  28  29
ENDBRANCH  27  28
ENDBRANCH  24  27
ENDBRANCH  23  24
ENDBRANCH  20  22
ENDBRANCH  12  13
ENDBRANCH  11  12
ENDBRANCH   9  10
ENDBRANCH   8   9
ENDBRANCH   7   8
ENDBRANCH   5   7
ENDBRANCH   4   5
ENDBRANCH   2   4
TORSDOF 13
ENDMDL
MODEL      192
REMARK 921   NORMALIZED FREE ENERGY PREDICTED BY IDOCK:   -5.20 KCAL/MOL
REMARK 922        TOTAL FREE ENERGY PREDICTED BY IDOCK:  -11.37 KCAL/MOL
REMARK 923 INTER-LIGAND FREE ENERGY PREDICTED BY IDOCK:   -8.46 KCAL/MOL
REMARK 924 INTRA-LIGAND FREE ENERGY PREDICTED BY IDOCK:   -2.90 KCAL/MOL
REMARK 927      BINDING AFFINITY PREDICTED BY RF-SCORE:    0.00 PKD
ROOT
HETATM    1  C   UNL     1      -7.435   8.628  70.032  1.00  0.00    -0.056 C  
HETATM    2  C   UNL     1      -8.070   7.342  70.548  1.00  0.00    -0.109 C  
HETATM    3  C   UNL     1      -7.349   6.121  69.986  1.00  0.00    -0.078 C  
ENDROOT
BRANCH   2   4
HETATM    4  O   UNL     1      -7.950   7.295  71.981  1.00  0.00    -0.090 OA 
BRANCH   4   5
HETATM    5  C   UNL     1      -8.892   8.010  72.659  1.00  0.00    -0.203 C  
HETATM    6  O   UNL     1      -8.654   8.918  73.445  1.00  0.00    -0.223 OA 
BRANCH   5   7
HETATM    7  C   UNL     1     -10.269   7.485  72.351  1.00  0.00    -0.261 C  
BRANCH   7   8
HETATM    8  C   UNL     1     -11.248   8.649  72.202  1.00  0.00    -0.438 C  
BRANCH   8   9
HETATM    9  C   UNL     1     -11.545   9.015  70.751  1.00  0.00    -0.313 C  
BRANCH   9  10
HETATM   10  C   UNL     1     -11.183  10.437  70.422  1.00  0.00    -0.399 C  
HETATM   11  C   UNL     1     -10.764  10.888  69.229  1.00  0.00    -0.271 C  
BRANCH  11  12
HETATM   12  C   UNL     1     -10.502  10.043  68.014  1.00  0.00    -0.260 C  
BRANCH  12  13
HETATM   13  C   UNL     1      -9.701  10.778  66.930  1.00  0.00    -0.209 C  
HETATM   14  C   UNL     1      -8.263  10.288  66.727  1.00  0.00    -0.124 C  
HETATM   15  O   UNL     1      -8.166   8.873  66.843  1.00  0.00    -0.110 OA 
HETATM   16  C   UNL     1      -7.941  10.680  65.289  1.00  0.00    -0.060 C  
HETATM   17  C   UNL     1      -9.234  10.386  64.535  1.00  0.00    -0.246 C  
HETATM   18  H   UNL     1      -7.274   8.570  66.717  1.00  0.00     0.000 HD 
HETATM   19  O   UNL     1      -9.255   9.012  64.132  1.00  0.00    -0.405 OA 
HETATM   20  C   UNL     1     -10.383  10.650  65.539  1.00  0.00    -0.297 C  
HETATM   21  H   UNL     1     -10.060   8.829  63.662  1.00  0.00     0.000 HD 
BRANCH  20  22
HETATM   22  C   UNL     1     -11.253  11.870  65.288  1.00  0.00    -0.351 C  
HETATM   23  C   UNL     1     -10.891  12.989  64.634  1.00  0.00    -0.373 C  
BRANCH  23  24
HETATM   24  C   UNL     1     -11.726  14.234  64.424  1.00  0.00    -0.389 C  
HETATM   25  H   UNL     1     -13.410  14.958  65.118  1.00  0.00     0.000 HD 
HETATM   26  O   UNL     1     -12.886  14.177  65.250  1.00  0.00    -0.670 OA 
BRANCH  24  27
HETATM   27  C   UNL     1     -10.902  15.494  64.755  1.00  0.00    -0.363 C  
BRANCH  27  28
HETATM   28  O   UNL     1     -11.378  16.127  65.954  1.00  0.00     0.085 OA 
BRANCH  28  29
HETATM   29  C   UNL     1     -10.889  15.579  67.113  1.00  0.00    -0.316 A  
HETATM   30  C   UNL     1      -9.550  15.234  67.315  1.00  0.00    -0.214 A  
HETATM   31  C   UNL     1      -9.138  14.692  68.535  1.00  0.00    -0.188 A  
HETATM   32  C   UNL     1     -10.061  14.499  69.561  1.00  0.00     0.071 A  
HETATM   33  C   UNL     1     -11.404  14.852  69.384  1.00  0.00    -0.312 A  
HETATM   34  C   UNL     1     -12.405  14.643  70.493  1.00  0.00    -0.337 C  
HETATM   35  C   UNL     1     -11.807  15.405  68.154  1.00  0.00    -0.178 A  
HETATM   36  F   UNL     1     -11.868  14.058  71.603  1.00  0.00    -0.326 F  
HETATM   37  F   UNL     1     -13.441  13.842  70.120  1.00  0.00     0.033 F  
HETATM   38  F   UNL     1     -12.964  15.806  70.924  1.00  0.00    -0.483 F  
ENDBRANCH  28  29
ENDBRANCH  27  28
ENDBRANCH  24  27
ENDBRANCH  23  24
ENDBRANCH  20  22
ENDBRANCH  12  13
ENDBRANCH  11  12
ENDBRANCH   9  10
ENDBRANCH   8   9
ENDBRANCH   7   8
ENDBRANCH   5   7
ENDBRANCH   4   5
ENDBRANCH   2   4
TORSDOF 13
ENDMDL
MODEL      193
REMARK 921   NORMALIZED FREE ENERGY PREDICTED BY IDOCK:   -5.19 KCAL/MOL
REMARK 922        TOTAL FREE ENERGY PREDICTED BY IDOCK:  -11.35 KCAL/MOL
REMARK 923 INTER-LIGAND FREE ENERGY PREDICTED BY IDOCK:   -9.08 KCAL/MOL
REMARK 924 INTRA-LIGAND FREE ENERGY PREDICTED BY IDOCK:   -2.28 KCAL/MOL
REMARK 927      BINDING AFFINITY PREDICTED BY RF-SCORE:    0.00 PKD
ROOT
HETATM    1  C   UNL     1      -6.717   7.910  69.417  1.00  0.00    -0.039 C  
HETATM    2  C   UNL     1      -6.780   6.838  70.500  1.00  0.00    -0.053 C  
HETATM    3  C   UNL     1      -5.791   5.715  70.205  1.00  0.00    -0.024 C  
ENDROOT
BRANCH   2   4
HETATM    4  O   UNL     1      -6.413   7.419  71.764  1.00  0.00    -0.043 OA 
BRANCH   4   5
HETATM    5  C   UNL     1      -7.460   7.860  72.518  1.00  0.00    -0.104 C  
HETATM    6  O   UNL     1      -7.497   8.931  73.109  1.00  0.00    -0.360 OA 
BRANCH   5   7
HETATM    7  C   UNL     1      -8.542   6.815  72.571  1.00  0.00    -0.127 C  
BRANCH   7   8
HETATM    8  C   UNL     1      -9.871   7.464  72.961  1.00  0.00    -0.279 C  
BRANCH   8   9
HETATM    9  C   UNL     1     -11.093   6.670  72.509  1.00  0.00    -0.296 C  
BRANCH   9  10
HETATM   10  C   UNL     1     -11.761   7.266  71.300  1.00  0.00    -0.328 C  
HETATM   11  C   UNL     1     -11.747   6.754  70.059  1.00  0.00    -0.330 C  
BRANCH  11  12
HETATM   12  C   UNL     1     -10.996   5.525  69.625  1.00  0.00    -0.155 C  
BRANCH  12  13
HETATM   13  C   UNL     1      -9.941   5.814  68.549  1.00  0.00    -0.197 C  
HETATM   14  C   UNL     1      -8.934   4.686  68.293  1.00  0.00    -0.114 C  
HETATM   15  O   UNL     1      -9.550   3.404  68.357  1.00  0.00    -0.166 OA 
HETATM   16  C   UNL     1      -8.465   4.928  66.863  1.00  0.00    -0.106 C  
HETATM   17  C   UNL     1      -9.738   5.345  66.131  1.00  0.00    -0.145 C  
HETATM   18  H   UNL     1      -8.926   2.706  68.198  1.00  0.00     0.000 HD 
HETATM   19  O   UNL     1     -10.437   4.181  65.679  1.00  0.00    -0.452 OA 
HETATM   20  C   UNL     1     -10.601   6.100  67.171  1.00  0.00    -0.374 C  
HETATM   21  H   UNL     1     -11.230   4.440  65.224  1.00  0.00     0.000 HD 
BRANCH  20  22
HETATM   22  C   UNL     1     -10.754   7.599  66.985  1.00  0.00    -0.340 C  
HETATM   23  C   UNL     1      -9.798   8.530  67.168  1.00  0.00    -0.269 C  
BRANCH  23  24
HETATM   24  C   UNL     1      -9.949  10.030  67.042  1.00  0.00    -0.205 C  
HETATM   25  H   UNL     1     -10.325  11.313  65.608  1.00  0.00     0.000 HD 
HETATM   26  O   UNL     1     -10.230  10.371  65.688  1.00  0.00    -0.267 OA 
BRANCH  24  27
HETATM   27  C   UNL     1     -11.081  10.534  67.961  1.00  0.00    -0.300 C  
BRANCH  27  28
HETATM   28  O   UNL     1     -11.940  11.456  67.269  1.00  0.00    -0.580 OA 
BRANCH  28  29
HETATM   29  C   UNL     1     -11.709  12.775  67.570  1.00  0.00    -0.364 A  
HETATM   30  C   UNL     1     -11.819  13.319  68.853  1.00  0.00    -0.367 A  
HETATM   31  C   UNL     1     -11.552  14.673  69.069  1.00  0.00    -0.328 A  
HETATM   32  C   UNL     1     -11.166  15.487  68.006  1.00  0.00    -0.332 A  
HETATM   33  C   UNL     1     -11.036  14.958  66.717  1.00  0.00    -0.335 A  
HETATM   34  C   UNL     1     -10.620  15.839  65.565  1.00  0.00    -0.406 C  
HETATM   35  C   UNL     1     -11.299  13.591  66.511  1.00  0.00    -0.340 A  
HETATM   36  F   UNL     1     -10.446  17.145  65.918  1.00  0.00    -0.334 F  
HETATM   37  F   UNL     1     -11.536  15.850  64.557  1.00  0.00    -0.433 F  
HETATM   38  F   UNL     1      -9.444  15.449  65.002  1.00  0.00    -0.185 F  
ENDBRANCH  28  29
ENDBRANCH  27  28
ENDBRANCH  24  27
ENDBRANCH  23  24
ENDBRANCH  20  22
ENDBRANCH  12  13
ENDBRANCH  11  12
ENDBRANCH   9  10
ENDBRANCH   8   9
ENDBRANCH   7   8
ENDBRANCH   5   7
ENDBRANCH   4   5
ENDBRANCH   2   4
TORSDOF 13
ENDMDL
MODEL      194
REMARK 921   NORMALIZED FREE ENERGY PREDICTED BY IDOCK:   -5.17 KCAL/MOL
REMARK 922        TOTAL FREE ENERGY PREDICTED BY IDOCK:  -11.31 KCAL/MOL
REMARK 923 INTER-LIGAND FREE ENERGY PREDICTED BY IDOCK:   -9.82 KCAL/MOL
REMARK 924 INTRA-LIGAND FREE ENERGY PREDICTED BY IDOCK:   -1.49 KCAL/MOL
REMARK 927      BINDING AFFINITY PREDICTED BY RF-SCORE:    0.00 PKD
ROOT
HETATM    1  C   UNL     1      -9.726   6.459  74.449  1.00  0.00    -0.310 C  
HETATM    2  C   UNL     1     -10.115   6.208  72.996  1.00  0.00    -0.183 C  
HETATM    3  C   UNL     1     -10.577   4.767  72.802  1.00  0.00    -0.272 C  
ENDROOT
BRANCH   2   4
HETATM    4  O   UNL     1     -11.213   7.067  72.642  1.00  0.00    -0.266 OA 
BRANCH   4   5
HETATM    5  C   UNL     1     -11.262   7.426  71.328  1.00  0.00    -0.252 C  
HETATM    6  O   UNL     1     -11.447   6.656  70.396  1.00  0.00    -0.335 OA 
BRANCH   5   7
HETATM    7  C   UNL     1     -10.994   8.901  71.179  1.00  0.00    -0.356 C  
BRANCH   7   8
HETATM    8  C   UNL     1     -11.159   9.313  69.717  1.00  0.00    -0.168 C  
BRANCH   8   9
HETATM    9  C   UNL     1     -10.075  10.269  69.227  1.00  0.00    -0.244 C  
BRANCH   9  10
HETATM   10  C   UNL     1      -8.858   9.554  68.708  1.00  0.00    -0.132 C  
HETATM   11  C   UNL     1      -8.622   9.228  67.427  1.00  0.00    -0.122 C  
BRANCH  11  12
HETATM   12  C   UNL     1      -9.565   9.447  66.277  1.00  0.00    -0.297 C  
BRANCH  12  13
HETATM   13  C   UNL     1      -9.282  10.744  65.506  1.00  0.00    -0.230 C  
HETATM   14  C   UNL     1      -8.635  10.564  64.128  1.00  0.00    -0.150 C  
HETATM   15  O   UNL     1      -9.158   9.430  63.443  1.00  0.00    -0.405 OA 
HETATM   16  C   UNL     1      -9.038  11.820  63.365  1.00  0.00     0.172 C  
HETATM   17  C   UNL     1     -10.485  12.053  63.789  1.00  0.00    -0.429 C  
HETATM   18  H   UNL     1      -8.756   9.319  62.589  1.00  0.00     0.000 HD 
HETATM   19  O   UNL     1     -11.361  11.291  62.951  1.00  0.00    -0.826 OA 
HETATM   20  C   UNL     1     -10.589  11.545  65.248  1.00  0.00    -0.339 C  
HETATM   21  H   UNL     1     -12.263  11.435  63.216  1.00  0.00     0.000 HD 
BRANCH  20  22
HETATM   22  C   UNL     1     -10.763  12.593  66.333  1.00  0.00    -0.278 C  
HETATM   23  C   UNL     1     -11.800  13.439  66.469  1.00  0.00    -0.443 C  
BRANCH  23  24
HETATM   24  C   UNL     1     -11.962  14.525  67.511  1.00  0.00    -0.325 C  
HETATM   25  H   UNL     1     -11.960  14.640  69.468  1.00  0.00     0.000 HD 
HETATM   26  O   UNL     1     -11.859  13.958  68.814  1.00  0.00    -0.323 OA 
BRANCH  24  27
HETATM   27  C   UNL     1     -10.887  15.614  67.321  1.00  0.00    -0.298 C  
BRANCH  27  28
HETATM   28  O   UNL     1     -10.485  16.174  68.582  1.00  0.00    -0.244 OA 
BRANCH  28  29
HETATM   29  C   UNL     1      -9.366  16.966  68.516  1.00  0.00    -0.259 A  
HETATM   30  C   UNL     1      -8.163  16.682  69.168  1.00  0.00    -0.126 A  
HETATM   31  C   UNL     1      -7.069  17.540  69.033  1.00  0.00    -0.234 A  
HETATM   32  C   UNL     1      -7.169  18.680  68.239  1.00  0.00    -0.279 A  
HETATM   33  C   UNL     1      -8.361  18.974  67.565  1.00  0.00    -0.303 A  
HETATM   34  C   UNL     1      -8.471  20.210  66.706  1.00  0.00    -0.302 C  
HETATM   35  C   UNL     1      -9.454  18.100  67.701  1.00  0.00    -0.264 A  
HETATM   36  F   UNL     1      -7.342  20.976  66.714  1.00  0.00    -0.325 F  
HETATM   37  F   UNL     1      -9.479  21.035  67.104  1.00  0.00    -0.532 F  
HETATM   38  F   UNL     1      -8.713  19.922  65.399  1.00  0.00    -0.143 F  
ENDBRANCH  28  29
ENDBRANCH  27  28
ENDBRANCH  24  27
ENDBRANCH  23  24
ENDBRANCH  20  22
ENDBRANCH  12  13
ENDBRANCH  11  12
ENDBRANCH   9  10
ENDBRANCH   8   9
ENDBRANCH   7   8
ENDBRANCH   5   7
ENDBRANCH   4   5
ENDBRANCH   2   4
TORSDOF 13
ENDMDL
MODEL      195
REMARK 921   NORMALIZED FREE ENERGY PREDICTED BY IDOCK:   -5.11 KCAL/MOL
REMARK 922        TOTAL FREE ENERGY PREDICTED BY IDOCK:  -11.22 KCAL/MOL
REMARK 923 INTER-LIGAND FREE ENERGY PREDICTED BY IDOCK:   -9.14 KCAL/MOL
REMARK 924 INTRA-LIGAND FREE ENERGY PREDICTED BY IDOCK:   -2.08 KCAL/MOL
REMARK 927      BINDING AFFINITY PREDICTED BY RF-SCORE:    0.00 PKD
ROOT
HETATM    1  C   UNL     1      -6.580   7.423  70.105  1.00  0.00    -0.043 C  
HETATM    2  C   UNL     1      -7.152   6.415  71.095  1.00  0.00    -0.077 C  
HETATM    3  C   UNL     1      -6.273   5.170  71.167  1.00  0.00    -0.023 C  
ENDROOT
BRANCH   2   4
HETATM    4  O   UNL     1      -7.182   7.002  72.408  1.00  0.00    -0.072 OA 
BRANCH   4   5
HETATM    5  C   UNL     1      -8.402   7.465  72.803  1.00  0.00    -0.113 C  
HETATM    6  O   UNL     1      -8.652   8.627  73.092  1.00  0.00    -0.393 OA 
BRANCH   5   7
HETATM    7  C   UNL     1      -9.386   6.329  72.892  1.00  0.00    -0.140 C  
BRANCH   7   8
HETATM    8  C   UNL     1     -10.776   6.872  73.226  1.00  0.00    -0.349 C  
BRANCH   8   9
HETATM    9  C   UNL     1     -11.894   6.232  72.408  1.00  0.00    -0.272 C  
BRANCH   9  10
HETATM   10  C   UNL     1     -12.215   7.003  71.157  1.00  0.00    -0.427 C  
HETATM   11  C   UNL     1     -11.780   6.715  69.920  1.00  0.00    -0.333 C  
BRANCH  11  12
HETATM   12  C   UNL     1     -10.825   5.611  69.560  1.00  0.00    -0.345 C  
BRANCH  12  13
HETATM   13  C   UNL     1      -9.756   6.046  68.549  1.00  0.00    -0.142 C  
HETATM   14  C   UNL     1      -8.771   4.952  68.118  1.00  0.00    -0.102 C  
HETATM   15  O   UNL     1      -9.414   3.691  67.973  1.00  0.00    -0.178 OA 
HETATM   16  C   UNL     1      -8.287   5.411  66.748  1.00  0.00    -0.108 C  
HETATM   17  C   UNL     1      -9.545   5.967  66.087  1.00  0.00    -0.055 C  
HETATM   18  H   UNL     1      -8.803   3.013  67.706  1.00  0.00     0.000 HD 
HETATM   19  O   UNL     1     -10.265   4.906  65.452  1.00  0.00    -0.387 OA 
HETATM   20  C   UNL     1     -10.400   6.564  67.232  1.00  0.00    -0.283 C  
HETATM   21  H   UNL     1     -11.049   5.253  65.041  1.00  0.00     0.000 HD 
BRANCH  20  22
HETATM   22  C   UNL     1     -10.520   8.077  67.289  1.00  0.00    -0.384 C  
HETATM   23  C   UNL     1      -9.714   8.918  67.962  1.00  0.00    -0.181 C  
BRANCH  23  24
HETATM   24  C   UNL     1      -9.853  10.421  68.075  1.00  0.00    -0.150 C  
HETATM   25  H   UNL     1      -9.583  11.973  66.908  1.00  0.00     0.000 HD 
HETATM   26  O   UNL     1      -9.496  11.029  66.837  1.00  0.00    -0.174 OA 
BRANCH  24  27
HETATM   27  C   UNL     1     -11.299  10.798  68.453  1.00  0.00    -0.302 C  
BRANCH  27  28
HETATM   28  O   UNL     1     -11.848  11.750  67.526  1.00  0.00    -0.577 OA 
BRANCH  28  29
HETATM   29  C   UNL     1     -11.741  13.057  67.931  1.00  0.00    -0.357 A  
HETATM   30  C   UNL     1     -11.258  14.092  67.127  1.00  0.00    -0.330 A  
HETATM   31  C   UNL     1     -11.197  15.398  67.620  1.00  0.00    -0.311 A  
HETATM   32  C   UNL     1     -11.625  15.676  68.916  1.00  0.00    -0.392 A  
HETATM   33  C   UNL     1     -12.126  14.655  69.733  1.00  0.00    -0.371 A  
HETATM   34  C   UNL     1     -12.589  14.955  71.137  1.00  0.00    -0.335 C  
HETATM   35  C   UNL     1     -12.191  13.345  69.224  1.00  0.00    -0.222 A  
HETATM   36  F   UNL     1     -12.420  16.260  71.496  1.00  0.00    -0.475 F  
HETATM   37  F   UNL     1     -11.922  14.226  72.075  1.00  0.00    -0.333 F  
HETATM   38  F   UNL     1     -13.910  14.689  71.324  1.00  0.00    -0.406 F  
ENDBRANCH  28  29
ENDBRANCH  27  28
ENDBRANCH  24  27
ENDBRANCH  23  24
ENDBRANCH  20  22
ENDBRANCH  12  13
ENDBRANCH  11  12
ENDBRANCH   9  10
ENDBRANCH   8   9
ENDBRANCH   7   8
ENDBRANCH   5   7
ENDBRANCH   4   5
ENDBRANCH   2   4
TORSDOF 13
ENDMDL
MODEL      196
REMARK 921   NORMALIZED FREE ENERGY PREDICTED BY IDOCK:   -5.11 KCAL/MOL
REMARK 922        TOTAL FREE ENERGY PREDICTED BY IDOCK:  -11.22 KCAL/MOL
REMARK 923 INTER-LIGAND FREE ENERGY PREDICTED BY IDOCK:   -8.87 KCAL/MOL
REMARK 924 INTRA-LIGAND FREE ENERGY PREDICTED BY IDOCK:   -2.35 KCAL/MOL
REMARK 927      BINDING AFFINITY PREDICTED BY RF-SCORE:    0.00 PKD
ROOT
HETATM    1  C   UNL     1      -9.469  10.148  65.085  1.00  0.00    -0.319 C  
HETATM    2  C   UNL     1      -9.810  11.256  64.095  1.00  0.00    -0.279 C  
HETATM    3  C   UNL     1      -9.195  10.968  62.729  1.00  0.00    -0.374 C  
ENDROOT
BRANCH   2   4
HETATM    4  O   UNL     1     -11.237  11.318  63.924  1.00  0.00    -0.356 OA 
BRANCH   4   5
HETATM    5  C   UNL     1     -11.777  12.564  64.046  1.00  0.00    -0.423 C  
HETATM    6  O   UNL     1     -12.908  12.876  63.698  1.00  0.00    -0.692 OA 
BRANCH   5   7
HETATM    7  C   UNL     1     -10.762  13.519  64.616  1.00  0.00    -0.429 C  
BRANCH   7   8
HETATM    8  C   UNL     1     -11.471  14.740  65.202  1.00  0.00    -0.371 C  
BRANCH   8   9
HETATM    9  C   UNL     1     -10.806  16.064  64.838  1.00  0.00    -0.391 C  
BRANCH   9  10
HETATM   10  C   UNL     1     -10.731  17.018  65.999  1.00  0.00    -0.116 C  
HETATM   11  C   UNL     1      -9.631  17.662  66.419  1.00  0.00    -0.285 C  
BRANCH  11  12
HETATM   12  C   UNL     1      -8.246  17.493  65.857  1.00  0.00    -0.023 C  
BRANCH  12  13
HETATM   13  C   UNL     1      -7.367  16.555  66.694  1.00  0.00    -0.268 C  
HETATM   14  C   UNL     1      -5.890  16.954  66.802  1.00  0.00    -0.154 C  
HETATM   15  O   UNL     1      -5.733  18.364  66.916  1.00  0.00    -0.143 OA 
HETATM   16  C   UNL     1      -5.427  16.307  68.102  1.00  0.00    -0.107 C  
HETATM   17  C   UNL     1      -6.608  16.507  69.046  1.00  0.00    -0.193 C  
HETATM   18  H   UNL     1      -4.817  18.612  66.982  1.00  0.00     0.000 HD 
HETATM   19  O   UNL     1      -6.510  17.788  69.677  1.00  0.00    -0.227 OA 
HETATM   20  C   UNL     1      -7.877  16.459  68.160  1.00  0.00    -0.158 C  
HETATM   21  H   UNL     1      -7.246  17.913  70.265  1.00  0.00     0.000 HD 
BRANCH  20  22
HETATM   22  C   UNL     1      -8.776  15.243  68.304  1.00  0.00    -0.165 C  
HETATM   23  C   UNL     1      -9.943  15.186  68.972  1.00  0.00    -0.239 C  
BRANCH  23  24
HETATM   24  C   UNL     1     -10.821  13.970  69.173  1.00  0.00    -0.206 C  
HETATM   25  H   UNL     1     -12.695  13.492  68.852  1.00  0.00     0.000 HD 
HETATM   26  O   UNL     1     -12.143  14.256  68.726  1.00  0.00    -0.324 OA 
BRANCH  24  27
HETATM   27  C   UNL     1     -10.250  12.764  68.400  1.00  0.00    -0.236 C  
BRANCH  27  28
HETATM   28  O   UNL     1     -10.882  11.539  68.808  1.00  0.00    -0.196 OA 
BRANCH  28  29
HETATM   29  C   UNL     1     -10.082  10.430  68.703  1.00  0.00    -0.176 A  
HETATM   30  C   UNL     1      -8.691  10.448  68.840  1.00  0.00    -0.157 A  
HETATM   31  C   UNL     1      -7.956   9.266  68.730  1.00  0.00    -0.099 A  
HETATM   32  C   UNL     1      -8.608   8.058  68.491  1.00  0.00    -0.128 A  
HETATM   33  C   UNL     1     -10.002   8.016  68.366  1.00  0.00    -0.204 A  
HETATM   34  C   UNL     1     -10.709   6.708  68.106  1.00  0.00    -0.258 C  
HETATM   35  C   UNL     1     -10.733   9.211  68.487  1.00  0.00    -0.160 A  
HETATM   36  F   UNL     1      -9.858   5.650  67.971  1.00  0.00    -0.118 F  
HETATM   37  F   UNL     1     -11.450   6.733  66.964  1.00  0.00    -0.464 F  
HETATM   38  F   UNL     1     -11.567   6.366  69.105  1.00  0.00    -0.425 F  
ENDBRANCH  28  29
ENDBRANCH  27  28
ENDBRANCH  24  27
ENDBRANCH  23  24
ENDBRANCH  20  22
ENDBRANCH  12  13
ENDBRANCH  11  12
ENDBRANCH   9  10
ENDBRANCH   8   9
ENDBRANCH   7   8
ENDBRANCH   5   7
ENDBRANCH   4   5
ENDBRANCH   2   4
TORSDOF 13
ENDMDL
MODEL      197
REMARK 921   NORMALIZED FREE ENERGY PREDICTED BY IDOCK:   -5.11 KCAL/MOL
REMARK 922        TOTAL FREE ENERGY PREDICTED BY IDOCK:  -11.21 KCAL/MOL
REMARK 923 INTER-LIGAND FREE ENERGY PREDICTED BY IDOCK:   -8.21 KCAL/MOL
REMARK 924 INTRA-LIGAND FREE ENERGY PREDICTED BY IDOCK:   -3.00 KCAL/MOL
REMARK 927      BINDING AFFINITY PREDICTED BY RF-SCORE:    0.00 PKD
ROOT
HETATM    1  C   UNL     1     -12.008  12.761  63.533  1.00  0.00    -0.633 C  
HETATM    2  C   UNL     1     -11.638  13.701  64.675  1.00  0.00    -0.371 C  
HETATM    3  C   UNL     1     -12.225  15.089  64.445  1.00  0.00    -0.353 C  
ENDROOT
BRANCH   2   4
HETATM    4  O   UNL     1     -12.189  13.195  65.904  1.00  0.00    -0.425 OA 
BRANCH   4   5
HETATM    5  C   UNL     1     -11.300  13.087  66.931  1.00  0.00    -0.311 C  
HETATM    6  O   UNL     1     -10.364  13.848  67.132  1.00  0.00    -0.262 OA 
BRANCH   5   7
HETATM    7  C   UNL     1     -11.596  11.859  67.752  1.00  0.00    -0.393 C  
BRANCH   7   8
HETATM    8  C   UNL     1     -10.825  10.663  67.193  1.00  0.00    -0.328 C  
BRANCH   8   9
HETATM    9  C   UNL     1     -10.769   9.474  68.148  1.00  0.00    -0.247 C  
BRANCH   9  10
HETATM   10  C   UNL     1     -10.283   8.215  67.483  1.00  0.00    -0.309 C  
HETATM   11  C   UNL     1     -10.586   6.961  67.853  1.00  0.00    -0.286 C  
BRANCH  11  12
HETATM   12  C   UNL     1     -11.408   6.574  69.051  1.00  0.00    -0.296 C  
BRANCH  12  13
HETATM   13  C   UNL     1     -10.883   7.175  70.361  1.00  0.00    -0.269 C  
HETATM   14  C   UNL     1     -11.919   7.929  71.204  1.00  0.00    -0.285 C  
HETATM   15  O   UNL     1     -13.189   7.286  71.177  1.00  0.00    -0.540 OA 
HETATM   16  C   UNL     1     -11.366   7.851  72.622  1.00  0.00    -0.468 C  
HETATM   17  C   UNL     1     -10.810   6.434  72.718  1.00  0.00    -0.248 C  
HETATM   18  H   UNL     1     -13.830   7.753  71.699  1.00  0.00     0.000 HD 
HETATM   19  O   UNL     1     -11.854   5.532  73.101  1.00  0.00    -0.536 OA 
HETATM   20  C   UNL     1     -10.308   6.075  71.298  1.00  0.00    -0.266 C  
HETATM   21  H   UNL     1     -11.508   4.649  73.160  1.00  0.00     0.000 HD 
BRANCH  20  22
HETATM   22  C   UNL     1      -8.805   5.977  71.101  1.00  0.00    -0.139 C  
HETATM   23  C   UNL     1      -7.924   6.994  71.148  1.00  0.00    -0.104 C  
BRANCH  23  24
HETATM   24  C   UNL     1      -6.433   6.921  70.898  1.00  0.00    -0.048 C  
HETATM   25  H   UNL     1      -5.099   5.515  70.608  1.00  0.00     0.000 HD 
HETATM   26  O   UNL     1      -6.036   5.560  70.765  1.00  0.00    -0.023 OA 
BRANCH  24  27
HETATM   27  C   UNL     1      -6.065   7.708  69.624  1.00  0.00    -0.030 C  
BRANCH  27  28
HETATM   28  O   UNL     1      -5.963   9.116  69.894  1.00  0.00    -0.034 OA 
BRANCH  28  29
HETATM   29  C   UNL     1      -6.506   9.917  68.921  1.00  0.00    -0.045 A  
HETATM   30  C   UNL     1      -6.918  11.236  69.128  1.00  0.00    -0.114 A  
HETATM   31  C   UNL     1      -7.449  11.983  68.074  1.00  0.00    -0.113 A  
HETATM   32  C   UNL     1      -7.565  11.417  66.807  1.00  0.00    -0.143 A  
HETATM   33  C   UNL     1      -7.144  10.102  66.575  1.00  0.00    -0.103 A  
HETATM   34  C   UNL     1      -7.270   9.487  65.202  1.00  0.00    -0.108 C  
HETATM   35  C   UNL     1      -6.603   9.361  67.641  1.00  0.00    -0.063 A  
HETATM   36  F   UNL     1      -7.854  10.316  64.290  1.00  0.00    -0.150 F  
HETATM   37  F   UNL     1      -8.023   8.353  65.204  1.00  0.00    -0.105 F  
HETATM   38  F   UNL     1      -6.067   9.140  64.669  1.00  0.00    -0.066 F  
ENDBRANCH  28  29
ENDBRANCH  27  28
ENDBRANCH  24  27
ENDBRANCH  23  24
ENDBRANCH  20  22
ENDBRANCH  12  13
ENDBRANCH  11  12
ENDBRANCH   9  10
ENDBRANCH   8   9
ENDBRANCH   7   8
ENDBRANCH   5   7
ENDBRANCH   4   5
ENDBRANCH   2   4
TORSDOF 13
ENDMDL
MODEL      198
REMARK 921   NORMALIZED FREE ENERGY PREDICTED BY IDOCK:   -5.10 KCAL/MOL
REMARK 922        TOTAL FREE ENERGY PREDICTED BY IDOCK:  -11.20 KCAL/MOL
REMARK 923 INTER-LIGAND FREE ENERGY PREDICTED BY IDOCK:   -8.95 KCAL/MOL
REMARK 924 INTRA-LIGAND FREE ENERGY PREDICTED BY IDOCK:   -2.26 KCAL/MOL
REMARK 927      BINDING AFFINITY PREDICTED BY RF-SCORE:    0.00 PKD
ROOT
HETATM    1  C   UNL     1     -10.698   6.395  67.385  1.00  0.00    -0.411 C  
HETATM    2  C   UNL     1      -9.686   5.273  67.591  1.00  0.00    -0.142 C  
HETATM    3  C   UNL     1      -9.768   4.255  66.459  1.00  0.00    -0.236 C  
ENDROOT
BRANCH   2   4
HETATM    4  O   UNL     1      -8.357   5.826  67.582  1.00  0.00    -0.105 OA 
BRANCH   4   5
HETATM    5  C   UNL     1      -7.829   6.073  68.815  1.00  0.00    -0.100 C  
HETATM    6  O   UNL     1      -7.000   6.938  69.062  1.00  0.00    -0.076 OA 
BRANCH   5   7
HETATM    7  C   UNL     1      -8.369   5.091  69.820  1.00  0.00    -0.088 C  
BRANCH   7   8
HETATM    8  C   UNL     1      -7.294   4.769  70.859  1.00  0.00    -0.063 C  
BRANCH   8   9
HETATM    9  C   UNL     1      -7.540   5.425  72.214  1.00  0.00    -0.100 C  
BRANCH   9  10
HETATM   10  C   UNL     1      -6.762   6.700  72.394  1.00  0.00    -0.063 C  
HETATM   11  C   UNL     1      -7.266   7.882  72.784  1.00  0.00    -0.109 C  
BRANCH  11  12
HETATM   12  C   UNL     1      -8.718   8.176  73.041  1.00  0.00    -0.309 C  
BRANCH  12  13
HETATM   13  C   UNL     1      -9.607   7.932  71.815  1.00  0.00    -0.214 C  
HETATM   14  C   UNL     1     -10.944   7.236  72.097  1.00  0.00    -0.239 C  
HETATM   15  O   UNL     1     -11.525   7.683  73.317  1.00  0.00    -0.617 OA 
HETATM   16  C   UNL     1     -11.839   7.676  70.944  1.00  0.00    -0.272 C  
HETATM   17  C   UNL     1     -11.476   9.145  70.744  1.00  0.00    -0.282 C  
HETATM   18  H   UNL     1     -12.353   7.252  73.492  1.00  0.00     0.000 HD 
HETATM   19  O   UNL     1     -12.255   9.958  71.628  1.00  0.00    -0.382 OA 
HETATM   20  C   UNL     1      -9.977   9.268  71.110  1.00  0.00    -0.356 C  
HETATM   21  H   UNL     1     -12.029  10.872  71.504  1.00  0.00     0.000 HD 
BRANCH  20  22
HETATM   22  C   UNL     1      -9.006   9.524  69.971  1.00  0.00    -0.249 C  
HETATM   23  C   UNL     1      -9.312   9.604  68.662  1.00  0.00    -0.143 C  
BRANCH  23  24
HETATM   24  C   UNL     1      -8.350   9.803  67.511  1.00  0.00    -0.114 C  
HETATM   25  H   UNL     1      -7.765   8.779  65.945  1.00  0.00     0.000 HD 
HETATM   26  O   UNL     1      -8.369   8.655  66.668  1.00  0.00    -0.105 OA 
BRANCH  24  27
HETATM   27  C   UNL     1      -8.732  11.059  66.703  1.00  0.00    -0.160 C  
BRANCH  27  28
HETATM   28  O   UNL     1      -8.794  12.221  67.548  1.00  0.00    -0.166 OA 
BRANCH  28  29
HETATM   29  C   UNL     1      -9.204  13.362  66.906  1.00  0.00    -0.248 A  
HETATM   30  C   UNL     1      -8.543  14.590  66.987  1.00  0.00    -0.241 A  
HETATM   31  C   UNL     1      -9.026  15.699  66.288  1.00  0.00    -0.377 A  
HETATM   32  C   UNL     1     -10.168  15.582  65.498  1.00  0.00    -0.415 A  
HETATM   33  C   UNL     1     -10.836  14.357  65.391  1.00  0.00    -0.351 A  
HETATM   34  C   UNL     1     -12.073  14.230  64.536  1.00  0.00    -0.480 C  
HETATM   35  C   UNL     1     -10.336  13.245  66.093  1.00  0.00    -0.290 A  
HETATM   36  F   UNL     1     -12.455  15.406  63.958  1.00  0.00    -0.474 F  
HETATM   37  F   UNL     1     -13.155  13.800  65.243  1.00  0.00    -0.478 F  
HETATM   38  F   UNL     1     -11.917  13.349  63.512  1.00  0.00    -0.495 F  
ENDBRANCH  28  29
ENDBRANCH  27  28
ENDBRANCH  24  27
ENDBRANCH  23  24
ENDBRANCH  20  22
ENDBRANCH  12  13
ENDBRANCH  11  12
ENDBRANCH   9  10
ENDBRANCH   8   9
ENDBRANCH   7   8
ENDBRANCH   5   7
ENDBRANCH   4   5
ENDBRANCH   2   4
TORSDOF 13
ENDMDL
MODEL      199
REMARK 921   NORMALIZED FREE ENERGY PREDICTED BY IDOCK:   -5.10 KCAL/MOL
REMARK 922        TOTAL FREE ENERGY PREDICTED BY IDOCK:  -11.19 KCAL/MOL
REMARK 923 INTER-LIGAND FREE ENERGY PREDICTED BY IDOCK:   -8.71 KCAL/MOL
REMARK 924 INTRA-LIGAND FREE ENERGY PREDICTED BY IDOCK:   -2.48 KCAL/MOL
REMARK 927      BINDING AFFINITY PREDICTED BY RF-SCORE:    0.00 PKD
ROOT
HETATM    1  C   UNL     1      -9.370   3.558  71.896  1.00  0.00    -0.191 C  
HETATM    2  C   UNL     1     -10.407   4.261  72.765  1.00  0.00    -0.178 C  
HETATM    3  C   UNL     1     -11.117   3.263  73.674  1.00  0.00    -0.316 C  
ENDROOT
BRANCH   2   4
HETATM    4  O   UNL     1      -9.747   5.222  73.609  1.00  0.00    -0.139 OA 
BRANCH   4   5
HETATM    5  C   UNL     1      -9.497   6.426  73.021  1.00  0.00    -0.141 C  
HETATM    6  O   UNL     1      -8.432   6.752  72.514  1.00  0.00    -0.119 OA 
BRANCH   5   7
HETATM    7  C   UNL     1     -10.700   7.323  73.136  1.00  0.00    -0.411 C  
BRANCH   7   8
HETATM    8  C   UNL     1     -11.622   7.112  71.935  1.00  0.00    -0.314 C  
BRANCH   8   9
HETATM    9  C   UNL     1     -10.983   7.488  70.601  1.00  0.00    -0.263 C  
BRANCH   9  10
HETATM   10  C   UNL     1     -11.184   6.438  69.542  1.00  0.00    -0.477 C  
HETATM   11  C   UNL     1     -10.212   5.793  68.878  1.00  0.00    -0.267 C  
BRANCH  11  12
HETATM   12  C   UNL     1      -8.737   6.052  69.010  1.00  0.00    -0.122 C  
BRANCH  12  13
HETATM   13  C   UNL     1      -8.063   6.394  67.675  1.00  0.00    -0.114 C  
HETATM   14  C   UNL     1      -7.183   5.290  67.078  1.00  0.00    -0.078 C  
HETATM   15  O   UNL     1      -7.748   3.999  67.277  1.00  0.00    -0.082 OA 
HETATM   16  C   UNL     1      -7.177   5.592  65.583  1.00  0.00    -0.068 C  
HETATM   17  C   UNL     1      -8.613   6.018  65.294  1.00  0.00    -0.099 C  
HETATM   18  H   UNL     1      -7.202   3.315  66.907  1.00  0.00     0.000 HD 
HETATM   19  O   UNL     1      -9.416   4.862  65.034  1.00  0.00    -0.282 OA 
HETATM   20  C   UNL     1      -9.116   6.723  66.578  1.00  0.00    -0.171 C  
HETATM   21  H   UNL     1     -10.310   5.128  64.854  1.00  0.00     0.000 HD 
BRANCH  20  22
HETATM   22  C   UNL     1      -9.320   8.226  66.507  1.00  0.00    -0.263 C  
HETATM   23  C   UNL     1      -8.444   9.171  66.894  1.00  0.00    -0.124 C  
BRANCH  23  24
HETATM   24  C   UNL     1      -8.654  10.670  66.883  1.00  0.00    -0.126 C  
HETATM   25  H   UNL     1      -8.598  12.111  65.555  1.00  0.00     0.000 HD 
HETATM   26  O   UNL     1      -8.467  11.170  65.562  1.00  0.00    -0.124 OA 
BRANCH  24  27
HETATM   27  C   UNL     1     -10.071  11.016  67.384  1.00  0.00    -0.186 C  
BRANCH  27  28
HETATM   28  O   UNL     1     -10.253  12.438  67.484  1.00  0.00    -0.206 OA 
BRANCH  28  29
HETATM   29  C   UNL     1     -10.961  12.839  68.589  1.00  0.00    -0.260 A  
HETATM   30  C   UNL     1     -11.190  14.173  68.934  1.00  0.00    -0.294 A  
HETATM   31  C   UNL     1     -11.935  14.489  70.074  1.00  0.00    -0.388 A  
HETATM   32  C   UNL     1     -12.459  13.472  70.868  1.00  0.00    -0.448 A  
HETATM   33  C   UNL     1     -12.254  12.129  70.532  1.00  0.00    -0.392 A  
HETATM   34  C   UNL     1     -12.821  11.027  71.392  1.00  0.00    -0.443 C  
HETATM   35  C   UNL     1     -11.510  11.822  69.377  1.00  0.00    -0.371 A  
HETATM   36  F   UNL     1     -13.477  11.486  72.497  1.00  0.00    -0.494 F  
HETATM   37  F   UNL     1     -11.861  10.182  71.860  1.00  0.00    -0.415 F  
HETATM   38  F   UNL     1     -13.717  10.248  70.727  1.00  0.00    -0.341 F  
ENDBRANCH  28  29
ENDBRANCH  27  28
ENDBRANCH  24  27
ENDBRANCH  23  24
ENDBRANCH  20  22
ENDBRANCH  12  13
ENDBRANCH  11  12
ENDBRANCH   9  10
ENDBRANCH   8   9
ENDBRANCH   7   8
ENDBRANCH   5   7
ENDBRANCH   4   5
ENDBRANCH   2   4
TORSDOF 13
ENDMDL
MODEL      200
REMARK 921   NORMALIZED FREE ENERGY PREDICTED BY IDOCK:   -5.10 KCAL/MOL
REMARK 922        TOTAL FREE ENERGY PREDICTED BY IDOCK:  -11.19 KCAL/MOL
REMARK 923 INTER-LIGAND FREE ENERGY PREDICTED BY IDOCK:  -10.03 KCAL/MOL
REMARK 924 INTRA-LIGAND FREE ENERGY PREDICTED BY IDOCK:   -1.16 KCAL/MOL
REMARK 927      BINDING AFFINITY PREDICTED BY RF-SCORE:    0.00 PKD
ROOT
HETATM    1  C   UNL     1      -7.966   5.110  65.943  1.00  0.00    -0.108 C  
HETATM    2  C   UNL     1      -9.148   4.149  65.894  1.00  0.00    -0.136 C  
HETATM    3  C   UNL     1      -8.765   2.791  66.476  1.00  0.00    -0.125 C  
ENDROOT
BRANCH   2   4
HETATM    4  O   UNL     1     -10.223   4.675  66.694  1.00  0.00    -0.237 OA 
BRANCH   4   5
HETATM    5  C   UNL     1      -9.870   5.044  67.958  1.00  0.00    -0.149 C  
HETATM    6  O   UNL     1      -9.264   4.337  68.752  1.00  0.00    -0.119 OA 
BRANCH   5   7
HETATM    7  C   UNL     1     -10.383   6.427  68.261  1.00  0.00    -0.228 C  
BRANCH   7   8
HETATM    8  C   UNL     1     -10.897   7.082  66.979  1.00  0.00    -0.413 C  
BRANCH   8   9
HETATM    9  C   UNL     1     -10.063   8.279  66.531  1.00  0.00    -0.303 C  
BRANCH   9  10
HETATM   10  C   UNL     1     -10.448   9.553  67.233  1.00  0.00    -0.328 C  
HETATM   11  C   UNL     1     -10.598  10.756  66.656  1.00  0.00    -0.291 C  
BRANCH  11  12
HETATM   12  C   UNL     1     -10.335  11.076  65.211  1.00  0.00    -0.338 C  
BRANCH  12  13
HETATM   13  C   UNL     1     -10.444  12.574  64.896  1.00  0.00    -0.328 C  
HETATM   14  C   UNL     1     -11.649  12.983  64.041  1.00  0.00    -0.430 C  
HETATM   15  O   UNL     1     -12.816  12.242  64.385  1.00  0.00    -0.624 OA 
HETATM   16  C   UNL     1     -11.879  14.445  64.402  1.00  0.00    -0.433 C  
HETATM   17  C   UNL     1     -11.636  14.489  65.908  1.00  0.00    -0.349 C  
HETATM   18  H   UNL     1     -13.562  12.496  63.854  1.00  0.00     0.000 HD 
HETATM   19  O   UNL     1     -12.843  14.153  66.601  1.00  0.00    -0.454 OA 
HETATM   20  C   UNL     1     -10.555  13.419  66.197  1.00  0.00    -0.294 C  
HETATM   21  H   UNL     1     -12.691  14.179  67.538  1.00  0.00     0.000 HD 
BRANCH  20  22
HETATM   22  C   UNL     1      -9.177  13.917  66.595  1.00  0.00    -0.253 C  
HETATM   23  C   UNL     1      -8.527  13.643  67.741  1.00  0.00    -0.183 C  
BRANCH  23  24
HETATM   24  C   UNL     1      -7.180  14.177  68.177  1.00  0.00    -0.128 C  
HETATM   25  H   UNL     1      -5.336  14.115  67.514  1.00  0.00     0.000 HD 
HETATM   26  O   UNL     1      -6.182  13.780  67.241  1.00  0.00    -0.311 OA 
BRANCH  24  27
HETATM   27  C   UNL     1      -7.222  15.714  68.286  1.00  0.00    -0.116 C  
BRANCH  27  28
HETATM   28  O   UNL     1      -6.352  16.328  67.321  1.00  0.00    -0.160 OA 
BRANCH  28  29
HETATM   29  C   UNL     1      -6.764  17.567  66.898  1.00  0.00    -0.185 A  
HETATM   30  C   UNL     1      -5.901  18.580  66.475  1.00  0.00    -0.180 A  
HETATM   31  C   UNL     1      -6.411  19.809  66.047  1.00  0.00    -0.221 A  
HETATM   32  C   UNL     1      -7.787  20.026  66.034  1.00  0.00    -0.307 A  
HETATM   33  C   UNL     1      -8.670  19.018  66.439  1.00  0.00    -0.322 A  
HETATM   34  C   UNL     1     -10.160  19.253  66.426  1.00  0.00    -0.429 C  
HETATM   35  C   UNL     1      -8.146  17.782  66.860  1.00  0.00    -0.251 A  
HETATM   36  F   UNL     1     -10.506  20.514  66.036  1.00  0.00    -0.413 F  
HETATM   37  F   UNL     1     -10.729  19.078  67.651  1.00  0.00    -0.443 F  
HETATM   38  F   UNL     1     -10.818  18.412  65.582  1.00  0.00    -0.437 F  
ENDBRANCH  28  29
ENDBRANCH  27  28
ENDBRANCH  24  27
ENDBRANCH  23  24
ENDBRANCH  20  22
ENDBRANCH  12  13
ENDBRANCH  11  12
ENDBRANCH   9  10
ENDBRANCH   8   9
ENDBRANCH   7   8
ENDBRANCH   5   7
ENDBRANCH   4   5
ENDBRANCH   2   4
TORSDOF 13
ENDMDL
MODEL      201
REMARK 921   NORMALIZED FREE ENERGY PREDICTED BY IDOCK:   -5.09 KCAL/MOL
REMARK 922        TOTAL FREE ENERGY PREDICTED BY IDOCK:  -11.19 KCAL/MOL
REMARK 923 INTER-LIGAND FREE ENERGY PREDICTED BY IDOCK:   -9.72 KCAL/MOL
REMARK 924 INTRA-LIGAND FREE ENERGY PREDICTED BY IDOCK:   -1.47 KCAL/MOL
REMARK 927      BINDING AFFINITY PREDICTED BY RF-SCORE:    0.00 PKD
ROOT
HETATM    1  C   UNL     1      -8.614  19.667  66.542  1.00  0.00    -0.387 C  
HETATM    2  C   UNL     1      -7.643  18.500  66.390  1.00  0.00    -0.260 C  
HETATM    3  C   UNL     1      -6.863  18.275  67.681  1.00  0.00    -0.203 C  
ENDROOT
BRANCH   2   4
HETATM    4  O   UNL     1      -8.385  17.298  66.117  1.00  0.00    -0.419 OA 
BRANCH   4   5
HETATM    5  C   UNL     1      -9.568  17.189  66.785  1.00  0.00    -0.270 C  
HETATM    6  O   UNL     1     -10.615  17.727  66.451  1.00  0.00    -0.314 OA 
BRANCH   5   7
HETATM    7  C   UNL     1      -9.391  16.359  68.028  1.00  0.00    -0.216 C  
BRANCH   7   8
HETATM    8  C   UNL     1      -8.590  15.098  67.701  1.00  0.00    -0.180 C  
BRANCH   8   9
HETATM    9  C   UNL     1      -9.170  13.829  68.319  1.00  0.00    -0.204 C  
BRANCH   9  10
HETATM   10  C   UNL     1     -10.580  14.013  68.811  1.00  0.00    -0.260 C  
HETATM   11  C   UNL     1     -11.673  14.140  68.041  1.00  0.00    -0.394 C  
BRANCH  11  12
HETATM   12  C   UNL     1     -11.686  14.202  66.539  1.00  0.00    -0.414 C  
BRANCH  12  13
HETATM   13  C   UNL     1     -11.826  12.823  65.881  1.00  0.00    -0.490 C  
HETATM   14  C   UNL     1     -12.839  12.738  64.733  1.00  0.00    -0.293 C  
HETATM   15  O   UNL     1     -12.820  13.911  63.926  1.00  0.00    -0.512 OA 
HETATM   16  C   UNL     1     -12.348  11.564  63.894  1.00  0.00    -0.048 C  
HETATM   17  C   UNL     1     -10.830  11.720  63.906  1.00  0.00    -0.404 C  
HETATM   18  H   UNL     1     -13.447  13.858  63.214  1.00  0.00     0.000 HD 
HETATM   19  O   UNL     1     -10.429  12.607  62.856  1.00  0.00    -0.394 OA 
HETATM   20  C   UNL     1     -10.475  12.344  65.278  1.00  0.00    -0.316 C  
HETATM   21  H   UNL     1      -9.484  12.704  62.863  1.00  0.00     0.000 HD 
BRANCH  20  22
HETATM   22  C   UNL     1      -9.762  11.452  66.279  1.00  0.00    -0.239 C  
HETATM   23  C   UNL     1      -8.713  10.648  66.027  1.00  0.00    -0.186 C  
BRANCH  23  24
HETATM   24  C   UNL     1      -8.027   9.712  66.999  1.00  0.00    -0.109 C  
HETATM   25  H   UNL     1      -6.890   9.883  68.587  1.00  0.00     0.000 HD 
HETATM   26  O   UNL     1      -7.320  10.470  67.977  1.00  0.00    -0.087 OA 
BRANCH  24  27
HETATM   27  C   UNL     1      -9.062   8.798  67.685  1.00  0.00    -0.134 C  
BRANCH  27  28
HETATM   28  O   UNL     1      -8.703   8.540  69.052  1.00  0.00    -0.132 OA 
BRANCH  28  29
HETATM   29  C   UNL     1      -9.764   8.537  69.922  1.00  0.00    -0.179 A  
HETATM   30  C   UNL     1     -10.041   7.503  70.820  1.00  0.00    -0.192 A  
HETATM   31  C   UNL     1     -11.139   7.591  71.680  1.00  0.00    -0.270 A  
HETATM   32  C   UNL     1     -11.959   8.716  71.652  1.00  0.00    -0.388 A  
HETATM   33  C   UNL     1     -11.690   9.769  70.770  1.00  0.00    -0.407 A  
HETATM   34  C   UNL     1     -12.579  10.988  70.737  1.00  0.00    -0.369 C  
HETATM   35  C   UNL     1     -10.578   9.674  69.914  1.00  0.00    -0.281 A  
HETATM   36  F   UNL     1     -13.639  10.908  71.594  1.00  0.00    -0.357 F  
HETATM   37  F   UNL     1     -13.118  11.210  69.506  1.00  0.00    -0.015 F  
HETATM   38  F   UNL     1     -11.920  12.130  71.072  1.00  0.00    -0.391 F  
ENDBRANCH  28  29
ENDBRANCH  27  28
ENDBRANCH  24  27
ENDBRANCH  23  24
ENDBRANCH  20  22
ENDBRANCH  12  13
ENDBRANCH  11  12
ENDBRANCH   9  10
ENDBRANCH   8   9
ENDBRANCH   7   8
ENDBRANCH   5   7
ENDBRANCH   4   5
ENDBRANCH   2   4
TORSDOF 13
ENDMDL
MODEL      202
REMARK 921   NORMALIZED FREE ENERGY PREDICTED BY IDOCK:   -5.09 KCAL/MOL
REMARK 922        TOTAL FREE ENERGY PREDICTED BY IDOCK:  -11.19 KCAL/MOL
REMARK 923 INTER-LIGAND FREE ENERGY PREDICTED BY IDOCK:  -10.31 KCAL/MOL
REMARK 924 INTRA-LIGAND FREE ENERGY PREDICTED BY IDOCK:   -0.87 KCAL/MOL
REMARK 927      BINDING AFFINITY PREDICTED BY RF-SCORE:    0.00 PKD
ROOT
HETATM    1  C   UNL     1     -12.666  15.808  73.850  1.00  0.00    -0.737 C  
HETATM    2  C   UNL     1     -12.684  16.039  72.343  1.00  0.00    -0.419 C  
HETATM    3  C   UNL     1     -11.331  15.698  71.728  1.00  0.00    -0.436 C  
ENDROOT
BRANCH   2   4
HETATM    4  O   UNL     1     -13.665  15.175  71.742  1.00  0.00    -0.394 OA 
BRANCH   4   5
HETATM    5  C   UNL     1     -13.168  14.014  71.228  1.00  0.00    -0.303 C  
HETATM    6  O   UNL     1     -12.620  13.906  70.140  1.00  0.00    -0.314 OA 
BRANCH   5   7
HETATM    7  C   UNL     1     -13.445  12.868  72.165  1.00  0.00    -0.619 C  
BRANCH   7   8
HETATM    8  C   UNL     1     -12.761  11.601  71.651  1.00  0.00    -0.375 C  
BRANCH   8   9
HETATM    9  C   UNL     1     -13.316  10.318  72.263  1.00  0.00    -0.296 C  
BRANCH   9  10
HETATM   10  C   UNL     1     -13.217   9.139  71.333  1.00  0.00    -0.359 C  
HETATM   11  C   UNL     1     -12.517   8.016  71.558  1.00  0.00    -0.334 C  
BRANCH  11  12
HETATM   12  C   UNL     1     -11.636   7.753  72.747  1.00  0.00    -0.368 C  
BRANCH  12  13
HETATM   13  C   UNL     1     -10.140   7.781  72.406  1.00  0.00    -0.284 C  
HETATM   14  C   UNL     1      -9.188   7.643  73.600  1.00  0.00    -0.283 C  
HETATM   15  O   UNL     1      -9.680   6.716  74.562  1.00  0.00    -0.270 OA 
HETATM   16  C   UNL     1      -7.911   7.078  72.990  1.00  0.00    -0.112 C  
HETATM   17  C   UNL     1      -8.416   6.065  71.966  1.00  0.00    -0.121 C  
HETATM   18  H   UNL     1      -9.089   6.630  75.302  1.00  0.00     0.000 HD 
HETATM   19  O   UNL     1      -8.640   4.805  72.606  1.00  0.00    -0.114 OA 
HETATM   20  C   UNL     1      -9.759   6.626  71.437  1.00  0.00    -0.181 C  
HETATM   21  H   UNL     1      -8.955   4.174  71.969  1.00  0.00     0.000 HD 
BRANCH  20  22
HETATM   22  C   UNL     1      -9.779   7.138  70.008  1.00  0.00    -0.171 C  
HETATM   23  C   UNL     1      -9.453   8.377  69.597  1.00  0.00    -0.166 C  
BRANCH  23  24
HETATM   24  C   UNL     1      -9.522   8.919  68.186  1.00  0.00    -0.143 C  
HETATM   25  H   UNL     1     -10.119   8.272  66.434  1.00  0.00     0.000 HD 
HETATM   26  O   UNL     1     -10.076   7.932  67.321  1.00  0.00    -0.188 OA 
BRANCH  24  27
HETATM   27  C   UNL     1     -10.378  10.200  68.145  1.00  0.00    -0.185 C  
BRANCH  27  28
HETATM   28  O   UNL     1     -10.729  10.548  66.795  1.00  0.00    -0.240 OA 
BRANCH  28  29
HETATM   29  C   UNL     1     -10.498  11.862  66.474  1.00  0.00    -0.221 A  
HETATM   30  C   UNL     1      -9.375  12.586  66.884  1.00  0.00    -0.219 A  
HETATM   31  C   UNL     1      -9.216  13.919  66.498  1.00  0.00    -0.220 A  
HETATM   32  C   UNL     1     -10.174  14.532  65.694  1.00  0.00    -0.379 A  
HETATM   33  C   UNL     1     -11.298  13.821  65.260  1.00  0.00    -0.310 A  
HETATM   34  C   UNL     1     -12.337  14.484  64.391  1.00  0.00    -0.413 C  
HETATM   35  C   UNL     1     -11.445  12.476  65.648  1.00  0.00    -0.400 A  
HETATM   36  F   UNL     1     -12.074  15.799  64.141  1.00  0.00    -0.464 F  
HETATM   37  F   UNL     1     -13.580  14.458  64.947  1.00  0.00     0.203 F  
HETATM   38  F   UNL     1     -12.458  13.894  63.171  1.00  0.00    -0.476 F  
ENDBRANCH  28  29
ENDBRANCH  27  28
ENDBRANCH  24  27
ENDBRANCH  23  24
ENDBRANCH  20  22
ENDBRANCH  12  13
ENDBRANCH  11  12
ENDBRANCH   9  10
ENDBRANCH   8   9
ENDBRANCH   7   8
ENDBRANCH   5   7
ENDBRANCH   4   5
ENDBRANCH   2   4
TORSDOF 13
ENDMDL
MODEL      203
REMARK 921   NORMALIZED FREE ENERGY PREDICTED BY IDOCK:   -5.09 KCAL/MOL
REMARK 922        TOTAL FREE ENERGY PREDICTED BY IDOCK:  -11.17 KCAL/MOL
REMARK 923 INTER-LIGAND FREE ENERGY PREDICTED BY IDOCK:   -8.69 KCAL/MOL
REMARK 924 INTRA-LIGAND FREE ENERGY PREDICTED BY IDOCK:   -2.48 KCAL/MOL
REMARK 927      BINDING AFFINITY PREDICTED BY RF-SCORE:    0.00 PKD
ROOT
HETATM    1  C   UNL     1     -12.831  13.682  65.370  1.00  0.00    -0.440 C  
HETATM    2  C   UNL     1     -11.507  13.953  64.662  1.00  0.00    -0.377 C  
HETATM    3  C   UNL     1     -11.072  15.400  64.867  1.00  0.00    -0.435 C  
ENDROOT
BRANCH   2   4
HETATM    4  O   UNL     1     -10.486  13.109  65.225  1.00  0.00    -0.291 OA 
BRANCH   4   5
HETATM    5  C   UNL     1     -10.136  12.040  64.455  1.00  0.00    -0.265 C  
HETATM    6  O   UNL     1     -10.543  11.829  63.321  1.00  0.00    -0.390 OA 
BRANCH   5   7
HETATM    7  C   UNL     1      -9.221  11.122  65.221  1.00  0.00    -0.218 C  
BRANCH   7   8
HETATM    8  C   UNL     1      -9.867   9.743  65.360  1.00  0.00    -0.365 C  
BRANCH   8   9
HETATM    9  C   UNL     1      -8.892   8.589  65.143  1.00  0.00    -0.116 C  
BRANCH   9  10
HETATM   10  C   UNL     1      -7.560   8.821  65.802  1.00  0.00    -0.086 C  
HETATM   11  C   UNL     1      -7.223   8.455  67.049  1.00  0.00    -0.080 C  
BRANCH  11  12
HETATM   12  C   UNL     1      -8.139   7.812  68.053  1.00  0.00    -0.123 C  
BRANCH  12  13
HETATM   13  C   UNL     1      -9.280   8.733  68.503  1.00  0.00    -0.141 C  
HETATM   14  C   UNL     1     -10.487   8.029  69.135  1.00  0.00    -0.208 C  
HETATM   15  O   UNL     1     -10.089   6.938  69.958  1.00  0.00    -0.179 OA 
HETATM   16  C   UNL     1     -11.116   9.100  70.019  1.00  0.00    -0.208 C  
HETATM   17  C   UNL     1      -9.916   9.814  70.633  1.00  0.00    -0.146 C  
HETATM   18  H   UNL     1     -10.837   6.502  70.349  1.00  0.00     0.000 HD 
HETATM   19  O   UNL     1      -9.494   9.121  71.812  1.00  0.00    -0.312 OA 
HETATM   20  C   UNL     1      -8.794   9.757  69.567  1.00  0.00    -0.202 C  
HETATM   21  H   UNL     1      -8.746   9.565  72.195  1.00  0.00     0.000 HD 
BRANCH  20  22
HETATM   22  C   UNL     1      -8.424  11.061  68.883  1.00  0.00    -0.124 C  
HETATM   23  C   UNL     1      -7.193  11.599  68.798  1.00  0.00    -0.116 C  
BRANCH  23  24
HETATM   24  C   UNL     1      -6.817  12.923  68.169  1.00  0.00    -0.097 C  
HETATM   25  H   UNL     1      -5.718  13.529  66.663  1.00  0.00     0.000 HD 
HETATM   26  O   UNL     1      -5.955  12.698  67.058  1.00  0.00    -0.301 OA 
BRANCH  24  27
HETATM   27  C   UNL     1      -8.082  13.679  67.714  1.00  0.00    -0.173 C  
BRANCH  27  28
HETATM   28  O   UNL     1      -7.768  15.023  67.314  1.00  0.00    -0.186 OA 
BRANCH  28  29
HETATM   29  C   UNL     1      -8.661  15.965  67.759  1.00  0.00    -0.159 A  
HETATM   30  C   UNL     1      -9.662  15.716  68.701  1.00  0.00    -0.204 A  
HETATM   31  C   UNL     1     -10.520  16.742  69.106  1.00  0.00    -0.343 A  
HETATM   32  C   UNL     1     -10.375  18.023  68.578  1.00  0.00    -0.359 A  
HETATM   33  C   UNL     1      -9.368  18.297  67.644  1.00  0.00    -0.271 A  
HETATM   34  C   UNL     1      -9.211  19.683  67.070  1.00  0.00    -0.341 C  
HETATM   35  C   UNL     1      -8.505  17.259  67.249  1.00  0.00    -0.212 A  
HETATM   36  F   UNL     1     -10.151  20.564  67.518  1.00  0.00    -0.547 F  
HETATM   37  F   UNL     1      -9.308  19.701  65.712  1.00  0.00    -0.361 F  
HETATM   38  F   UNL     1      -8.008  20.244  67.369  1.00  0.00    -0.317 F  
ENDBRANCH  28  29
ENDBRANCH  27  28
ENDBRANCH  24  27
ENDBRANCH  23  24
ENDBRANCH  20  22
ENDBRANCH  12  13
ENDBRANCH  11  12
ENDBRANCH   9  10
ENDBRANCH   8   9
ENDBRANCH   7   8
ENDBRANCH   5   7
ENDBRANCH   4   5
ENDBRANCH   2   4
TORSDOF 13
ENDMDL
MODEL      204
REMARK 921   NORMALIZED FREE ENERGY PREDICTED BY IDOCK:   -5.08 KCAL/MOL
REMARK 922        TOTAL FREE ENERGY PREDICTED BY IDOCK:  -11.17 KCAL/MOL
REMARK 923 INTER-LIGAND FREE ENERGY PREDICTED BY IDOCK:   -9.21 KCAL/MOL
REMARK 924 INTRA-LIGAND FREE ENERGY PREDICTED BY IDOCK:   -1.96 KCAL/MOL
REMARK 927      BINDING AFFINITY PREDICTED BY RF-SCORE:    0.00 PKD
ROOT
HETATM    1  C   UNL     1     -11.696  14.048  64.658  1.00  0.00    -0.417 C  
HETATM    2  C   UNL     1     -11.765  12.526  64.597  1.00  0.00    -0.359 C  
HETATM    3  C   UNL     1     -12.728  12.073  63.504  1.00  0.00    -0.567 C  
ENDROOT
BRANCH   2   4
HETATM    4  O   UNL     1     -10.464  12.004  64.272  1.00  0.00    -0.283 OA 
BRANCH   4   5
HETATM    5  C   UNL     1      -9.600  11.922  65.323  1.00  0.00    -0.138 C  
HETATM    6  O   UNL     1      -9.404  12.810  66.142  1.00  0.00    -0.210 OA 
BRANCH   5   7
HETATM    7  C   UNL     1      -8.875  10.603  65.302  1.00  0.00    -0.204 C  
BRANCH   7   8
HETATM    8  C   UNL     1      -9.768   9.510  65.891  1.00  0.00    -0.352 C  
BRANCH   8   9
HETATM    9  C   UNL     1     -10.450   9.916  67.194  1.00  0.00    -0.305 C  
BRANCH   9  10
HETATM   10  C   UNL     1      -9.570   9.720  68.398  1.00  0.00    -0.157 C  
HETATM   11  C   UNL     1      -9.574   8.652  69.211  1.00  0.00    -0.166 C  
BRANCH  11  12
HETATM   12  C   UNL     1     -10.513   7.481  69.118  1.00  0.00    -0.220 C  
BRANCH  12  13
HETATM   13  C   UNL     1     -11.408   7.328  70.355  1.00  0.00    -0.299 C  
HETATM   14  C   UNL     1     -11.264   6.004  71.115  1.00  0.00    -0.261 C  
HETATM   15  O   UNL     1      -9.909   5.568  71.161  1.00  0.00    -0.168 OA 
HETATM   16  C   UNL     1     -11.712   6.342  72.532  1.00  0.00    -0.222 C  
HETATM   17  C   UNL     1     -11.123   7.728  72.778  1.00  0.00    -0.398 C  
HETATM   18  H   UNL     1      -9.820   4.747  71.632  1.00  0.00     0.000 HD 
HETATM   19  O   UNL     1      -9.781   7.604  73.258  1.00  0.00    -0.238 OA 
HETATM   20  C   UNL     1     -11.120   8.441  71.403  1.00  0.00    -0.312 C  
HETATM   21  H   UNL     1      -9.414   8.467  73.410  1.00  0.00     0.000 HD 
BRANCH  20  22
HETATM   22  C   UNL     1     -12.104   9.581  71.213  1.00  0.00    -0.443 C  
HETATM   23  C   UNL     1     -11.798  10.874  70.999  1.00  0.00    -0.294 C  
BRANCH  23  24
HETATM   24  C   UNL     1     -12.765  12.031  70.864  1.00  0.00    -0.199 C  
HETATM   25  H   UNL     1     -14.131  12.889  71.977  1.00  0.00     0.000 HD 
HETATM   26  O   UNL     1     -13.524  12.163  72.062  1.00  0.00    -0.456 OA 
BRANCH  24  27
HETATM   27  C   UNL     1     -12.000  13.338  70.575  1.00  0.00    -0.240 C  
BRANCH  27  28
HETATM   28  O   UNL     1     -11.323  13.275  69.309  1.00  0.00    -0.262 OA 
BRANCH  28  29
HETATM   29  C   UNL     1     -10.838  14.481  68.869  1.00  0.00    -0.253 A  
HETATM   30  C   UNL     1     -11.637  15.520  68.385  1.00  0.00    -0.368 A  
HETATM   31  C   UNL     1     -11.056  16.721  67.970  1.00  0.00    -0.220 A  
HETATM   32  C   UNL     1      -9.675  16.891  68.044  1.00  0.00    -0.256 A  
HETATM   33  C   UNL     1      -8.859  15.868  68.540  1.00  0.00    -0.195 A  
HETATM   34  C   UNL     1      -7.363  16.051  68.621  1.00  0.00    -0.159 C  
HETATM   35  C   UNL     1      -9.455  14.666  68.964  1.00  0.00    -0.127 A  
HETATM   36  F   UNL     1      -6.938  17.251  68.131  1.00  0.00    -0.163 F  
HETATM   37  F   UNL     1      -6.682  15.105  67.917  1.00  0.00    -0.101 F  
HETATM   38  F   UNL     1      -6.892  15.984  69.895  1.00  0.00    -0.200 F  
ENDBRANCH  28  29
ENDBRANCH  27  28
ENDBRANCH  24  27
ENDBRANCH  23  24
ENDBRANCH  20  22
ENDBRANCH  12  13
ENDBRANCH  11  12
ENDBRANCH   9  10
ENDBRANCH   8   9
ENDBRANCH   7   8
ENDBRANCH   5   7
ENDBRANCH   4   5
ENDBRANCH   2   4
TORSDOF 13
ENDMDL
MODEL      205
REMARK 921   NORMALIZED FREE ENERGY PREDICTED BY IDOCK:   -5.08 KCAL/MOL
REMARK 922        TOTAL FREE ENERGY PREDICTED BY IDOCK:  -11.16 KCAL/MOL
REMARK 923 INTER-LIGAND FREE ENERGY PREDICTED BY IDOCK:   -9.81 KCAL/MOL
REMARK 924 INTRA-LIGAND FREE ENERGY PREDICTED BY IDOCK:   -1.36 KCAL/MOL
REMARK 927      BINDING AFFINITY PREDICTED BY RF-SCORE:    0.00 PKD
ROOT
HETATM    1  C   UNL     1     -10.568   5.806  71.363  1.00  0.00    -0.313 C  
HETATM    2  C   UNL     1     -10.015   4.888  70.279  1.00  0.00    -0.251 C  
HETATM    3  C   UNL     1     -10.398   5.396  68.893  1.00  0.00    -0.260 C  
ENDROOT
BRANCH   2   4
HETATM    4  O   UNL     1      -8.578   4.876  70.354  1.00  0.00    -0.096 OA 
BRANCH   4   5
HETATM    5  C   UNL     1      -8.011   6.067  70.699  1.00  0.00    -0.111 C  
HETATM    6  O   UNL     1      -7.983   6.528  71.832  1.00  0.00    -0.102 OA 
BRANCH   5   7
HETATM    7  C   UNL     1      -7.475   6.764  69.477  1.00  0.00    -0.093 C  
BRANCH   7   8
HETATM    8  C   UNL     1      -7.815   8.253  69.538  1.00  0.00    -0.103 C  
BRANCH   8   9
HETATM    9  C   UNL     1      -9.297   8.549  69.328  1.00  0.00    -0.154 C  
BRANCH   9  10
HETATM   10  C   UNL     1      -9.843   9.532  70.328  1.00  0.00    -0.313 C  
HETATM   11  C   UNL     1     -10.810  10.434  70.100  1.00  0.00    -0.333 C  
BRANCH  11  12
HETATM   12  C   UNL     1     -11.480  10.687  68.778  1.00  0.00    -0.330 C  
BRANCH  12  13
HETATM   13  C   UNL     1     -10.827  11.824  67.980  1.00  0.00    -0.256 C  
HETATM   14  C   UNL     1      -9.929  11.384  66.818  1.00  0.00    -0.208 C  
HETATM   15  O   UNL     1     -10.464  10.255  66.136  1.00  0.00    -0.210 OA 
HETATM   16  C   UNL     1      -9.944  12.577  65.869  1.00  0.00    -0.269 C  
HETATM   17  C   UNL     1     -11.392  13.056  65.913  1.00  0.00    -0.313 C  
HETATM   18  H   UNL     1      -9.906   9.983  65.416  1.00  0.00     0.000 HD 
HETATM   19  O   UNL     1     -12.172  12.321  64.965  1.00  0.00    -0.407 OA 
HETATM   20  C   UNL     1     -11.897  12.757  67.346  1.00  0.00    -0.404 C  
HETATM   21  H   UNL     1     -13.074  12.620  64.993  1.00  0.00     0.000 HD 
BRANCH  20  22
HETATM   22  C   UNL     1     -12.135  13.948  68.258  1.00  0.00    -0.322 C  
HETATM   23  C   UNL     1     -11.984  13.974  69.595  1.00  0.00    -0.393 C  
BRANCH  23  24
HETATM   24  C   UNL     1     -12.270  15.134  70.524  1.00  0.00    -0.341 C  
HETATM   25  H   UNL     1     -12.288  15.445  72.459  1.00  0.00     0.000 HD 
HETATM   26  O   UNL     1     -12.108  14.716  71.876  1.00  0.00    -0.345 OA 
BRANCH  24  27
HETATM   27  C   UNL     1     -11.324  16.312  70.216  1.00  0.00    -0.287 C  
BRANCH  27  28
HETATM   28  O   UNL     1     -10.014  15.846  69.853  1.00  0.00    -0.261 OA 
BRANCH  28  29
HETATM   29  C   UNL     1      -9.539  16.364  68.674  1.00  0.00    -0.240 A  
HETATM   30  C   UNL     1      -8.771  15.647  67.754  1.00  0.00    -0.173 A  
HETATM   31  C   UNL     1      -8.341  16.252  66.571  1.00  0.00    -0.343 A  
HETATM   32  C   UNL     1      -8.684  17.574  66.298  1.00  0.00    -0.226 A  
HETATM   33  C   UNL     1      -9.466  18.306  67.200  1.00  0.00    -0.268 A  
HETATM   34  C   UNL     1      -9.837  19.739  66.907  1.00  0.00    -0.400 C  
HETATM   35  C   UNL     1      -9.901  17.684  68.385  1.00  0.00    -0.334 A  
HETATM   36  F   UNL     1      -9.302  20.209  65.743  1.00  0.00    -0.410 F  
HETATM   37  F   UNL     1      -9.417  20.597  67.878  1.00  0.00    -0.424 F  
HETATM   38  F   UNL     1     -11.181  19.922  66.797  1.00  0.00    -0.511 F  
ENDBRANCH  28  29
ENDBRANCH  27  28
ENDBRANCH  24  27
ENDBRANCH  23  24
ENDBRANCH  20  22
ENDBRANCH  12  13
ENDBRANCH  11  12
ENDBRANCH   9  10
ENDBRANCH   8   9
ENDBRANCH   7   8
ENDBRANCH   5   7
ENDBRANCH   4   5
ENDBRANCH   2   4
TORSDOF 13
ENDMDL
MODEL      206
REMARK 921   NORMALIZED FREE ENERGY PREDICTED BY IDOCK:   -5.08 KCAL/MOL
REMARK 922        TOTAL FREE ENERGY PREDICTED BY IDOCK:  -11.16 KCAL/MOL
REMARK 923 INTER-LIGAND FREE ENERGY PREDICTED BY IDOCK:   -8.97 KCAL/MOL
REMARK 924 INTRA-LIGAND FREE ENERGY PREDICTED BY IDOCK:   -2.19 KCAL/MOL
REMARK 927      BINDING AFFINITY PREDICTED BY RF-SCORE:    0.00 PKD
ROOT
HETATM    1  C   UNL     1      -7.730   9.135  70.929  1.00  0.00    -0.152 C  
HETATM    2  C   UNL     1      -8.495   8.614  69.717  1.00  0.00    -0.129 C  
HETATM    3  C   UNL     1      -7.534   8.200  68.608  1.00  0.00    -0.098 C  
ENDROOT
BRANCH   2   4
HETATM    4  O   UNL     1      -9.247   7.447  70.097  1.00  0.00    -0.151 OA 
BRANCH   4   5
HETATM    5  C   UNL     1     -10.548   7.445  69.690  1.00  0.00    -0.236 C  
HETATM    6  O   UNL     1     -10.920   7.486  68.525  1.00  0.00    -0.052 OA 
BRANCH   5   7
HETATM    7  C   UNL     1     -11.468   7.447  70.883  1.00  0.00    -0.311 C  
BRANCH   7   8
HETATM    8  C   UNL     1     -11.317   8.759  71.653  1.00  0.00    -0.390 C  
BRANCH   8   9
HETATM    9  C   UNL     1     -12.150   9.902  71.081  1.00  0.00    -0.466 C  
BRANCH   9  10
HETATM   10  C   UNL     1     -11.308  11.034  70.559  1.00  0.00    -0.116 C  
HETATM   11  C   UNL     1     -11.738  12.277  70.290  1.00  0.00    -0.223 C  
BRANCH  11  12
HETATM   12  C   UNL     1     -13.161  12.754  70.384  1.00  0.00     0.504 C  
BRANCH  12  13
HETATM   13  C   UNL     1     -13.278  14.207  70.861  1.00  0.00    -0.288 C  
HETATM   14  C   UNL     1     -14.050  14.413  72.170  1.00  0.00    -0.535 C  
HETATM   15  O   UNL     1     -13.781  13.377  73.109  1.00  0.00    -0.424 OA 
HETATM   16  C   UNL     1     -13.499  15.722  72.721  1.00  0.00    -0.659 C  
HETATM   17  C   UNL     1     -12.006  15.642  72.421  1.00  0.00    -0.469 C  
HETATM   18  H   UNL     1     -14.260  13.504  73.920  1.00  0.00     0.000 HD 
HETATM   19  O   UNL     1     -11.339  14.944  73.478  1.00  0.00     0.103 OA 
HETATM   20  C   UNL     1     -11.877  14.838  71.104  1.00  0.00    -0.387 C  
HETATM   21  H   UNL     1     -10.408  14.894  73.290  1.00  0.00     0.000 HD 
BRANCH  20  22
HETATM   22  C   UNL     1     -11.446  15.603  69.866  1.00  0.00    -0.344 C  
HETATM   23  C   UNL     1     -11.331  15.109  68.619  1.00  0.00    -0.322 C  
BRANCH  23  24
HETATM   24  C   UNL     1     -10.849  15.843  67.387  1.00  0.00    -0.291 C  
HETATM   25  H   UNL     1      -9.725  17.402  67.000  1.00  0.00     0.000 HD 
HETATM   26  O   UNL     1     -10.028  16.941  67.774  1.00  0.00    -0.263 OA 
BRANCH  24  27
HETATM   27  C   UNL     1     -10.059  14.888  66.469  1.00  0.00    -0.271 C  
BRANCH  27  28
HETATM   28  O   UNL     1     -10.941  14.012  65.748  1.00  0.00    -0.289 OA 
BRANCH  28  29
HETATM   29  C   UNL     1     -10.657  12.678  65.900  1.00  0.00    -0.273 A  
HETATM   30  C   UNL     1     -10.988  11.927  67.031  1.00  0.00    -0.326 A  
HETATM   31  C   UNL     1     -10.671  10.568  67.093  1.00  0.00    -0.323 A  
HETATM   32  C   UNL     1     -10.028   9.952  66.021  1.00  0.00    -0.338 A  
HETATM   33  C   UNL     1      -9.701  10.683  64.873  1.00  0.00    -0.341 A  
HETATM   34  C   UNL     1      -9.003  10.017  63.713  1.00  0.00    -0.247 C  
HETATM   35  C   UNL     1     -10.033  12.049  64.817  1.00  0.00    -0.241 A  
HETATM   36  F   UNL     1      -8.711   8.704  63.939  1.00  0.00    -0.166 F  
HETATM   37  F   UNL     1      -7.817  10.610  63.405  1.00  0.00    -0.147 F  
HETATM   38  F   UNL     1      -9.743  10.039  62.571  1.00  0.00    -0.307 F  
ENDBRANCH  28  29
ENDBRANCH  27  28
ENDBRANCH  24  27
ENDBRANCH  23  24
ENDBRANCH  20  22
ENDBRANCH  12  13
ENDBRANCH  11  12
ENDBRANCH   9  10
ENDBRANCH   8   9
ENDBRANCH   7   8
ENDBRANCH   5   7
ENDBRANCH   4   5
ENDBRANCH   2   4
TORSDOF 13
ENDMDL
MODEL      207
REMARK 921   NORMALIZED FREE ENERGY PREDICTED BY IDOCK:   -5.08 KCAL/MOL
REMARK 922        TOTAL FREE ENERGY PREDICTED BY IDOCK:  -11.16 KCAL/MOL
REMARK 923 INTER-LIGAND FREE ENERGY PREDICTED BY IDOCK:   -8.14 KCAL/MOL
REMARK 924 INTRA-LIGAND FREE ENERGY PREDICTED BY IDOCK:   -3.02 KCAL/MOL
REMARK 927      BINDING AFFINITY PREDICTED BY RF-SCORE:    0.00 PKD
ROOT
HETATM    1  C   UNL     1     -12.435  12.047  63.614  1.00  0.00    -0.637 C  
HETATM    2  C   UNL     1     -11.855  12.926  64.717  1.00  0.00    -0.363 C  
HETATM    3  C   UNL     1     -12.242  14.386  64.503  1.00  0.00    -0.483 C  
ENDROOT
BRANCH   2   4
HETATM    4  O   UNL     1     -12.396  12.515  65.985  1.00  0.00    -0.615 OA 
BRANCH   4   5
HETATM    5  C   UNL     1     -11.479  12.386  66.986  1.00  0.00    -0.358 C  
HETATM    6  O   UNL     1     -10.524  13.130  67.163  1.00  0.00    -0.245 OA 
BRANCH   5   7
HETATM    7  C   UNL     1     -11.774  11.161  67.809  1.00  0.00    -0.220 C  
BRANCH   7   8
HETATM    8  C   UNL     1     -10.885  10.003  67.355  1.00  0.00    -0.313 C  
BRANCH   8   9
HETATM    9  C   UNL     1     -10.514   9.041  68.479  1.00  0.00    -0.232 C  
BRANCH   9  10
HETATM   10  C   UNL     1     -10.311   7.631  67.996  1.00  0.00    -0.257 C  
HETATM   11  C   UNL     1     -10.846   6.526  68.540  1.00  0.00    -0.353 C  
BRANCH  11  12
HETATM   12  C   UNL     1     -11.690   6.481  69.784  1.00  0.00    -0.293 C  
BRANCH  12  13
HETATM   13  C   UNL     1     -10.869   6.622  71.073  1.00  0.00    -0.289 C  
HETATM   14  C   UNL     1     -11.530   7.438  72.190  1.00  0.00    -0.282 C  
HETATM   15  O   UNL     1     -12.931   7.193  72.263  1.00  0.00    -0.516 OA 
HETATM   16  C   UNL     1     -10.879   6.913  73.464  1.00  0.00    -0.265 C  
HETATM   17  C   UNL     1     -10.774   5.410  73.225  1.00  0.00    -0.276 C  
HETATM   18  H   UNL     1     -13.340   7.699  72.956  1.00  0.00     0.000 HD 
HETATM   19  O   UNL     1     -11.995   4.774  73.615  1.00  0.00    -0.315 OA 
HETATM   20  C   UNL     1     -10.559   5.234  71.701  1.00  0.00    -0.261 C  
HETATM   21  H   UNL     1     -11.930   3.837  73.466  1.00  0.00     0.000 HD 
BRANCH  20  22
HETATM   22  C   UNL     1      -9.188   4.767  71.246  1.00  0.00    -0.191 C  
HETATM   23  C   UNL     1      -8.109   5.543  71.031  1.00  0.00    -0.118 C  
BRANCH  23  24
HETATM   24  C   UNL     1      -6.754   5.101  70.523  1.00  0.00    -0.040 C  
HETATM   25  H   UNL     1      -5.600   3.528  70.713  1.00  0.00     0.000 HD 
HETATM   26  O   UNL     1      -6.451   3.806  71.032  1.00  0.00    -0.024 OA 
BRANCH  24  27
HETATM   27  C   UNL     1      -6.739   5.082  68.982  1.00  0.00    -0.049 C  
BRANCH  27  28
HETATM   28  O   UNL     1      -6.218   6.312  68.451  1.00  0.00    -0.029 OA 
BRANCH  28  29
HETATM   29  C   UNL     1      -6.841   6.739  67.305  1.00  0.00    -0.072 A  
HETATM   30  C   UNL     1      -7.523   5.899  66.421  1.00  0.00    -0.083 A  
HETATM   31  C   UNL     1      -8.140   6.425  65.283  1.00  0.00    -0.133 A  
HETATM   32  C   UNL     1      -8.084   7.793  65.028  1.00  0.00    -0.139 A  
HETATM   33  C   UNL     1      -7.418   8.654  65.909  1.00  0.00    -0.085 A  
HETATM   34  C   UNL     1      -7.356  10.136  65.633  1.00  0.00    -0.144 C  
HETATM   35  C   UNL     1      -6.808   8.115  67.057  1.00  0.00    -0.070 A  
HETATM   36  F   UNL     1      -7.956  10.493  64.461  1.00  0.00    -0.160 F  
HETATM   37  F   UNL     1      -6.078  10.599  65.549  1.00  0.00    -0.105 F  
HETATM   38  F   UNL     1      -7.963  10.877  66.599  1.00  0.00    -0.123 F  
ENDBRANCH  28  29
ENDBRANCH  27  28
ENDBRANCH  24  27
ENDBRANCH  23  24
ENDBRANCH  20  22
ENDBRANCH  12  13
ENDBRANCH  11  12
ENDBRANCH   9  10
ENDBRANCH   8   9
ENDBRANCH   7   8
ENDBRANCH   5   7
ENDBRANCH   4   5
ENDBRANCH   2   4
TORSDOF 13
ENDMDL
MODEL      208
REMARK 921   NORMALIZED FREE ENERGY PREDICTED BY IDOCK:   -5.07 KCAL/MOL
REMARK 922        TOTAL FREE ENERGY PREDICTED BY IDOCK:  -11.15 KCAL/MOL
REMARK 923 INTER-LIGAND FREE ENERGY PREDICTED BY IDOCK:   -8.28 KCAL/MOL
REMARK 924 INTRA-LIGAND FREE ENERGY PREDICTED BY IDOCK:   -2.88 KCAL/MOL
REMARK 927      BINDING AFFINITY PREDICTED BY RF-SCORE:    0.00 PKD
ROOT
HETATM    1  C   UNL     1      -5.480  10.436  63.694  1.00  0.00    -0.156 C  
HETATM    2  C   UNL     1      -6.690  10.192  64.589  1.00  0.00    -0.120 C  
HETATM    3  C   UNL     1      -7.791   9.465  63.822  1.00  0.00    -0.132 C  
ENDROOT
BRANCH   2   4
HETATM    4  O   UNL     1      -6.304   9.354  65.692  1.00  0.00    -0.065 OA 
BRANCH   4   5
HETATM    5  C   UNL     1      -6.797   9.737  66.904  1.00  0.00    -0.083 C  
HETATM    6  O   UNL     1      -7.041   8.980  67.834  1.00  0.00    -0.077 OA 
BRANCH   5   7
HETATM    7  C   UNL     1      -7.056  11.220  66.917  1.00  0.00    -0.139 C  
BRANCH   7   8
HETATM    8  C   UNL     1      -7.362  11.681  68.342  1.00  0.00    -0.096 C  
BRANCH   8   9
HETATM    9  C   UNL     1      -6.387  12.732  68.866  1.00  0.00    -0.086 C  
BRANCH   9  10
HETATM   10  C   UNL     1      -6.329  13.958  67.996  1.00  0.00    -0.144 C  
HETATM   11  C   UNL     1      -7.138  15.025  68.083  1.00  0.00    -0.126 C  
BRANCH  11  12
HETATM   12  C   UNL     1      -8.308  15.166  69.018  1.00  0.00    -0.209 C  
BRANCH  12  13
HETATM   13  C   UNL     1      -9.574  15.686  68.324  1.00  0.00    -0.200 C  
HETATM   14  C   UNL     1      -9.944  17.142  68.629  1.00  0.00    -0.313 C  
HETATM   15  O   UNL     1      -8.791  17.972  68.716  1.00  0.00    -0.282 OA 
HETATM   16  C   UNL     1     -10.764  17.575  67.419  1.00  0.00    -0.250 C  
HETATM   17  C   UNL     1     -10.037  16.933  66.241  1.00  0.00    -0.324 C  
HETATM   18  H   UNL     1      -9.021  18.875  68.905  1.00  0.00     0.000 HD 
HETATM   19  O   UNL     1      -8.979  17.792  65.802  1.00  0.00    -0.509 OA 
HETATM   20  C   UNL     1      -9.443  15.608  66.776  1.00  0.00    -0.261 C  
HETATM   21  H   UNL     1      -8.527  17.392  65.068  1.00  0.00     0.000 HD 
BRANCH  20  22
HETATM   22  C   UNL     1     -10.073  14.318  66.280  1.00  0.00    -0.308 C  
HETATM   23  C   UNL     1     -11.389  14.068  66.150  1.00  0.00    -0.322 C  
BRANCH  23  24
HETATM   24  C   UNL     1     -12.033  12.771  65.711  1.00  0.00    -0.449 C  
HETATM   25  H   UNL     1     -12.855  12.064  64.077  1.00  0.00     0.000 HD 
HETATM   26  O   UNL     1     -12.450  12.879  64.353  1.00  0.00    -0.530 OA 
BRANCH  24  27
HETATM   27  C   UNL     1     -11.042  11.600  65.869  1.00  0.00    -0.264 C  
BRANCH  27  28
HETATM   28  O   UNL     1     -10.687  11.402  67.247  1.00  0.00    -0.215 OA 
BRANCH  28  29
HETATM   29  C   UNL     1     -10.589  10.085  67.620  1.00  0.00    -0.270 A  
HETATM   30  C   UNL     1     -10.394   9.028  66.726  1.00  0.00    -0.310 A  
HETATM   31  C   UNL     1     -10.292   7.717  67.197  1.00  0.00    -0.385 A  
HETATM   32  C   UNL     1     -10.376   7.457  68.563  1.00  0.00    -0.221 A  
HETATM   33  C   UNL     1     -10.556   8.503  69.476  1.00  0.00    -0.215 A  
HETATM   34  C   UNL     1     -10.649   8.223  70.955  1.00  0.00    -0.204 C  
HETATM   35  C   UNL     1     -10.649   9.821  68.992  1.00  0.00    -0.238 A  
HETATM   36  F   UNL     1     -10.586   6.894  71.259  1.00  0.00    -0.225 F  
HETATM   37  F   UNL     1     -11.814   8.670  71.501  1.00  0.00    -0.291 F  
HETATM   38  F   UNL     1      -9.649   8.812  71.667  1.00  0.00    -0.255 F  
ENDBRANCH  28  29
ENDBRANCH  27  28
ENDBRANCH  24  27
ENDBRANCH  23  24
ENDBRANCH  20  22
ENDBRANCH  12  13
ENDBRANCH  11  12
ENDBRANCH   9  10
ENDBRANCH   8   9
ENDBRANCH   7   8
ENDBRANCH   5   7
ENDBRANCH   4   5
ENDBRANCH   2   4
TORSDOF 13
ENDMDL
MODEL      209
REMARK 921   NORMALIZED FREE ENERGY PREDICTED BY IDOCK:   -5.05 KCAL/MOL
REMARK 922        TOTAL FREE ENERGY PREDICTED BY IDOCK:  -11.10 KCAL/MOL
REMARK 923 INTER-LIGAND FREE ENERGY PREDICTED BY IDOCK:   -9.20 KCAL/MOL
REMARK 924 INTRA-LIGAND FREE ENERGY PREDICTED BY IDOCK:   -1.91 KCAL/MOL
REMARK 927      BINDING AFFINITY PREDICTED BY RF-SCORE:    0.00 PKD
ROOT
HETATM    1  C   UNL     1     -10.296  20.010  65.590  1.00  0.00    -0.395 C  
HETATM    2  C   UNL     1      -9.671  19.296  66.784  1.00  0.00    -0.341 C  
HETATM    3  C   UNL     1     -10.279  19.795  68.091  1.00  0.00    -0.577 C  
ENDROOT
BRANCH   2   4
HETATM    4  O   UNL     1      -9.941  17.886  66.689  1.00  0.00    -0.319 OA 
BRANCH   4   5
HETATM    5  C   UNL     1      -8.859  17.112  66.393  1.00  0.00    -0.255 C  
HETATM    6  O   UNL     1      -7.696  17.490  66.426  1.00  0.00    -0.248 OA 
BRANCH   5   7
HETATM    7  C   UNL     1      -9.301  15.739  65.960  1.00  0.00    -0.384 C  
BRANCH   7   8
HETATM    8  C   UNL     1     -10.678  15.821  65.302  1.00  0.00    -0.446 C  
BRANCH   8   9
HETATM    9  C   UNL     1     -11.208  14.472  64.826  1.00  0.00    -0.395 C  
BRANCH   9  10
HETATM   10  C   UNL     1     -12.412  14.011  65.602  1.00  0.00    -0.531 C  
HETATM   11  C   UNL     1     -12.390  13.286  66.732  1.00  0.00    -0.239 C  
BRANCH  11  12
HETATM   12  C   UNL     1     -11.161  12.730  67.395  1.00  0.00    -0.312 C  
BRANCH  12  13
HETATM   13  C   UNL     1     -10.965  11.230  67.139  1.00  0.00    -0.348 C  
HETATM   14  C   UNL     1     -10.210  10.873  65.853  1.00  0.00    -0.257 C  
HETATM   15  O   UNL     1      -9.145  11.782  65.598  1.00  0.00    -0.374 OA 
HETATM   16  C   UNL     1      -9.617   9.499  66.144  1.00  0.00    -0.302 C  
HETATM   17  C   UNL     1      -9.164   9.600  67.597  1.00  0.00    -0.130 C  
HETATM   18  H   UNL     1      -8.677  11.560  64.801  1.00  0.00     0.000 HD 
HETATM   19  O   UNL     1      -7.846  10.155  67.654  1.00  0.00    -0.098 OA 
HETATM   20  C   UNL     1     -10.163  10.559  68.290  1.00  0.00    -0.185 C  
HETATM   21  H   UNL     1      -7.564  10.218  68.559  1.00  0.00     0.000 HD 
BRANCH  20  22
HETATM   22  C   UNL     1     -11.128   9.948  69.290  1.00  0.00    -0.220 C  
HETATM   23  C   UNL     1     -11.060  10.048  70.631  1.00  0.00    -0.408 C  
BRANCH  23  24
HETATM   24  C   UNL     1     -11.981   9.399  71.642  1.00  0.00    -0.393 C  
HETATM   25  H   UNL     1     -13.892   8.984  71.776  1.00  0.00     0.000 HD 
HETATM   26  O   UNL     1     -13.314   9.391  71.140  1.00  0.00    -0.314 OA 
BRANCH  24  27
HETATM   27  C   UNL     1     -11.519   7.958  71.940  1.00  0.00    -0.280 C  
BRANCH  27  28
HETATM   28  O   UNL     1     -10.928   7.862  73.247  1.00  0.00    -0.334 OA 
BRANCH  28  29
HETATM   29  C   UNL     1      -9.580   7.605  73.239  1.00  0.00    -0.268 A  
HETATM   30  C   UNL     1      -8.867   7.113  74.335  1.00  0.00    -0.238 A  
HETATM   31  C   UNL     1      -7.496   6.867  74.231  1.00  0.00    -0.108 A  
HETATM   32  C   UNL     1      -6.833   7.106  73.029  1.00  0.00    -0.068 A  
HETATM   33  C   UNL     1      -7.532   7.585  71.915  1.00  0.00    -0.080 A  
HETATM   34  C   UNL     1      -6.815   7.844  70.613  1.00  0.00    -0.041 C  
HETATM   35  C   UNL     1      -8.914   7.820  72.027  1.00  0.00    -0.175 A  
HETATM   36  F   UNL     1      -5.472   7.610  70.679  1.00  0.00    -0.026 F  
HETATM   37  F   UNL     1      -6.943   9.133  70.193  1.00  0.00    -0.039 F  
HETATM   38  F   UNL     1      -7.275   7.068  69.594  1.00  0.00    -0.070 F  
ENDBRANCH  28  29
ENDBRANCH  27  28
ENDBRANCH  24  27
ENDBRANCH  23  24
ENDBRANCH  20  22
ENDBRANCH  12  13
ENDBRANCH  11  12
ENDBRANCH   9  10
ENDBRANCH   8   9
ENDBRANCH   7   8
ENDBRANCH   5   7
ENDBRANCH   4   5
ENDBRANCH   2   4
TORSDOF 13
ENDMDL
MODEL      210
REMARK 921   NORMALIZED FREE ENERGY PREDICTED BY IDOCK:   -5.04 KCAL/MOL
REMARK 922        TOTAL FREE ENERGY PREDICTED BY IDOCK:  -11.09 KCAL/MOL
REMARK 923 INTER-LIGAND FREE ENERGY PREDICTED BY IDOCK:   -8.27 KCAL/MOL
REMARK 924 INTRA-LIGAND FREE ENERGY PREDICTED BY IDOCK:   -2.83 KCAL/MOL
REMARK 927      BINDING AFFINITY PREDICTED BY RF-SCORE:    0.00 PKD
ROOT
HETATM    1  C   UNL     1     -12.449  12.084  63.379  1.00  0.00    -0.625 C  
HETATM    2  C   UNL     1     -11.623  12.587  64.557  1.00  0.00    -0.348 C  
HETATM    3  C   UNL     1     -12.343  13.723  65.276  1.00  0.00    -0.491 C  
ENDROOT
BRANCH   2   4
HETATM    4  O   UNL     1     -11.445  11.518  65.504  1.00  0.00    -0.171 OA 
BRANCH   4   5
HETATM    5  C   UNL     1     -10.307  10.787  65.338  1.00  0.00    -0.247 C  
HETATM    6  O   UNL     1      -9.459  10.993  64.480  1.00  0.00    -0.219 OA 
BRANCH   5   7
HETATM    7  C   UNL     1     -10.269   9.650  66.324  1.00  0.00    -0.286 C  
BRANCH   7   8
HETATM    8  C   UNL     1      -9.007   8.815  66.104  1.00  0.00    -0.225 C  
BRANCH   8   9
HETATM    9  C   UNL     1      -9.189   7.336  66.433  1.00  0.00    -0.201 C  
BRANCH   9  10
HETATM   10  C   UNL     1     -10.565   7.019  66.951  1.00  0.00    -0.372 C  
HETATM   11  C   UNL     1     -10.878   6.717  68.221  1.00  0.00    -0.322 C  
BRANCH  11  12
HETATM   12  C   UNL     1      -9.900   6.560  69.353  1.00  0.00    -0.161 C  
BRANCH  12  13
HETATM   13  C   UNL     1     -10.451   7.054  70.697  1.00  0.00    -0.229 C  
HETATM   14  C   UNL     1     -10.381   6.046  71.850  1.00  0.00    -0.209 C  
HETATM   15  O   UNL     1      -9.178   5.285  71.813  1.00  0.00    -0.137 OA 
HETATM   16  C   UNL     1     -10.365   6.917  73.101  1.00  0.00    -0.293 C  
HETATM   17  C   UNL     1      -9.467   8.089  72.715  1.00  0.00    -0.269 C  
HETATM   18  H   UNL     1      -9.134   4.661  72.528  1.00  0.00     0.000 HD 
HETATM   19  O   UNL     1      -8.099   7.750  72.962  1.00  0.00    -0.108 OA 
HETATM   20  C   UNL     1      -9.682   8.310  71.197  1.00  0.00    -0.209 C  
HETATM   21  H   UNL     1      -7.539   8.479  72.721  1.00  0.00     0.000 HD 
BRANCH  20  22
HETATM   22  C   UNL     1     -10.432   9.562  70.780  1.00  0.00    -0.384 C  
HETATM   23  C   UNL     1     -11.704   9.625  70.344  1.00  0.00    -0.266 C  
BRANCH  23  24
HETATM   24  C   UNL     1     -12.447  10.856  69.871  1.00  0.00    -0.224 C  
HETATM   25  H   UNL     1     -13.335  12.394  70.699  1.00  0.00     0.000 HD 
HETATM   26  O   UNL     1     -12.868  11.622  70.996  1.00  0.00    -0.328 OA 
BRANCH  24  27
HETATM   27  C   UNL     1     -11.544  11.708  68.957  1.00  0.00    -0.316 C  
BRANCH  27  28
HETATM   28  O   UNL     1     -11.520  13.080  69.384  1.00  0.00    -0.273 OA 
BRANCH  28  29
HETATM   29  C   UNL     1     -10.465  13.806  68.890  1.00  0.00    -0.169 A  
HETATM   30  C   UNL     1     -10.462  15.196  68.754  1.00  0.00    -0.234 A  
HETATM   31  C   UNL     1      -9.336  15.853  68.253  1.00  0.00    -0.194 A  
HETATM   32  C   UNL     1      -8.205  15.124  67.893  1.00  0.00    -0.152 A  
HETATM   33  C   UNL     1      -8.182  13.732  68.036  1.00  0.00    -0.164 A  
HETATM   34  C   UNL     1      -6.958  12.940  67.645  1.00  0.00    -0.152 C  
HETATM   35  C   UNL     1      -9.319  13.080  68.549  1.00  0.00    -0.078 A  
HETATM   36  F   UNL     1      -5.960  13.711  67.123  1.00  0.00    -0.040 F  
HETATM   37  F   UNL     1      -7.225  11.996  66.701  1.00  0.00    -0.115 F  
HETATM   38  F   UNL     1      -6.402  12.278  68.695  1.00  0.00    -0.059 F  
ENDBRANCH  28  29
ENDBRANCH  27  28
ENDBRANCH  24  27
ENDBRANCH  23  24
ENDBRANCH  20  22
ENDBRANCH  12  13
ENDBRANCH  11  12
ENDBRANCH   9  10
ENDBRANCH   8   9
ENDBRANCH   7   8
ENDBRANCH   5   7
ENDBRANCH   4   5
ENDBRANCH   2   4
TORSDOF 13
ENDMDL
MODEL      211
REMARK 921   NORMALIZED FREE ENERGY PREDICTED BY IDOCK:   -5.02 KCAL/MOL
REMARK 922        TOTAL FREE ENERGY PREDICTED BY IDOCK:  -11.05 KCAL/MOL
REMARK 923 INTER-LIGAND FREE ENERGY PREDICTED BY IDOCK:   -8.96 KCAL/MOL
REMARK 924 INTRA-LIGAND FREE ENERGY PREDICTED BY IDOCK:   -2.09 KCAL/MOL
REMARK 927      BINDING AFFINITY PREDICTED BY RF-SCORE:    0.00 PKD
ROOT
HETATM    1  C   UNL     1     -12.595  12.431  63.425  1.00  0.00    -0.481 C  
HETATM    2  C   UNL     1     -11.351  12.689  64.269  1.00  0.00    -0.363 C  
HETATM    3  C   UNL     1     -11.514  13.961  65.095  1.00  0.00    -0.324 C  
ENDROOT
BRANCH   2   4
HETATM    4  O   UNL     1     -11.164  11.597  65.187  1.00  0.00    -0.275 OA 
BRANCH   4   5
HETATM    5  C   UNL     1     -10.208  10.697  64.820  1.00  0.00    -0.331 C  
HETATM    6  O   UNL     1      -9.562  10.742  63.782  1.00  0.00    -0.240 OA 
BRANCH   5   7
HETATM    7  C   UNL     1     -10.101   9.602  65.848  1.00  0.00    -0.304 C  
BRANCH   7   8
HETATM    8  C   UNL     1      -8.830   8.787  65.608  1.00  0.00    -0.239 C  
BRANCH   8   9
HETATM    9  C   UNL     1      -8.978   7.309  65.958  1.00  0.00    -0.149 C  
BRANCH   9  10
HETATM   10  C   UNL     1     -10.218   7.021  66.760  1.00  0.00    -0.282 C  
HETATM   11  C   UNL     1     -10.342   6.080  67.709  1.00  0.00    -0.254 C  
BRANCH  11  12
HETATM   12  C   UNL     1      -9.287   5.081  68.098  1.00  0.00    -0.156 C  
BRANCH  12  13
HETATM   13  C   UNL     1      -9.614   4.335  69.398  1.00  0.00    -0.267 C  
HETATM   14  C   UNL     1      -9.281   2.838  69.402  1.00  0.00    -0.139 C  
HETATM   15  O   UNL     1      -8.064   2.567  68.715  1.00  0.00    -0.052 OA 
HETATM   16  C   UNL     1      -9.090   2.508  70.878  1.00  0.00    -0.182 C  
HETATM   17  C   UNL     1      -8.343   3.720  71.427  1.00  0.00    -0.072 C  
HETATM   18  H   UNL     1      -7.858   1.639  68.718  1.00  0.00     0.000 HD 
HETATM   19  O   UNL     1      -6.936   3.549  71.230  1.00  0.00    -0.031 OA 
HETATM   20  C   UNL     1      -8.839   4.935  70.605  1.00  0.00    -0.147 C  
HETATM   21  H   UNL     1      -6.471   4.304  71.571  1.00  0.00     0.000 HD 
BRANCH  20  22
HETATM   22  C   UNL     1      -9.721   5.941  71.323  1.00  0.00    -0.206 C  
HETATM   23  C   UNL     1     -10.712   5.661  72.190  1.00  0.00    -0.287 C  
BRANCH  23  24
HETATM   24  C   UNL     1     -11.636   6.649  72.869  1.00  0.00     0.020 C  
HETATM   25  H   UNL     1     -11.451   8.183  74.075  1.00  0.00     0.000 HD 
HETATM   26  O   UNL     1     -10.870   7.563  73.648  1.00  0.00    -0.329 OA 
BRANCH  24  27
HETATM   27  C   UNL     1     -12.468   7.414  71.820  1.00  0.00    -0.336 C  
BRANCH  27  28
HETATM   28  O   UNL     1     -12.729   8.762  72.246  1.00  0.00    -0.371 OA 
BRANCH  28  29
HETATM   29  C   UNL     1     -12.319   9.723  71.357  1.00  0.00    -0.388 A  
HETATM   30  C   UNL     1     -11.528   9.468  70.234  1.00  0.00    -0.256 A  
HETATM   31  C   UNL     1     -11.168  10.508  69.373  1.00  0.00    -0.327 A  
HETATM   32  C   UNL     1     -11.605  11.806  69.628  1.00  0.00    -0.393 A  
HETATM   33  C   UNL     1     -12.411  12.080  70.739  1.00  0.00    -0.403 A  
HETATM   34  C   UNL     1     -12.883  13.486  71.017  1.00  0.00    -0.267 C  
HETATM   35  C   UNL     1     -12.774  11.024  71.594  1.00  0.00    -0.483 A  
HETATM   36  F   UNL     1     -12.410  14.402  70.123  1.00  0.00    -0.334 F  
HETATM   37  F   UNL     1     -12.497  13.936  72.243  1.00  0.00    -0.327 F  
HETATM   38  F   UNL     1     -14.238  13.603  70.982  1.00  0.00     0.018 F  
ENDBRANCH  28  29
ENDBRANCH  27  28
ENDBRANCH  24  27
ENDBRANCH  23  24
ENDBRANCH  20  22
ENDBRANCH  12  13
ENDBRANCH  11  12
ENDBRANCH   9  10
ENDBRANCH   8   9
ENDBRANCH   7   8
ENDBRANCH   5   7
ENDBRANCH   4   5
ENDBRANCH   2   4
TORSDOF 13
ENDMDL
MODEL      212
REMARK 921   NORMALIZED FREE ENERGY PREDICTED BY IDOCK:   -5.02 KCAL/MOL
REMARK 922        TOTAL FREE ENERGY PREDICTED BY IDOCK:  -11.05 KCAL/MOL
REMARK 923 INTER-LIGAND FREE ENERGY PREDICTED BY IDOCK:   -8.77 KCAL/MOL
REMARK 924 INTRA-LIGAND FREE ENERGY PREDICTED BY IDOCK:   -2.28 KCAL/MOL
REMARK 927      BINDING AFFINITY PREDICTED BY RF-SCORE:    0.00 PKD
ROOT
HETATM    1  C   UNL     1      -7.396   8.928  70.872  1.00  0.00    -0.100 C  
HETATM    2  C   UNL     1      -7.147   7.430  71.010  1.00  0.00    -0.060 C  
HETATM    3  C   UNL     1      -5.832   7.038  70.342  1.00  0.00    -0.024 C  
ENDROOT
BRANCH   2   4
HETATM    4  O   UNL     1      -7.043   7.093  72.404  1.00  0.00    -0.067 OA 
BRANCH   4   5
HETATM    5  C   UNL     1      -8.227   6.803  73.015  1.00  0.00    -0.108 C  
HETATM    6  O   UNL     1      -8.741   7.471  73.901  1.00  0.00    -0.189 OA 
BRANCH   5   7
HETATM    7  C   UNL     1      -8.785   5.509  72.484  1.00  0.00    -0.124 C  
BRANCH   7   8
HETATM    8  C   UNL     1     -10.303   5.617  72.345  1.00  0.00    -0.245 C  
BRANCH   8   9
HETATM    9  C   UNL     1     -10.768   5.862  70.913  1.00  0.00    -0.338 C  
BRANCH   9  10
HETATM   10  C   UNL     1     -10.953   7.323  70.603  1.00  0.00    -0.278 C  
HETATM   11  C   UNL     1     -10.588   7.939  69.467  1.00  0.00    -0.220 C  
BRANCH  11  12
HETATM   12  C   UNL     1      -9.855   7.303  68.319  1.00  0.00    -0.165 C  
BRANCH  12  13
HETATM   13  C   UNL     1      -8.953   8.286  67.562  1.00  0.00    -0.141 C  
HETATM   14  C   UNL     1      -7.568   7.751  67.177  1.00  0.00    -0.100 C  
HETATM   15  O   UNL     1      -7.624   6.386  66.777  1.00  0.00    -0.095 OA 
HETATM   16  C   UNL     1      -7.169   8.594  65.972  1.00  0.00    -0.084 C  
HETATM   17  C   UNL     1      -8.466   8.731  65.180  1.00  0.00    -0.174 C  
HETATM   18  H   UNL     1      -6.766   6.054  66.538  1.00  0.00     0.000 HD 
HETATM   19  O   UNL     1      -8.620   7.604  64.310  1.00  0.00    -0.367 OA 
HETATM   20  C   UNL     1      -9.607   8.741  66.226  1.00  0.00    -0.328 C  
HETATM   21  H   UNL     1      -9.428   7.689  63.817  1.00  0.00     0.000 HD 
BRANCH  20  22
HETATM   22  C   UNL     1     -10.336  10.055  66.442  1.00  0.00    -0.249 C  
HETATM   23  C   UNL     1      -9.813  11.289  66.323  1.00  0.00    -0.248 C  
BRANCH  23  24
HETATM   24  C   UNL     1     -10.510  12.606  66.589  1.00  0.00    -0.245 C  
HETATM   25  H   UNL     1     -11.752  13.783  65.633  1.00  0.00     0.000 HD 
HETATM   26  O   UNL     1     -11.314  12.956  65.466  1.00  0.00    -0.294 OA 
BRANCH  24  27
HETATM   27  C   UNL     1     -11.384  12.503  67.855  1.00  0.00    -0.291 C  
BRANCH  27  28
HETATM   28  O   UNL     1     -12.242  13.648  67.988  1.00  0.00    -0.323 OA 
BRANCH  28  29
HETATM   29  C   UNL     1     -11.895  14.496  69.010  1.00  0.00    -0.318 A  
HETATM   30  C   UNL     1     -10.927  15.499  68.904  1.00  0.00    -0.266 A  
HETATM   31  C   UNL     1     -10.647  16.326  69.994  1.00  0.00    -0.239 A  
HETATM   32  C   UNL     1     -11.338  16.160  71.192  1.00  0.00    -0.368 A  
HETATM   33  C   UNL     1     -12.321  15.172  71.314  1.00  0.00    -0.401 A  
HETATM   34  C   UNL     1     -13.070  14.990  72.612  1.00  0.00    -0.416 C  
HETATM   35  C   UNL     1     -12.602  14.349  70.207  1.00  0.00    -0.380 A  
HETATM   36  F   UNL     1     -12.652  15.833  73.600  1.00  0.00    -0.464 F  
HETATM   37  F   UNL     1     -12.938  13.734  73.120  1.00  0.00    -0.520 F  
HETATM   38  F   UNL     1     -14.407  15.207  72.483  1.00  0.00    -0.537 F  
ENDBRANCH  28  29
ENDBRANCH  27  28
ENDBRANCH  24  27
ENDBRANCH  23  24
ENDBRANCH  20  22
ENDBRANCH  12  13
ENDBRANCH  11  12
ENDBRANCH   9  10
ENDBRANCH   8   9
ENDBRANCH   7   8
ENDBRANCH   5   7
ENDBRANCH   4   5
ENDBRANCH   2   4
TORSDOF 13
ENDMDL
MODEL      213
REMARK 921   NORMALIZED FREE ENERGY PREDICTED BY IDOCK:   -5.01 KCAL/MOL
REMARK 922        TOTAL FREE ENERGY PREDICTED BY IDOCK:  -11.03 KCAL/MOL
REMARK 923 INTER-LIGAND FREE ENERGY PREDICTED BY IDOCK:   -8.67 KCAL/MOL
REMARK 924 INTRA-LIGAND FREE ENERGY PREDICTED BY IDOCK:   -2.36 KCAL/MOL
REMARK 927      BINDING AFFINITY PREDICTED BY RF-SCORE:    0.00 PKD
ROOT
HETATM    1  C   UNL     1     -10.770   9.186  68.009  1.00  0.00    -0.205 C  
HETATM    2  C   UNL     1     -10.556   8.811  69.471  1.00  0.00    -0.219 C  
HETATM    3  C   UNL     1      -9.203   9.312  69.965  1.00  0.00    -0.231 C  
ENDROOT
BRANCH   2   4
HETATM    4  O   UNL     1     -11.571   9.438  70.276  1.00  0.00    -0.233 OA 
BRANCH   4   5
HETATM    5  C   UNL     1     -12.084   8.655  71.266  1.00  0.00    -0.290 C  
HETATM    6  O   UNL     1     -12.515   9.067  72.335  1.00  0.00    -0.361 OA 
BRANCH   5   7
HETATM    7  C   UNL     1     -11.990   7.201  70.884  1.00  0.00    -0.375 C  
BRANCH   7   8
HETATM    8  C   UNL     1     -11.736   6.353  72.130  1.00  0.00    -0.366 C  
BRANCH   8   9
HETATM    9  C   UNL     1     -10.776   5.191  71.890  1.00  0.00    -0.219 C  
BRANCH   9  10
HETATM   10  C   UNL     1      -9.429   5.640  71.394  1.00  0.00    -0.176 C  
HETATM   11  C   UNL     1      -8.963   5.500  70.143  1.00  0.00    -0.154 C  
BRANCH  11  12
HETATM   12  C   UNL     1      -9.668   4.797  69.017  1.00  0.00    -0.248 C  
BRANCH  12  13
HETATM   13  C   UNL     1      -8.840   4.746  67.726  1.00  0.00    -0.112 C  
HETATM   14  C   UNL     1      -8.504   3.342  67.212  1.00  0.00    -0.099 C  
HETATM   15  O   UNL     1      -9.591   2.440  67.394  1.00  0.00    -0.406 OA 
HETATM   16  C   UNL     1      -8.284   3.540  65.717  1.00  0.00    -0.097 C  
HETATM   17  C   UNL     1      -9.366   4.539  65.320  1.00  0.00    -0.160 C  
HETATM   18  H   UNL     1      -9.382   1.569  67.075  1.00  0.00     0.000 HD 
HETATM   19  O   UNL     1     -10.581   3.842  65.024  1.00  0.00    -0.459 OA 
HETATM   20  C   UNL     1      -9.577   5.452  66.553  1.00  0.00    -0.167 C  
HETATM   21  H   UNL     1     -11.255   4.464  64.778  1.00  0.00     0.000 HD 
BRANCH  20  22
HETATM   22  C   UNL     1      -9.094   6.887  66.442  1.00  0.00    -0.185 C  
HETATM   23  C   UNL     1      -9.028   7.624  65.317  1.00  0.00     0.203 C  
BRANCH  23  24
HETATM   24  C   UNL     1      -8.497   9.035  65.180  1.00  0.00    -0.167 C  
HETATM   25  H   UNL     1      -6.754   9.884  64.892  1.00  0.00     0.000 HD 
HETATM   26  O   UNL     1      -7.088   8.998  64.978  1.00  0.00    -0.085 OA 
BRANCH  24  27
HETATM   27  C   UNL     1      -9.183   9.754  64.001  1.00  0.00    -0.215 C  
BRANCH  27  28
HETATM   28  O   UNL     1      -8.988  11.175  64.075  1.00  0.00    -0.109 OA 
BRANCH  28  29
HETATM   29  C   UNL     1     -10.092  11.874  64.495  1.00  0.00    -0.271 A  
HETATM   30  C   UNL     1     -11.148  12.252  63.661  1.00  0.00    -0.537 A  
HETATM   31  C   UNL     1     -12.240  12.952  64.179  1.00  0.00    -0.487 A  
HETATM   32  C   UNL     1     -12.286  13.270  65.534  1.00  0.00    -0.506 A  
HETATM   33  C   UNL     1     -11.246  12.888  66.390  1.00  0.00    -0.337 A  
HETATM   34  C   UNL     1     -11.293  13.234  67.858  1.00  0.00    -0.284 C  
HETATM   35  C   UNL     1     -10.154  12.176  65.859  1.00  0.00    -0.270 A  
HETATM   36  F   UNL     1     -12.393  13.963  68.206  1.00  0.00    -0.391 F  
HETATM   37  F   UNL     1     -10.221  13.972  68.257  1.00  0.00    -0.221 F  
HETATM   38  F   UNL     1     -11.312  12.133  68.658  1.00  0.00    -0.231 F  
ENDBRANCH  28  29
ENDBRANCH  27  28
ENDBRANCH  24  27
ENDBRANCH  23  24
ENDBRANCH  20  22
ENDBRANCH  12  13
ENDBRANCH  11  12
ENDBRANCH   9  10
ENDBRANCH   8   9
ENDBRANCH   7   8
ENDBRANCH   5   7
ENDBRANCH   4   5
ENDBRANCH   2   4
TORSDOF 13
ENDMDL
MODEL      214
REMARK 921   NORMALIZED FREE ENERGY PREDICTED BY IDOCK:   -5.00 KCAL/MOL
REMARK 922        TOTAL FREE ENERGY PREDICTED BY IDOCK:  -11.03 KCAL/MOL
REMARK 923 INTER-LIGAND FREE ENERGY PREDICTED BY IDOCK:   -8.49 KCAL/MOL
REMARK 924 INTRA-LIGAND FREE ENERGY PREDICTED BY IDOCK:   -2.54 KCAL/MOL
REMARK 927      BINDING AFFINITY PREDICTED BY RF-SCORE:    0.00 PKD
ROOT
HETATM    1  C   UNL     1      -7.808   5.084  71.300  1.00  0.00    -0.101 C  
HETATM    2  C   UNL     1      -9.310   5.081  71.037  1.00  0.00    -0.152 C  
HETATM    3  C   UNL     1      -9.994   3.968  71.824  1.00  0.00    -0.240 C  
ENDROOT
BRANCH   2   4
HETATM    4  O   UNL     1      -9.871   6.331  71.475  1.00  0.00    -0.172 OA 
BRANCH   4   5
HETATM    5  C   UNL     1     -11.146   6.567  71.053  1.00  0.00    -0.288 C  
HETATM    6  O   UNL     1     -11.617   6.182  69.992  1.00  0.00    -0.392 OA 
BRANCH   5   7
HETATM    7  C   UNL     1     -11.877   7.422  72.054  1.00  0.00    -0.335 C  
BRANCH   7   8
HETATM    8  C   UNL     1     -12.277   8.749  71.410  1.00  0.00    -0.359 C  
BRANCH   8   9
HETATM    9  C   UNL     1     -11.092   9.665  71.114  1.00  0.00    -0.444 C  
BRANCH   9  10
HETATM   10  C   UNL     1     -11.350  10.598  69.963  1.00  0.00    -0.400 C  
HETATM   11  C   UNL     1     -11.126  10.330  68.667  1.00  0.00    -0.290 C  
BRANCH  11  12
HETATM   12  C   UNL     1     -10.503   9.073  68.124  1.00  0.00    -0.257 C  
BRANCH  12  13
HETATM   13  C   UNL     1      -9.099   9.299  67.548  1.00  0.00    -0.133 C  
HETATM   14  C   UNL     1      -7.947   9.187  68.553  1.00  0.00    -0.102 C  
HETATM   15  O   UNL     1      -8.168   8.142  69.495  1.00  0.00    -0.117 OA 
HETATM   16  C   UNL     1      -6.743   8.818  67.694  1.00  0.00    -0.066 C  
HETATM   17  C   UNL     1      -7.310   7.830  66.680  1.00  0.00    -0.088 C  
HETATM   18  H   UNL     1      -7.454   8.073  70.118  1.00  0.00     0.000 HD 
HETATM   19  O   UNL     1      -7.291   6.509  67.232  1.00  0.00    -0.083 OA 
HETATM   20  C   UNL     1      -8.774   8.268  66.430  1.00  0.00    -0.162 C  
HETATM   21  H   UNL     1      -7.645   5.894  66.600  1.00  0.00     0.000 HD 
BRANCH  20  22
HETATM   22  C   UNL     1      -9.092   8.875  65.075  1.00  0.00    -0.110 C  
HETATM   23  C   UNL     1      -8.863  10.145  64.694  1.00  0.00    -0.220 C  
BRANCH  23  24
HETATM   24  C   UNL     1      -9.225  10.780  63.368  1.00  0.00    -0.268 C  
HETATM   25  H   UNL     1      -9.700  10.162  61.570  1.00  0.00     0.000 HD 
HETATM   26  O   UNL     1      -9.473   9.763  62.402  1.00  0.00    -0.259 OA 
BRANCH  24  27
HETATM   27  C   UNL     1     -10.470  11.676  63.525  1.00  0.00    -0.443 C  
BRANCH  27  28
HETATM   28  O   UNL     1     -10.697  12.014  64.904  1.00  0.00    -0.279 OA 
BRANCH  28  29
HETATM   29  C   UNL     1     -10.544  13.347  65.190  1.00  0.00    -0.343 A  
HETATM   30  C   UNL     1     -11.274  14.371  64.580  1.00  0.00    -0.366 A  
HETATM   31  C   UNL     1     -11.060  15.702  64.944  1.00  0.00    -0.414 A  
HETATM   32  C   UNL     1     -10.121  16.016  65.924  1.00  0.00    -0.378 A  
HETATM   33  C   UNL     1      -9.389  15.004  66.557  1.00  0.00    -0.309 A  
HETATM   34  C   UNL     1      -8.371  15.343  67.618  1.00  0.00    -0.161 C  
HETATM   35  C   UNL     1      -9.619  13.666  66.190  1.00  0.00    -0.226 A  
HETATM   36  F   UNL     1      -8.234  16.684  67.828  1.00  0.00    -0.168 F  
HETATM   37  F   UNL     1      -7.124  14.890  67.310  1.00  0.00    -0.202 F  
HETATM   38  F   UNL     1      -8.677  14.808  68.832  1.00  0.00    -0.163 F  
ENDBRANCH  28  29
ENDBRANCH  27  28
ENDBRANCH  24  27
ENDBRANCH  23  24
ENDBRANCH  20  22
ENDBRANCH  12  13
ENDBRANCH  11  12
ENDBRANCH   9  10
ENDBRANCH   8   9
ENDBRANCH   7   8
ENDBRANCH   5   7
ENDBRANCH   4   5
ENDBRANCH   2   4
TORSDOF 13
ENDMDL
MODEL      215
REMARK 921   NORMALIZED FREE ENERGY PREDICTED BY IDOCK:   -5.00 KCAL/MOL
REMARK 922        TOTAL FREE ENERGY PREDICTED BY IDOCK:  -11.01 KCAL/MOL
REMARK 923 INTER-LIGAND FREE ENERGY PREDICTED BY IDOCK:   -9.03 KCAL/MOL
REMARK 924 INTRA-LIGAND FREE ENERGY PREDICTED BY IDOCK:   -1.99 KCAL/MOL
REMARK 927      BINDING AFFINITY PREDICTED BY RF-SCORE:    0.00 PKD
ROOT
HETATM    1  C   UNL     1     -11.019   6.494  67.192  1.00  0.00    -0.480 C  
HETATM    2  C   UNL     1     -10.218   5.597  68.129  1.00  0.00    -0.186 C  
HETATM    3  C   UNL     1      -9.047   4.955  67.392  1.00  0.00    -0.124 C  
ENDROOT
BRANCH   2   4
HETATM    4  O   UNL     1      -9.673   6.392  69.198  1.00  0.00    -0.135 OA 
BRANCH   4   5
HETATM    5  C   UNL     1     -10.018   5.983  70.451  1.00  0.00    -0.184 C  
HETATM    6  O   UNL     1      -9.255   5.468  71.257  1.00  0.00    -0.144 OA 
BRANCH   5   7
HETATM    7  C   UNL     1     -11.490   6.199  70.685  1.00  0.00    -0.331 C  
BRANCH   7   8
HETATM    8  C   UNL     1     -11.699   7.412  71.591  1.00  0.00    -0.311 C  
BRANCH   8   9
HETATM    9  C   UNL     1     -12.633   8.463  70.998  1.00  0.00    -0.058 C  
BRANCH   9  10
HETATM   10  C   UNL     1     -12.119   9.865  71.175  1.00  0.00    -0.466 C  
HETATM   11  C   UNL     1     -11.406  10.562  70.276  1.00  0.00    -0.407 C  
BRANCH  11  12
HETATM   12  C   UNL     1     -10.918  10.046  68.951  1.00  0.00    -0.244 C  
BRANCH  12  13
HETATM   13  C   UNL     1     -10.126  11.090  68.153  1.00  0.00    -0.195 C  
HETATM   14  C   UNL     1      -8.906  10.555  67.394  1.00  0.00    -0.132 C  
HETATM   15  O   UNL     1      -9.156   9.271  66.832  1.00  0.00    -0.128 OA 
HETATM   16  C   UNL     1      -8.712  11.553  66.258  1.00  0.00    -0.159 C  
HETATM   17  C   UNL     1     -10.135  11.869  65.807  1.00  0.00    -0.241 C  
HETATM   18  H   UNL     1      -8.399   8.940  66.362  1.00  0.00     0.000 HD 
HETATM   19  O   UNL     1     -10.564  10.897  64.848  1.00  0.00    -0.302 OA 
HETATM   20  C   UNL     1     -11.017  11.772  67.076  1.00  0.00    -0.333 C  
HETATM   21  H   UNL     1     -11.450  11.093  64.567  1.00  0.00     0.000 HD 
BRANCH  20  22
HETATM   22  C   UNL     1     -11.575  13.071  67.630  1.00  0.00    -0.403 C  
HETATM   23  C   UNL     1     -11.205  13.678  68.773  1.00  0.00    -0.314 C  
BRANCH  23  24
HETATM   24  C   UNL     1     -11.791  14.941  69.367  1.00  0.00    -0.324 C  
HETATM   25  H   UNL     1     -13.010  15.399  70.832  1.00  0.00     0.000 HD 
HETATM   26  O   UNL     1     -12.642  14.606  70.459  1.00  0.00    -0.327 OA 
BRANCH  24  27
HETATM   27  C   UNL     1     -10.665  15.881  69.842  1.00  0.00    -0.334 C  
BRANCH  27  28
HETATM   28  O   UNL     1     -10.903  17.233  69.416  1.00  0.00    -0.152 OA 
BRANCH  28  29
HETATM   29  C   UNL     1     -10.016  17.691  68.475  1.00  0.00    -0.368 A  
HETATM   30  C   UNL     1     -10.227  18.822  67.681  1.00  0.00    -0.450 A  
HETATM   31  C   UNL     1      -9.261  19.223  66.754  1.00  0.00    -0.367 A  
HETATM   32  C   UNL     1      -8.077  18.501  66.623  1.00  0.00    -0.280 A  
HETATM   33  C   UNL     1      -7.840  17.374  67.420  1.00  0.00    -0.212 A  
HETATM   34  C   UNL     1      -6.558  16.591  67.278  1.00  0.00    -0.180 C  
HETATM   35  C   UNL     1      -8.815  16.984  68.355  1.00  0.00    -0.247 A  
HETATM   36  F   UNL     1      -5.737  17.070  66.299  1.00  0.00    -0.216 F  
HETATM   37  F   UNL     1      -6.776  15.283  66.968  1.00  0.00    -0.188 F  
HETATM   38  F   UNL     1      -5.813  16.590  68.417  1.00  0.00    -0.111 F  
ENDBRANCH  28  29
ENDBRANCH  27  28
ENDBRANCH  24  27
ENDBRANCH  23  24
ENDBRANCH  20  22
ENDBRANCH  12  13
ENDBRANCH  11  12
ENDBRANCH   9  10
ENDBRANCH   8   9
ENDBRANCH   7   8
ENDBRANCH   5   7
ENDBRANCH   4   5
ENDBRANCH   2   4
TORSDOF 13
ENDMDL
MODEL      216
REMARK 921   NORMALIZED FREE ENERGY PREDICTED BY IDOCK:   -5.00 KCAL/MOL
REMARK 922        TOTAL FREE ENERGY PREDICTED BY IDOCK:  -11.01 KCAL/MOL
REMARK 923 INTER-LIGAND FREE ENERGY PREDICTED BY IDOCK:   -9.73 KCAL/MOL
REMARK 924 INTRA-LIGAND FREE ENERGY PREDICTED BY IDOCK:   -1.28 KCAL/MOL
REMARK 927      BINDING AFFINITY PREDICTED BY RF-SCORE:    0.00 PKD
ROOT
HETATM    1  C   UNL     1     -14.189   7.819  71.625  1.00  0.00    -0.572 C  
HETATM    2  C   UNL     1     -12.766   7.333  71.874  1.00  0.00    -0.277 C  
HETATM    3  C   UNL     1     -12.089   6.949  70.562  1.00  0.00    -0.315 C  
ENDROOT
BRANCH   2   4
HETATM    4  O   UNL     1     -11.997   8.397  72.464  1.00  0.00    -0.393 OA 
BRANCH   4   5
HETATM    5  C   UNL     1     -10.652   8.180  72.503  1.00  0.00    -0.340 C  
HETATM    6  O   UNL     1     -10.095   7.354  73.213  1.00  0.00    -0.250 OA 
BRANCH   5   7
HETATM    7  C   UNL     1      -9.940   9.144  71.591  1.00  0.00    -0.319 C  
BRANCH   7   8
HETATM    8  C   UNL     1      -8.787   8.433  70.883  1.00  0.00    -0.185 C  
BRANCH   8   9
HETATM    9  C   UNL     1      -8.928   8.403  69.364  1.00  0.00    -0.153 C  
BRANCH   9  10
HETATM   10  C   UNL     1     -10.092   9.220  68.871  1.00  0.00    -0.207 C  
HETATM   11  C   UNL     1     -10.608   9.188  67.633  1.00  0.00    -0.307 C  
BRANCH  11  12
HETATM   12  C   UNL     1     -10.073   8.387  66.478  1.00  0.00    -0.317 C  
BRANCH  12  13
HETATM   13  C   UNL     1      -9.009   9.137  65.666  1.00  0.00    -0.249 C  
HETATM   14  C   UNL     1      -7.989   8.253  64.939  1.00  0.00    -0.144 C  
HETATM   15  O   UNL     1      -8.593   7.080  64.404  1.00  0.00    -0.343 OA 
HETATM   16  C   UNL     1      -7.508   9.121  63.782  1.00  0.00    -0.106 C  
HETATM   17  C   UNL     1      -8.776   9.821  63.302  1.00  0.00    -0.226 C  
HETATM   18  H   UNL     1      -7.961   6.533  63.954  1.00  0.00     0.000 HD 
HETATM   19  O   UNL     1      -9.460   8.987  62.361  1.00  0.00    -0.529 OA 
HETATM   20  C   UNL     1      -9.657  10.017  64.560  1.00  0.00    -0.346 C  
HETATM   21  H   UNL     1     -10.250   9.422  62.063  1.00  0.00     0.000 HD 
BRANCH  20  22
HETATM   22  C   UNL     1      -9.822  11.436  65.075  1.00  0.00    -0.304 C  
HETATM   23  C   UNL     1     -10.985  12.084  65.274  1.00  0.00    -0.356 C  
BRANCH  23  24
HETATM   24  C   UNL     1     -11.165  13.515  65.732  1.00  0.00    -0.297 C  
HETATM   25  H   UNL     1     -12.666  14.704  66.149  1.00  0.00     0.000 HD 
HETATM   26  O   UNL     1     -12.553  13.806  65.862  1.00  0.00    -0.472 OA 
BRANCH  24  27
HETATM   27  C   UNL     1     -10.449  13.741  67.079  1.00  0.00    -0.274 C  
BRANCH  27  28
HETATM   28  O   UNL     1      -9.388  14.702  66.949  1.00  0.00    -0.220 OA 
BRANCH  28  29
HETATM   29  C   UNL     1      -9.614  15.884  67.609  1.00  0.00    -0.221 A  
HETATM   30  C   UNL     1     -10.742  16.142  68.393  1.00  0.00    -0.298 A  
HETATM   31  C   UNL     1     -10.883  17.372  69.040  1.00  0.00     0.057 A  
HETATM   32  C   UNL     1      -9.895  18.345  68.914  1.00  0.00    -0.350 A  
HETATM   33  C   UNL     1      -8.750  18.100  68.146  1.00  0.00    -0.285 A  
HETATM   34  C   UNL     1      -7.679  19.154  68.007  1.00  0.00    -0.283 C  
HETATM   35  C   UNL     1      -8.614  16.855  67.504  1.00  0.00    -0.211 A  
HETATM   36  F   UNL     1      -7.980  20.319  68.650  1.00  0.00    -0.204 F  
HETATM   37  F   UNL     1      -7.450  19.499  66.710  1.00  0.00    -0.226 F  
HETATM   38  F   UNL     1      -6.479  18.755  68.509  1.00  0.00    -0.205 F  
ENDBRANCH  28  29
ENDBRANCH  27  28
ENDBRANCH  24  27
ENDBRANCH  23  24
ENDBRANCH  20  22
ENDBRANCH  12  13
ENDBRANCH  11  12
ENDBRANCH   9  10
ENDBRANCH   8   9
ENDBRANCH   7   8
ENDBRANCH   5   7
ENDBRANCH   4   5
ENDBRANCH   2   4
TORSDOF 13
ENDMDL
MODEL      217
REMARK 921   NORMALIZED FREE ENERGY PREDICTED BY IDOCK:   -4.99 KCAL/MOL
REMARK 922        TOTAL FREE ENERGY PREDICTED BY IDOCK:  -11.00 KCAL/MOL
REMARK 923 INTER-LIGAND FREE ENERGY PREDICTED BY IDOCK:   -9.50 KCAL/MOL
REMARK 924 INTRA-LIGAND FREE ENERGY PREDICTED BY IDOCK:   -1.50 KCAL/MOL
REMARK 927      BINDING AFFINITY PREDICTED BY RF-SCORE:    0.00 PKD
ROOT
HETATM    1  C   UNL     1     -10.230   6.719  74.238  1.00  0.00    -0.309 C  
HETATM    2  C   UNL     1      -9.981   5.807  73.042  1.00  0.00    -0.174 C  
HETATM    3  C   UNL     1     -11.063   4.736  72.945  1.00  0.00    -0.301 C  
ENDROOT
BRANCH   2   4
HETATM    4  O   UNL     1     -10.032   6.585  71.832  1.00  0.00    -0.178 OA 
BRANCH   4   5
HETATM    5  C   UNL     1     -11.266   6.677  71.260  1.00  0.00    -0.282 C  
HETATM    6  O   UNL     1     -12.245   7.192  71.782  1.00  0.00    -0.312 OA 
BRANCH   5   7
HETATM    7  C   UNL     1     -11.269   5.999  69.915  1.00  0.00    -0.438 C  
BRANCH   7   8
HETATM    8  C   UNL     1      -9.833   5.810  69.426  1.00  0.00    -0.219 C  
BRANCH   8   9
HETATM    9  C   UNL     1      -9.737   5.435  67.950  1.00  0.00    -0.165 C  
BRANCH   9  10
HETATM   10  C   UNL     1      -8.316   5.362  67.459  1.00  0.00    -0.103 C  
HETATM   11  C   UNL     1      -7.827   5.978  66.371  1.00  0.00    -0.104 C  
BRANCH  11  12
HETATM   12  C   UNL     1      -8.623   6.795  65.391  1.00  0.00    -0.057 C  
BRANCH  12  13
HETATM   13  C   UNL     1      -8.202   8.270  65.356  1.00  0.00    -0.146 C  
HETATM   14  C   UNL     1      -7.460   8.715  64.090  1.00  0.00    -0.110 C  
HETATM   15  O   UNL     1      -7.995   8.101  62.922  1.00  0.00    -0.147 OA 
HETATM   16  C   UNL     1      -7.725  10.214  64.015  1.00  0.00    -0.136 C  
HETATM   17  C   UNL     1      -9.184  10.345  64.441  1.00  0.00    -0.251 C  
HETATM   18  H   UNL     1      -7.535   8.377  62.138  1.00  0.00     0.000 HD 
HETATM   19  O   UNL     1     -10.036  10.162  63.306  1.00  0.00    -0.482 OA 
HETATM   20  C   UNL     1      -9.434   9.213  65.467  1.00  0.00    -0.276 C  
HETATM   21  H   UNL     1     -10.945  10.244  63.571  1.00  0.00     0.000 HD 
BRANCH  20  22
HETATM   22  C   UNL     1      -9.628   9.622  66.916  1.00  0.00    -0.217 C  
HETATM   23  C   UNL     1     -10.592   9.185  67.748  1.00  0.00    -0.289 C  
BRANCH  23  24
HETATM   24  C   UNL     1     -10.833   9.625  69.176  1.00  0.00    -0.190 C  
HETATM   25  H   UNL     1      -9.739  10.176  70.706  1.00  0.00     0.000 HD 
HETATM   26  O   UNL     1      -9.587   9.900  69.809  1.00  0.00    -0.212 OA 
BRANCH  24  27
HETATM   27  C   UNL     1     -11.731  10.879  69.206  1.00  0.00    -0.324 C  
BRANCH  27  28
HETATM   28  O   UNL     1     -12.505  10.935  70.416  1.00  0.00    -0.316 OA 
BRANCH  28  29
HETATM   29  C   UNL     1     -12.620  12.193  70.952  1.00  0.00    -0.247 A  
HETATM   30  C   UNL     1     -13.366  12.494  72.094  1.00  0.00    -0.540 A  
HETATM   31  C   UNL     1     -13.417  13.804  72.578  1.00  0.00    -0.682 A  
HETATM   32  C   UNL     1     -12.716  14.816  71.926  1.00  0.00    -0.396 A  
HETATM   33  C   UNL     1     -11.951  14.532  70.789  1.00  0.00    -0.388 A  
HETATM   34  C   UNL     1     -11.192  15.628  70.081  1.00  0.00    -0.336 C  
HETATM   35  C   UNL     1     -11.900  13.209  70.315  1.00  0.00    -0.299 A  
HETATM   36  F   UNL     1     -11.380  16.861  70.635  1.00  0.00    -0.267 F  
HETATM   37  F   UNL     1     -11.553  15.754  68.774  1.00  0.00    -0.316 F  
HETATM   38  F   UNL     1      -9.847  15.423  70.083  1.00  0.00    -0.286 F  
ENDBRANCH  28  29
ENDBRANCH  27  28
ENDBRANCH  24  27
ENDBRANCH  23  24
ENDBRANCH  20  22
ENDBRANCH  12  13
ENDBRANCH  11  12
ENDBRANCH   9  10
ENDBRANCH   8   9
ENDBRANCH   7   8
ENDBRANCH   5   7
ENDBRANCH   4   5
ENDBRANCH   2   4
TORSDOF 13
ENDMDL
MODEL      218
REMARK 921   NORMALIZED FREE ENERGY PREDICTED BY IDOCK:   -4.98 KCAL/MOL
REMARK 922        TOTAL FREE ENERGY PREDICTED BY IDOCK:  -10.99 KCAL/MOL
REMARK 923 INTER-LIGAND FREE ENERGY PREDICTED BY IDOCK:   -8.31 KCAL/MOL
REMARK 924 INTRA-LIGAND FREE ENERGY PREDICTED BY IDOCK:   -2.68 KCAL/MOL
REMARK 927      BINDING AFFINITY PREDICTED BY RF-SCORE:    0.00 PKD
ROOT
HETATM    1  C   UNL     1      -5.164  10.842  65.231  1.00  0.00    -0.144 C  
HETATM    2  C   UNL     1      -6.285  10.024  65.864  1.00  0.00    -0.085 C  
HETATM    3  C   UNL     1      -6.453   8.690  65.143  1.00  0.00    -0.064 C  
ENDROOT
BRANCH   2   4
HETATM    4  O   UNL     1      -5.949   9.737  67.233  1.00  0.00    -0.051 OA 
BRANCH   4   5
HETATM    5  C   UNL     1      -6.298  10.707  68.125  1.00  0.00    -0.058 C  
HETATM    6  O   UNL     1      -5.512  11.451  68.696  1.00  0.00    -0.043 OA 
BRANCH   5   7
HETATM    7  C   UNL     1      -7.786  10.695  68.355  1.00  0.00    -0.106 C  
BRANCH   7   8
HETATM    8  C   UNL     1      -8.350  12.105  68.179  1.00  0.00    -0.170 C  
BRANCH   8   9
HETATM    9  C   UNL     1      -9.004  12.335  66.820  1.00  0.00    -0.209 C  
BRANCH   9  10
HETATM   10  C   UNL     1     -10.463  11.968  66.807  1.00  0.00    -0.243 C  
HETATM   11  C   UNL     1     -11.481  12.771  67.157  1.00  0.00    -0.394 C  
BRANCH  11  12
HETATM   12  C   UNL     1     -11.351  14.166  67.704  1.00  0.00    -0.342 C  
BRANCH  12  13
HETATM   13  C   UNL     1     -11.236  14.204  69.233  1.00  0.00    -0.308 C  
HETATM   14  C   UNL     1     -11.040  15.596  69.846  1.00  0.00    -0.319 C  
HETATM   15  O   UNL     1     -11.808  16.584  69.166  1.00  0.00    -0.168 OA 
HETATM   16  C   UNL     1     -11.580  15.453  71.264  1.00  0.00    -0.440 C  
HETATM   17  C   UNL     1     -12.819  14.580  71.094  1.00  0.00    -0.338 C  
HETATM   18  H   UNL     1     -11.686  17.447  69.546  1.00  0.00     0.000 HD 
HETATM   19  O   UNL     1     -13.947  15.400  70.773  1.00  0.00    -0.823 OA 
HETATM   20  C   UNL     1     -12.513  13.630  69.911  1.00  0.00    -0.226 C  
HETATM   21  H   UNL     1     -14.719  14.856  70.667  1.00  0.00     0.000 HD 
BRANCH  20  22
HETATM   22  C   UNL     1     -12.295  12.164  70.239  1.00  0.00    -0.269 C  
HETATM   23  C   UNL     1     -12.587  11.553  71.402  1.00  0.00    -0.419 C  
BRANCH  23  24
HETATM   24  C   UNL     1     -12.324  10.107  71.765  1.00  0.00    -0.310 C  
HETATM   25  H   UNL     1     -13.162   8.370  71.414  1.00  0.00     0.000 HD 
HETATM   26  O   UNL     1     -13.327   9.278  71.186  1.00  0.00    -0.286 OA 
BRANCH  24  27
HETATM   27  C   UNL     1     -10.929   9.675  71.270  1.00  0.00    -0.329 C  
BRANCH  27  28
HETATM   28  O   UNL     1     -10.577   8.377  71.775  1.00  0.00    -0.239 OA 
BRANCH  28  29
HETATM   29  C   UNL     1     -10.386   7.427  70.803  1.00  0.00    -0.202 A  
HETATM   30  C   UNL     1     -10.240   6.061  71.057  1.00  0.00    -0.253 A  
HETATM   31  C   UNL     1     -10.062   5.162  70.002  1.00  0.00    -0.345 A  
HETATM   32  C   UNL     1     -10.037   5.625  68.688  1.00  0.00    -0.240 A  
HETATM   33  C   UNL     1     -10.196   6.988  68.411  1.00  0.00    -0.196 A  
HETATM   34  C   UNL     1     -10.168   7.490  66.989  1.00  0.00    -0.298 C  
HETATM   35  C   UNL     1     -10.383   7.883  69.481  1.00  0.00    -0.217 A  
HETATM   36  F   UNL     1      -9.934   6.507  66.072  1.00  0.00    -0.112 F  
HETATM   37  F   UNL     1      -9.198   8.424  66.783  1.00  0.00    -0.154 F  
HETATM   38  F   UNL     1     -11.339   8.074  66.613  1.00  0.00     0.085 F  
ENDBRANCH  28  29
ENDBRANCH  27  28
ENDBRANCH  24  27
ENDBRANCH  23  24
ENDBRANCH  20  22
ENDBRANCH  12  13
ENDBRANCH  11  12
ENDBRANCH   9  10
ENDBRANCH   8   9
ENDBRANCH   7   8
ENDBRANCH   5   7
ENDBRANCH   4   5
ENDBRANCH   2   4
TORSDOF 13
ENDMDL
MODEL      219
REMARK 921   NORMALIZED FREE ENERGY PREDICTED BY IDOCK:   -4.97 KCAL/MOL
REMARK 922        TOTAL FREE ENERGY PREDICTED BY IDOCK:  -10.97 KCAL/MOL
REMARK 923 INTER-LIGAND FREE ENERGY PREDICTED BY IDOCK:   -7.06 KCAL/MOL
REMARK 924 INTRA-LIGAND FREE ENERGY PREDICTED BY IDOCK:   -3.91 KCAL/MOL
REMARK 927      BINDING AFFINITY PREDICTED BY RF-SCORE:    0.00 PKD
ROOT
HETATM    1  C   UNL     1     -11.894  11.870  69.152  1.00  0.00    -0.371 C  
HETATM    2  C   UNL     1     -10.612  11.736  68.337  1.00  0.00    -0.216 C  
HETATM    3  C   UNL     1      -9.598  10.860  69.065  1.00  0.00    -0.170 C  
ENDROOT
BRANCH   2   4
HETATM    4  O   UNL     1     -10.912  11.101  67.081  1.00  0.00    -0.265 OA 
BRANCH   4   5
HETATM    5  C   UNL     1      -9.889  11.099  66.180  1.00  0.00    -0.225 C  
HETATM    6  O   UNL     1      -9.139  12.042  65.968  1.00  0.00    -0.191 OA 
BRANCH   5   7
HETATM    7  C   UNL     1      -9.849   9.790  65.437  1.00  0.00    -0.365 C  
BRANCH   7   8
HETATM    8  C   UNL     1      -9.357   8.681  66.367  1.00  0.00    -0.271 C  
BRANCH   8   9
HETATM    9  C   UNL     1     -10.477   7.802  66.915  1.00  0.00    -0.388 C  
BRANCH   9  10
HETATM   10  C   UNL     1     -10.000   6.434  67.319  1.00  0.00    -0.184 C  
HETATM   11  C   UNL     1     -10.412   5.741  68.393  1.00  0.00    -0.283 C  
BRANCH  11  12
HETATM   12  C   UNL     1     -11.372   6.234  69.440  1.00  0.00    -0.448 C  
BRANCH  12  13
HETATM   13  C   UNL     1     -10.894   7.512  70.141  1.00  0.00    -0.259 C  
HETATM   14  C   UNL     1     -12.002   8.471  70.592  1.00  0.00    -0.035 C  
HETATM   15  O   UNL     1     -13.136   7.770  71.091  1.00  0.00    -0.517 OA 
HETATM   16  C   UNL     1     -11.370   9.250  71.740  1.00  0.00    -0.437 C  
HETATM   17  C   UNL     1     -10.566   8.195  72.494  1.00  0.00    -0.340 C  
HETATM   18  H   UNL     1     -13.823   8.365  71.370  1.00  0.00     0.000 HD 
HETATM   19  O   UNL     1     -11.409   7.531  73.440  1.00  0.00    -0.611 OA 
HETATM   20  C   UNL     1     -10.083   7.183  71.427  1.00  0.00    -0.196 C  
HETATM   21  H   UNL     1     -10.908   6.874  73.909  1.00  0.00     0.000 HD 
BRANCH  20  22
HETATM   22  C   UNL     1      -8.600   7.176  71.101  1.00  0.00    -0.129 C  
HETATM   23  C   UNL     1      -7.991   7.879  70.128  1.00  0.00    -0.107 C  
BRANCH  23  24
HETATM   24  C   UNL     1      -6.525   7.840  69.754  1.00  0.00    -0.034 C  
HETATM   25  H   UNL     1      -4.855   7.237  70.583  1.00  0.00     0.000 HD 
HETATM   26  O   UNL     1      -5.775   7.261  70.818  1.00  0.00    -0.027 OA 
BRANCH  24  27
HETATM   27  C   UNL     1      -6.323   7.027  68.460  1.00  0.00    -0.035 C  
BRANCH  27  28
HETATM   28  O   UNL     1      -5.764   5.734  68.740  1.00  0.00    -0.010 OA 
BRANCH  28  29
HETATM   29  C   UNL     1      -6.607   4.685  68.471  1.00  0.00    -0.046 A  
HETATM   30  C   UNL     1      -6.729   4.077  67.219  1.00  0.00    -0.047 A  
HETATM   31  C   UNL     1      -7.606   3.003  67.039  1.00  0.00    -0.074 A  
HETATM   32  C   UNL     1      -8.357   2.529  68.112  1.00  0.00    -0.088 A  
HETATM   33  C   UNL     1      -8.238   3.115  69.378  1.00  0.00    -0.075 A  
HETATM   34  C   UNL     1      -9.053   2.603  70.540  1.00  0.00    -0.115 C  
HETATM   35  C   UNL     1      -7.346   4.190  69.550  1.00  0.00    -0.050 A  
HETATM   36  F   UNL     1      -9.901   1.589  70.201  1.00  0.00    -0.160 F  
HETATM   37  F   UNL     1      -9.837   3.568  71.095  1.00  0.00    -0.235 F  
HETATM   38  F   UNL     1      -8.281   2.117  71.550  1.00  0.00    -0.051 F  
ENDBRANCH  28  29
ENDBRANCH  27  28
ENDBRANCH  24  27
ENDBRANCH  23  24
ENDBRANCH  20  22
ENDBRANCH  12  13
ENDBRANCH  11  12
ENDBRANCH   9  10
ENDBRANCH   8   9
ENDBRANCH   7   8
ENDBRANCH   5   7
ENDBRANCH   4   5
ENDBRANCH   2   4
TORSDOF 13
ENDMDL
MODEL      220
REMARK 921   NORMALIZED FREE ENERGY PREDICTED BY IDOCK:   -4.95 KCAL/MOL
REMARK 922        TOTAL FREE ENERGY PREDICTED BY IDOCK:  -10.94 KCAL/MOL
REMARK 923 INTER-LIGAND FREE ENERGY PREDICTED BY IDOCK:   -9.05 KCAL/MOL
REMARK 924 INTRA-LIGAND FREE ENERGY PREDICTED BY IDOCK:   -1.89 KCAL/MOL
REMARK 927      BINDING AFFINITY PREDICTED BY RF-SCORE:    0.00 PKD
ROOT
HETATM    1  C   UNL     1      -7.526   4.716  63.040  1.00  0.00    -0.053 C  
HETATM    2  C   UNL     1      -8.384   5.204  64.202  1.00  0.00    -0.137 C  
HETATM    3  C   UNL     1      -8.824   4.035  65.077  1.00  0.00    -0.128 C  
ENDROOT
BRANCH   2   4
HETATM    4  O   UNL     1      -7.609   6.094  65.024  1.00  0.00    -0.081 OA 
BRANCH   4   5
HETATM    5  C   UNL     1      -8.100   7.362  65.120  1.00  0.00    -0.129 C  
HETATM    6  O   UNL     1      -8.193   8.151  64.189  1.00  0.00    -0.150 OA 
BRANCH   5   7
HETATM    7  C   UNL     1      -8.460   7.677  66.547  1.00  0.00    -0.133 C  
BRANCH   7   8
HETATM    8  C   UNL     1      -9.952   7.432  66.773  1.00  0.00    -0.300 C  
BRANCH   8   9
HETATM    9  C   UNL     1     -10.392   7.640  68.220  1.00  0.00    -0.238 C  
BRANCH   9  10
HETATM   10  C   UNL     1      -9.308   7.313  69.211  1.00  0.00    -0.154 C  
HETATM   11  C   UNL     1      -9.340   6.319  70.113  1.00  0.00    -0.165 C  
BRANCH  11  12
HETATM   12  C   UNL     1     -10.497   5.391  70.357  1.00  0.00    -0.345 C  
BRANCH  12  13
HETATM   13  C   UNL     1     -11.020   5.447  71.799  1.00  0.00    -0.198 C  
HETATM   14  C   UNL     1     -10.622   4.266  72.692  1.00  0.00    -0.140 C  
HETATM   15  O   UNL     1      -9.288   3.838  72.436  1.00  0.00    -0.112 OA 
HETATM   16  C   UNL     1     -10.687   4.834  74.104  1.00  0.00    -0.329 C  
HETATM   17  C   UNL     1     -10.112   6.240  73.957  1.00  0.00    -0.289 C  
HETATM   18  H   UNL     1      -9.042   3.106  72.990  1.00  0.00     0.000 HD 
HETATM   19  O   UNL     1      -8.686   6.191  74.067  1.00  0.00    -0.119 OA 
HETATM   20  C   UNL     1     -10.508   6.716  72.537  1.00  0.00    -0.231 C  
HETATM   21  H   UNL     1      -8.328   7.066  73.975  1.00  0.00     0.000 HD 
BRANCH  20  22
HETATM   22  C   UNL     1     -11.553   7.813  72.443  1.00  0.00    -0.410 C  
HETATM   23  C   UNL     1     -12.493   7.943  71.487  1.00  0.00    -0.341 C  
BRANCH  23  24
HETATM   24  C   UNL     1     -13.504   9.060  71.347  1.00  0.00    -0.277 C  
HETATM   25  H   UNL     1     -14.958   9.814  72.424  1.00  0.00     0.000 HD 
HETATM   26  O   UNL     1     -14.322   9.113  72.512  1.00  0.00    -0.529 OA 
BRANCH  24  27
HETATM   27  C   UNL     1     -12.787  10.409  71.141  1.00  0.00    -0.414 C  
BRANCH  27  28
HETATM   28  O   UNL     1     -12.601  10.690  69.744  1.00  0.00    -0.244 OA 
BRANCH  28  29
HETATM   29  C   UNL     1     -11.948  11.870  69.489  1.00  0.00    -0.292 A  
HETATM   30  C   UNL     1     -11.055  12.062  68.432  1.00  0.00    -0.290 A  
HETATM   31  C   UNL     1     -10.446  13.305  68.241  1.00  0.00    -0.257 A  
HETATM   32  C   UNL     1     -10.733  14.363  69.100  1.00  0.00    -0.254 A  
HETATM   33  C   UNL     1     -11.636  14.195  70.156  1.00  0.00    -0.292 A  
HETATM   34  C   UNL     1     -11.947  15.340  71.088  1.00  0.00    -0.345 C  
HETATM   35  C   UNL     1     -12.251  12.943  70.335  1.00  0.00    -0.381 A  
HETATM   36  F   UNL     1     -11.238  16.473  70.810  1.00  0.00    -0.382 F  
HETATM   37  F   UNL     1     -11.673  15.045  72.389  1.00  0.00    -0.421 F  
HETATM   38  F   UNL     1     -13.257  15.707  71.054  1.00  0.00    -0.493 F  
ENDBRANCH  28  29
ENDBRANCH  27  28
ENDBRANCH  24  27
ENDBRANCH  23  24
ENDBRANCH  20  22
ENDBRANCH  12  13
ENDBRANCH  11  12
ENDBRANCH   9  10
ENDBRANCH   8   9
ENDBRANCH   7   8
ENDBRANCH   5   7
ENDBRANCH   4   5
ENDBRANCH   2   4
TORSDOF 13
ENDMDL
MODEL      221
REMARK 921   NORMALIZED FREE ENERGY PREDICTED BY IDOCK:   -4.95 KCAL/MOL
REMARK 922        TOTAL FREE ENERGY PREDICTED BY IDOCK:  -10.94 KCAL/MOL
REMARK 923 INTER-LIGAND FREE ENERGY PREDICTED BY IDOCK:   -9.04 KCAL/MOL
REMARK 924 INTRA-LIGAND FREE ENERGY PREDICTED BY IDOCK:   -1.90 KCAL/MOL
REMARK 927      BINDING AFFINITY PREDICTED BY RF-SCORE:    0.00 PKD
ROOT
HETATM    1  C   UNL     1      -5.248  10.712  65.142  1.00  0.00    -0.147 C  
HETATM    2  C   UNL     1      -6.387   9.874  65.713  1.00  0.00    -0.084 C  
HETATM    3  C   UNL     1      -6.491   8.537  64.985  1.00  0.00    -0.060 C  
ENDROOT
BRANCH   2   4
HETATM    4  O   UNL     1      -6.121   9.593  67.099  1.00  0.00    -0.061 OA 
BRANCH   4   5
HETATM    5  C   UNL     1      -6.540  10.555  67.970  1.00  0.00    -0.060 C  
HETATM    6  O   UNL     1      -5.806  11.341  68.554  1.00  0.00    -0.043 OA 
BRANCH   5   7
HETATM    7  C   UNL     1      -8.032  10.474  68.159  1.00  0.00    -0.111 C  
BRANCH   7   8
HETATM    8  C   UNL     1      -8.651  11.863  68.000  1.00  0.00    -0.168 C  
BRANCH   8   9
HETATM    9  C   UNL     1      -9.391  12.054  66.679  1.00  0.00    -0.221 C  
BRANCH   9  10
HETATM   10  C   UNL     1     -10.864  11.771  66.791  1.00  0.00    -0.312 C  
HETATM   11  C   UNL     1     -11.807  12.645  67.176  1.00  0.00    -0.399 C  
BRANCH  11  12
HETATM   12  C   UNL     1     -11.561  14.052  67.645  1.00  0.00    -0.385 C  
BRANCH  12  13
HETATM   13  C   UNL     1     -11.321  14.149  69.158  1.00  0.00    -0.318 C  
HETATM   14  C   UNL     1     -10.930  15.538  69.676  1.00  0.00    -0.286 C  
HETATM   15  O   UNL     1     -11.640  16.572  69.002  1.00  0.00    -0.216 OA 
HETATM   16  C   UNL     1     -11.366  15.522  71.136  1.00  0.00    -0.442 C  
HETATM   17  C   UNL     1     -12.701  14.784  71.108  1.00  0.00    -0.334 C  
HETATM   18  H   UNL     1     -11.397  17.432  69.324  1.00  0.00     0.000 HD 
HETATM   19  O   UNL     1     -13.757  15.708  70.827  1.00  0.00    -0.843 OA 
HETATM   20  C   UNL     1     -12.593  13.751  69.959  1.00  0.00    -0.207 C  
HETATM   21  H   UNL     1     -14.588  15.248  70.809  1.00  0.00     0.000 HD 
BRANCH  20  22
HETATM   22  C   UNL     1     -12.506  12.287  70.351  1.00  0.00    -0.221 C  
HETATM   23  C   UNL     1     -12.917  11.744  71.512  1.00  0.00    -0.446 C  
BRANCH  23  24
HETATM   24  C   UNL     1     -12.787  10.298  71.940  1.00  0.00    -0.426 C  
HETATM   25  H   UNL     1     -13.793   8.636  71.684  1.00  0.00     0.000 HD 
HETATM   26  O   UNL     1     -13.874   9.543  71.415  1.00  0.00    -0.310 OA 
BRANCH  24  27
HETATM   27  C   UNL     1     -11.448   9.712  71.448  1.00  0.00    -0.385 C  
BRANCH  27  28
HETATM   28  O   UNL     1     -11.145   8.477  72.116  1.00  0.00    -0.321 OA 
BRANCH  28  29
HETATM   29  C   UNL     1     -10.974   7.407  71.273  1.00  0.00    -0.242 A  
HETATM   30  C   UNL     1     -11.305   7.417  69.915  1.00  0.00    -0.098 A  
HETATM   31  C   UNL     1     -11.085   6.284  69.128  1.00  0.00    -0.457 A  
HETATM   32  C   UNL     1     -10.525   5.140  69.692  1.00  0.00    -0.262 A  
HETATM   33  C   UNL     1     -10.173   5.115  71.047  1.00  0.00    -0.295 A  
HETATM   34  C   UNL     1      -9.569   3.876  71.659  1.00  0.00    -0.162 C  
HETATM   35  C   UNL     1     -10.392   6.264  71.829  1.00  0.00    -0.240 A  
HETATM   36  F   UNL     1      -9.463   2.835  70.783  1.00  0.00    -0.186 F  
HETATM   37  F   UNL     1     -10.297   3.401  72.707  1.00  0.00    -0.204 F  
HETATM   38  F   UNL     1      -8.312   4.084  72.137  1.00  0.00    -0.091 F  
ENDBRANCH  28  29
ENDBRANCH  27  28
ENDBRANCH  24  27
ENDBRANCH  23  24
ENDBRANCH  20  22
ENDBRANCH  12  13
ENDBRANCH  11  12
ENDBRANCH   9  10
ENDBRANCH   8   9
ENDBRANCH   7   8
ENDBRANCH   5   7
ENDBRANCH   4   5
ENDBRANCH   2   4
TORSDOF 13
ENDMDL
MODEL      222
REMARK 921   NORMALIZED FREE ENERGY PREDICTED BY IDOCK:   -4.94 KCAL/MOL
REMARK 922        TOTAL FREE ENERGY PREDICTED BY IDOCK:  -10.92 KCAL/MOL
REMARK 923 INTER-LIGAND FREE ENERGY PREDICTED BY IDOCK:   -8.51 KCAL/MOL
REMARK 924 INTRA-LIGAND FREE ENERGY PREDICTED BY IDOCK:   -2.41 KCAL/MOL
REMARK 927      BINDING AFFINITY PREDICTED BY RF-SCORE:    0.00 PKD
ROOT
HETATM    1  C   UNL     1      -5.896  12.248  67.204  1.00  0.00    -0.111 C  
HETATM    2  C   UNL     1      -5.509  10.948  66.508  1.00  0.00    -0.092 C  
HETATM    3  C   UNL     1      -5.217   9.854  67.531  1.00  0.00    -0.035 C  
ENDROOT
BRANCH   2   4
HETATM    4  O   UNL     1      -6.608  10.499  65.695  1.00  0.00    -0.124 OA 
BRANCH   4   5
HETATM    5  C   UNL     1      -6.253   9.967  64.492  1.00  0.00    -0.118 C  
HETATM    6  O   UNL     1      -5.621  10.554  63.624  1.00  0.00    -0.148 OA 
BRANCH   5   7
HETATM    7  C   UNL     1      -6.799   8.571  64.356  1.00  0.00    -0.070 C  
BRANCH   7   8
HETATM    8  C   UNL     1      -8.298   8.569  64.656  1.00  0.00    -0.156 C  
BRANCH   8   9
HETATM    9  C   UNL     1      -8.651   7.942  66.001  1.00  0.00    -0.166 C  
BRANCH   9  10
HETATM   10  C   UNL     1     -10.018   8.337  66.488  1.00  0.00    -0.320 C  
HETATM   11  C   UNL     1     -10.318   9.448  67.179  1.00  0.00    -0.326 C  
BRANCH  11  12
HETATM   12  C   UNL     1      -9.331  10.473  67.665  1.00  0.00    -0.160 C  
BRANCH  12  13
HETATM   13  C   UNL     1     -10.001  11.723  68.251  1.00  0.00    -0.200 C  
HETATM   14  C   UNL     1      -9.509  13.061  67.686  1.00  0.00    -0.201 C  
HETATM   15  O   UNL     1      -9.254  12.982  66.288  1.00  0.00    -0.411 OA 
HETATM   16  C   UNL     1     -10.681  14.009  67.913  1.00  0.00    -0.246 C  
HETATM   17  C   UNL     1     -11.904  13.156  67.593  1.00  0.00    -0.359 C  
HETATM   18  H   UNL     1      -8.950  13.811  65.938  1.00  0.00     0.000 HD 
HETATM   19  O   UNL     1     -12.170  13.201  66.187  1.00  0.00    -0.419 OA 
HETATM   20  C   UNL     1     -11.536  11.710  68.006  1.00  0.00    -0.383 C  
HETATM   21  H   UNL     1     -12.932  12.669  65.988  1.00  0.00     0.000 HD 
BRANCH  20  22
HETATM   22  C   UNL     1     -12.237  11.139  69.226  1.00  0.00    -0.295 C  
HETATM   23  C   UNL     1     -11.685  10.910  70.432  1.00  0.00    -0.444 C  
BRANCH  23  24
HETATM   24  C   UNL     1     -12.355  10.291  71.640  1.00  0.00    -0.349 C  
HETATM   25  H   UNL     1     -14.175   9.787  72.163  1.00  0.00     0.000 HD 
HETATM   26  O   UNL     1     -13.755  10.175  71.404  1.00  0.00    -0.204 OA 
BRANCH  24  27
HETATM   27  C   UNL     1     -11.751   8.903  71.935  1.00  0.00    -0.369 C  
BRANCH  27  28
HETATM   28  O   UNL     1     -12.337   7.893  71.097  1.00  0.00    -0.298 OA 
BRANCH  28  29
HETATM   29  C   UNL     1     -11.496   6.849  70.802  1.00  0.00    -0.335 A  
HETATM   30  C   UNL     1     -10.908   6.642  69.552  1.00  0.00    -0.339 A  
HETATM   31  C   UNL     1     -10.053   5.557  69.346  1.00  0.00    -0.306 A  
HETATM   32  C   UNL     1      -9.775   4.678  70.391  1.00  0.00    -0.292 A  
HETATM   33  C   UNL     1     -10.343   4.876  71.655  1.00  0.00    -0.241 A  
HETATM   34  C   UNL     1     -10.044   3.925  72.787  1.00  0.00    -0.161 C  
HETATM   35  C   UNL     1     -11.196   5.977  71.854  1.00  0.00    -0.338 A  
HETATM   36  F   UNL     1      -9.237   2.886  72.423  1.00  0.00    -0.109 F  
HETATM   37  F   UNL     1     -11.168   3.354  73.301  1.00  0.00    -0.276 F  
HETATM   38  F   UNL     1      -9.417   4.530  73.832  1.00  0.00    -0.115 F  
ENDBRANCH  28  29
ENDBRANCH  27  28
ENDBRANCH  24  27
ENDBRANCH  23  24
ENDBRANCH  20  22
ENDBRANCH  12  13
ENDBRANCH  11  12
ENDBRANCH   9  10
ENDBRANCH   8   9
ENDBRANCH   7   8
ENDBRANCH   5   7
ENDBRANCH   4   5
ENDBRANCH   2   4
TORSDOF 13
ENDMDL
MODEL      223
REMARK 921   NORMALIZED FREE ENERGY PREDICTED BY IDOCK:   -4.93 KCAL/MOL
REMARK 922        TOTAL FREE ENERGY PREDICTED BY IDOCK:  -10.90 KCAL/MOL
REMARK 923 INTER-LIGAND FREE ENERGY PREDICTED BY IDOCK:   -8.48 KCAL/MOL
REMARK 924 INTRA-LIGAND FREE ENERGY PREDICTED BY IDOCK:   -2.41 KCAL/MOL
REMARK 927      BINDING AFFINITY PREDICTED BY RF-SCORE:    0.00 PKD
ROOT
HETATM    1  C   UNL     1      -7.477   5.048  71.359  1.00  0.00    -0.086 C  
HETATM    2  C   UNL     1      -8.953   4.866  71.023  1.00  0.00    -0.134 C  
HETATM    3  C   UNL     1      -9.523   3.648  71.743  1.00  0.00    -0.210 C  
ENDROOT
BRANCH   2   4
HETATM    4  O   UNL     1      -9.688   6.018  71.472  1.00  0.00    -0.163 OA 
BRANCH   4   5
HETATM    5  C   UNL     1     -10.955   6.118  70.979  1.00  0.00    -0.293 C  
HETATM    6  O   UNL     1     -11.245   6.167  69.791  1.00  0.00    -0.384 OA 
BRANCH   5   7
HETATM    7  C   UNL     1     -11.947   6.221  72.107  1.00  0.00    -0.338 C  
BRANCH   7   8
HETATM    8  C   UNL     1     -12.605   7.600  72.096  1.00  0.00    -0.218 C  
BRANCH   8   9
HETATM    9  C   UNL     1     -11.624   8.746  72.324  1.00  0.00    -0.391 C  
BRANCH   9  10
HETATM   10  C   UNL     1     -12.126  10.059  71.787  1.00  0.00    -0.323 C  
HETATM   11  C   UNL     1     -12.096  10.448  70.503  1.00  0.00    -0.423 C  
BRANCH  11  12
HETATM   12  C   UNL     1     -11.484   9.678  69.366  1.00  0.00     0.048 C  
BRANCH  12  13
HETATM   13  C   UNL     1     -10.104  10.207  68.954  1.00  0.00    -0.211 C  
HETATM   14  C   UNL     1      -8.943   9.811  69.874  1.00  0.00    -0.229 C  
HETATM   15  O   UNL     1      -9.079   8.476  70.349  1.00  0.00    -0.143 OA 
HETATM   16  C   UNL     1      -7.716   9.884  68.973  1.00  0.00    -0.089 C  
HETATM   17  C   UNL     1      -8.207   9.311  67.647  1.00  0.00    -0.115 C  
HETATM   18  H   UNL     1      -8.359   8.231  70.919  1.00  0.00     0.000 HD 
HETATM   19  O   UNL     1      -8.083   7.885  67.662  1.00  0.00    -0.121 OA 
HETATM   20  C   UNL     1      -9.702   9.701  67.540  1.00  0.00    -0.195 C  
HETATM   21  H   UNL     1      -8.389   7.528  66.836  1.00  0.00     0.000 HD 
BRANCH  20  22
HETATM   22  C   UNL     1     -10.071  10.748  66.504  1.00  0.00    -0.277 C  
HETATM   23  C   UNL     1      -9.964  12.082  66.642  1.00  0.00    -0.219 C  
BRANCH  23  24
HETATM   24  C   UNL     1     -10.379  13.140  65.642  1.00  0.00    -0.284 C  
HETATM   25  H   UNL     1     -10.618  13.255  63.700  1.00  0.00     0.000 HD 
HETATM   26  O   UNL     1     -10.357  12.591  64.327  1.00  0.00    -0.341 OA 
BRANCH  24  27
HETATM   27  C   UNL     1     -11.791  13.665  65.973  1.00  0.00    -0.385 C  
BRANCH  27  28
HETATM   28  O   UNL     1     -12.182  13.299  67.306  1.00  0.00    -0.321 OA 
BRANCH  28  29
HETATM   29  C   UNL     1     -12.034  14.302  68.231  1.00  0.00    -0.311 A  
HETATM   30  C   UNL     1     -11.417  15.528  67.969  1.00  0.00    -0.313 A  
HETATM   31  C   UNL     1     -11.322  16.498  68.970  1.00  0.00    -0.181 A  
HETATM   32  C   UNL     1     -11.851  16.250  70.235  1.00  0.00     0.000 A  
HETATM   33  C   UNL     1     -12.486  15.034  70.513  1.00  0.00    -0.425 A  
HETATM   34  C   UNL     1     -13.058  14.763  71.883  1.00  0.00    -0.334 C  
HETATM   35  C   UNL     1     -12.584  14.067  69.496  1.00  0.00     0.007 A  
HETATM   36  F   UNL     1     -12.844  15.778  72.769  1.00  0.00    -0.403 F  
HETATM   37  F   UNL     1     -12.526  13.651  72.462  1.00  0.00    -0.211 F  
HETATM   38  F   UNL     1     -14.405  14.569  71.863  1.00  0.00    -0.470 F  
ENDBRANCH  28  29
ENDBRANCH  27  28
ENDBRANCH  24  27
ENDBRANCH  23  24
ENDBRANCH  20  22
ENDBRANCH  12  13
ENDBRANCH  11  12
ENDBRANCH   9  10
ENDBRANCH   8   9
ENDBRANCH   7   8
ENDBRANCH   5   7
ENDBRANCH   4   5
ENDBRANCH   2   4
TORSDOF 13
ENDMDL
MODEL      224
REMARK 921   NORMALIZED FREE ENERGY PREDICTED BY IDOCK:   -4.92 KCAL/MOL
REMARK 922        TOTAL FREE ENERGY PREDICTED BY IDOCK:  -10.89 KCAL/MOL
REMARK 923 INTER-LIGAND FREE ENERGY PREDICTED BY IDOCK:   -9.73 KCAL/MOL
REMARK 924 INTRA-LIGAND FREE ENERGY PREDICTED BY IDOCK:   -1.15 KCAL/MOL
REMARK 927      BINDING AFFINITY PREDICTED BY RF-SCORE:    0.00 PKD
ROOT
HETATM    1  C   UNL     1     -13.853   9.532  72.547  1.00  0.00    -0.306 C  
HETATM    2  C   UNL     1     -13.194   9.800  71.197  1.00  0.00    -0.331 C  
HETATM    3  C   UNL     1     -12.336  11.059  71.256  1.00  0.00    -0.426 C  
ENDROOT
BRANCH   2   4
HETATM    4  O   UNL     1     -12.329   8.699  70.865  1.00  0.00    -0.202 OA 
BRANCH   4   5
HETATM    5  C   UNL     1     -12.561   7.554  71.566  1.00  0.00    -0.355 C  
HETATM    6  O   UNL     1     -13.611   6.927  71.559  1.00  0.00    -0.301 OA 
BRANCH   5   7
HETATM    7  C   UNL     1     -11.359   7.200  72.401  1.00  0.00    -0.312 C  
BRANCH   7   8
HETATM    8  C   UNL     1     -11.167   5.684  72.419  1.00  0.00    -0.336 C  
BRANCH   8   9
HETATM    9  C   UNL     1     -10.252   5.172  71.310  1.00  0.00    -0.292 C  
BRANCH   9  10
HETATM   10  C   UNL     1     -10.766   5.496  69.934  1.00  0.00    -0.358 C  
HETATM   11  C   UNL     1     -10.047   6.021  68.929  1.00  0.00    -0.220 C  
BRANCH  11  12
HETATM   12  C   UNL     1      -8.610   6.456  69.010  1.00  0.00    -0.124 C  
BRANCH  12  13
HETATM   13  C   UNL     1      -7.982   6.716  67.635  1.00  0.00    -0.115 C  
HETATM   14  C   UNL     1      -7.179   5.550  67.045  1.00  0.00    -0.078 C  
HETATM   15  O   UNL     1      -7.793   4.295  67.319  1.00  0.00    -0.094 OA 
HETATM   16  C   UNL     1      -7.226   5.795  65.541  1.00  0.00    -0.074 C  
HETATM   17  C   UNL     1      -8.652   6.278  65.296  1.00  0.00    -0.061 C  
HETATM   18  H   UNL     1      -7.295   3.573  66.953  1.00  0.00     0.000 HD 
HETATM   19  O   UNL     1      -9.518   5.152  65.116  1.00  0.00    -0.333 OA 
HETATM   20  C   UNL     1      -9.065   7.053  66.571  1.00  0.00    -0.183 C  
HETATM   21  H   UNL     1     -10.406   5.452  64.964  1.00  0.00     0.000 HD 
BRANCH  20  22
HETATM   22  C   UNL     1      -9.204   8.560  66.450  1.00  0.00    -0.251 C  
HETATM   23  C   UNL     1     -10.181   9.318  66.980  1.00  0.00    -0.331 C  
BRANCH  23  24
HETATM   24  C   UNL     1     -10.365  10.812  66.822  1.00  0.00    -0.243 C  
HETATM   25  H   UNL     1     -10.814  12.051  65.371  1.00  0.00     0.000 HD 
HETATM   26  O   UNL     1     -10.699  11.113  65.470  1.00  0.00    -0.251 OA 
BRANCH  24  27
HETATM   27  C   UNL     1     -11.472  11.319  67.767  1.00  0.00    -0.275 C  
BRANCH  27  28
HETATM   28  O   UNL     1     -11.930  12.625  67.378  1.00  0.00    -0.398 OA 
BRANCH  28  29
HETATM   29  C   UNL     1     -11.375  13.654  68.097  1.00  0.00    -0.288 A  
HETATM   30  C   UNL     1     -10.255  14.383  67.688  1.00  0.00    -0.229 A  
HETATM   31  C   UNL     1      -9.765  15.425  68.479  1.00  0.00    -0.204 A  
HETATM   32  C   UNL     1     -10.397  15.748  69.678  1.00  0.00    -0.290 A  
HETATM   33  C   UNL     1     -11.529  15.039  70.098  1.00  0.00    -0.314 A  
HETATM   34  C   UNL     1     -12.213  15.386  71.397  1.00  0.00    -0.371 C  
HETATM   35  C   UNL     1     -12.019  13.997  69.290  1.00  0.00    -0.396 A  
HETATM   36  F   UNL     1     -11.591  16.387  72.085  1.00  0.00    -0.509 F  
HETATM   37  F   UNL     1     -12.272  14.331  72.257  1.00  0.00    -0.344 F  
HETATM   38  F   UNL     1     -13.497  15.801  71.222  1.00  0.00    -0.537 F  
ENDBRANCH  28  29
ENDBRANCH  27  28
ENDBRANCH  24  27
ENDBRANCH  23  24
ENDBRANCH  20  22
ENDBRANCH  12  13
ENDBRANCH  11  12
ENDBRANCH   9  10
ENDBRANCH   8   9
ENDBRANCH   7   8
ENDBRANCH   5   7
ENDBRANCH   4   5
ENDBRANCH   2   4
TORSDOF 13
ENDMDL
MODEL      225
REMARK 921   NORMALIZED FREE ENERGY PREDICTED BY IDOCK:   -4.92 KCAL/MOL
REMARK 922        TOTAL FREE ENERGY PREDICTED BY IDOCK:  -10.88 KCAL/MOL
REMARK 923 INTER-LIGAND FREE ENERGY PREDICTED BY IDOCK:   -8.16 KCAL/MOL
REMARK 924 INTRA-LIGAND FREE ENERGY PREDICTED BY IDOCK:   -2.72 KCAL/MOL
REMARK 927      BINDING AFFINITY PREDICTED BY RF-SCORE:    0.00 PKD
ROOT
HETATM    1  C   UNL     1     -12.265  13.122  63.811  1.00  0.00    -0.528 C  
HETATM    2  C   UNL     1     -11.861  14.282  64.714  1.00  0.00    -0.429 C  
HETATM    3  C   UNL     1     -12.246  15.617  64.083  1.00  0.00     0.048 C  
ENDROOT
BRANCH   2   4
HETATM    4  O   UNL     1     -12.562  14.176  65.966  1.00  0.00    -0.478 OA 
BRANCH   4   5
HETATM    5  C   UNL     1     -11.768  14.210  67.073  1.00  0.00    -0.405 C  
HETATM    6  O   UNL     1     -11.053  15.150  67.396  1.00  0.00    -0.311 OA 
BRANCH   5   7
HETATM    7  C   UNL     1     -11.848  12.902  67.814  1.00  0.00    -0.391 C  
BRANCH   7   8
HETATM    8  C   UNL     1     -10.902  11.885  67.174  1.00  0.00    -0.301 C  
BRANCH   8   9
HETATM    9  C   UNL     1     -11.161  10.448  67.618  1.00  0.00    -0.361 C  
BRANCH   9  10
HETATM   10  C   UNL     1      -9.955   9.563  67.459  1.00  0.00    -0.235 C  
HETATM   11  C   UNL     1      -9.854   8.288  67.866  1.00  0.00    -0.207 C  
BRANCH  11  12
HETATM   12  C   UNL     1     -10.902   7.524  68.628  1.00  0.00    -0.044 C  
BRANCH  12  13
HETATM   13  C   UNL     1     -10.633   7.476  70.138  1.00  0.00    -0.241 C  
HETATM   14  C   UNL     1     -11.154   8.675  70.940  1.00  0.00    -0.264 C  
HETATM   15  O   UNL     1     -12.416   9.124  70.457  1.00  0.00    -0.487 OA 
HETATM   16  C   UNL     1     -11.341   8.123  72.348  1.00  0.00    -0.456 C  
HETATM   17  C   UNL     1     -11.910   6.727  72.117  1.00  0.00    -0.290 C  
HETATM   18  H   UNL     1     -12.738   9.867  70.954  1.00  0.00     0.000 HD 
HETATM   19  O   UNL     1     -13.333   6.802  71.983  1.00  0.00    -0.526 OA 
HETATM   20  C   UNL     1     -11.289   6.226  70.790  1.00  0.00    -0.397 C  
HETATM   21  H   UNL     1     -13.688   5.933  71.839  1.00  0.00     0.000 HD 
BRANCH  20  22
HETATM   22  C   UNL     1     -10.264   5.109  70.885  1.00  0.00    -0.299 C  
HETATM   23  C   UNL     1      -9.091   5.154  71.542  1.00  0.00    -0.169 C  
BRANCH  23  24
HETATM   24  C   UNL     1      -8.035   4.071  71.599  1.00  0.00    -0.074 C  
HETATM   25  H   UNL     1      -7.952   2.138  71.287  1.00  0.00     0.000 HD 
HETATM   26  O   UNL     1      -8.615   2.817  71.251  1.00  0.00    -0.062 OA 
BRANCH  24  27
HETATM   27  C   UNL     1      -6.875   4.402  70.639  1.00  0.00    -0.036 C  
BRANCH  27  28
HETATM   28  O   UNL     1      -6.996   5.737  70.118  1.00  0.00    -0.060 OA 
BRANCH  28  29
HETATM   29  C   UNL     1      -7.053   5.804  68.749  1.00  0.00    -0.073 A  
HETATM   30  C   UNL     1      -6.135   6.499  67.958  1.00  0.00    -0.027 A  
HETATM   31  C   UNL     1      -6.263   6.502  66.567  1.00  0.00    -0.040 A  
HETATM   32  C   UNL     1      -7.304   5.804  65.960  1.00  0.00    -0.077 A  
HETATM   33  C   UNL     1      -8.226   5.088  66.734  1.00  0.00    -0.107 A  
HETATM   34  C   UNL     1      -9.355   4.332  66.078  1.00  0.00    -0.163 C  
HETATM   35  C   UNL     1      -8.083   5.085  68.134  1.00  0.00    -0.086 A  
HETATM   36  F   UNL     1      -9.382   4.471  64.721  1.00  0.00    -0.147 F  
HETATM   37  F   UNL     1     -10.579   4.738  66.514  1.00  0.00    -0.283 F  
HETATM   38  F   UNL     1      -9.297   2.993  66.311  1.00  0.00    -0.155 F  
ENDBRANCH  28  29
ENDBRANCH  27  28
ENDBRANCH  24  27
ENDBRANCH  23  24
ENDBRANCH  20  22
ENDBRANCH  12  13
ENDBRANCH  11  12
ENDBRANCH   9  10
ENDBRANCH   8   9
ENDBRANCH   7   8
ENDBRANCH   5   7
ENDBRANCH   4   5
ENDBRANCH   2   4
TORSDOF 13
ENDMDL
MODEL      226
REMARK 921   NORMALIZED FREE ENERGY PREDICTED BY IDOCK:   -4.92 KCAL/MOL
REMARK 922        TOTAL FREE ENERGY PREDICTED BY IDOCK:  -10.88 KCAL/MOL
REMARK 923 INTER-LIGAND FREE ENERGY PREDICTED BY IDOCK:   -9.41 KCAL/MOL
REMARK 924 INTRA-LIGAND FREE ENERGY PREDICTED BY IDOCK:   -1.47 KCAL/MOL
REMARK 927      BINDING AFFINITY PREDICTED BY RF-SCORE:    0.00 PKD
ROOT
HETATM    1  C   UNL     1     -10.813   3.074  73.577  1.00  0.00    -0.312 C  
HETATM    2  C   UNL     1     -10.461   4.446  73.013  1.00  0.00    -0.183 C  
HETATM    3  C   UNL     1      -9.730   4.311  71.681  1.00  0.00    -0.243 C  
ENDROOT
BRANCH   2   4
HETATM    4  O   UNL     1     -11.672   5.185  72.769  1.00  0.00    -0.239 OA 
BRANCH   4   5
HETATM    5  C   UNL     1     -11.505   6.530  72.623  1.00  0.00    -0.186 C  
HETATM    6  O   UNL     1     -10.877   7.247  73.391  1.00  0.00    -0.374 OA 
BRANCH   5   7
HETATM    7  C   UNL     1     -12.253   7.021  71.412  1.00  0.00    -0.407 C  
BRANCH   7   8
HETATM    8  C   UNL     1     -13.651   7.486  71.820  1.00  0.00    -0.397 C  
BRANCH   8   9
HETATM    9  C   UNL     1     -13.915   8.959  71.520  1.00  0.00    -0.365 C  
BRANCH   9  10
HETATM   10  C   UNL     1     -12.766   9.848  71.912  1.00  0.00    -0.501 C  
HETATM   11  C   UNL     1     -11.900  10.433  71.071  1.00  0.00    -0.458 C  
BRANCH  11  12
HETATM   12  C   UNL     1     -11.864  10.249  69.579  1.00  0.00    -0.148 C  
BRANCH  12  13
HETATM   13  C   UNL     1     -10.457   9.953  69.042  1.00  0.00    -0.227 C  
HETATM   14  C   UNL     1     -10.127   8.470  68.837  1.00  0.00    -0.203 C  
HETATM   15  O   UNL     1     -11.245   7.745  68.335  1.00  0.00    -0.355 OA 
HETATM   16  C   UNL     1      -9.037   8.479  67.772  1.00  0.00    -0.143 C  
HETATM   17  C   UNL     1      -9.488   9.566  66.801  1.00  0.00    -0.167 C  
HETATM   18  H   UNL     1     -11.040   6.826  68.208  1.00  0.00     0.000 HD 
HETATM   19  O   UNL     1     -10.390   9.010  65.840  1.00  0.00    -0.299 OA 
HETATM   20  C   UNL     1     -10.227  10.623  67.658  1.00  0.00    -0.229 C  
HETATM   21  H   UNL     1     -10.671   9.688  65.235  1.00  0.00     0.000 HD 
BRANCH  20  22
HETATM   22  C   UNL     1      -9.536  11.962  67.853  1.00  0.00    -0.193 C  
HETATM   23  C   UNL     1     -10.103  13.096  68.304  1.00  0.00    -0.247 C  
BRANCH  23  24
HETATM   24  C   UNL     1      -9.443  14.450  68.450  1.00  0.00    -0.207 C  
HETATM   25  H   UNL     1      -8.779  15.565  69.919  1.00  0.00     0.000 HD 
HETATM   26  O   UNL     1      -9.193  14.715  69.827  1.00  0.00     0.209 OA 
BRANCH  24  27
HETATM   27  C   UNL     1      -8.123  14.492  67.654  1.00  0.00    -0.179 C  
BRANCH  27  28
HETATM   28  O   UNL     1      -8.164  15.502  66.633  1.00  0.00    -0.253 OA 
BRANCH  28  29
HETATM   29  C   UNL     1      -9.334  15.531  65.915  1.00  0.00    -0.319 A  
HETATM   30  C   UNL     1     -10.077  16.688  65.669  1.00  0.00    -0.244 A  
HETATM   31  C   UNL     1     -11.252  16.625  64.915  1.00  0.00    -0.065 A  
HETATM   32  C   UNL     1     -11.685  15.406  64.399  1.00  0.00    -0.261 A  
HETATM   33  C   UNL     1     -10.947  14.237  64.622  1.00  0.00    -0.379 A  
HETATM   34  C   UNL     1     -11.416  12.916  64.064  1.00  0.00    -0.422 C  
HETATM   35  C   UNL     1      -9.761  14.313  65.375  1.00  0.00    -0.135 A  
HETATM   36  F   UNL     1     -12.603  13.001  63.397  1.00  0.00    -0.492 F  
HETATM   37  F   UNL     1     -11.604  11.976  65.032  1.00  0.00    -0.361 F  
HETATM   38  F   UNL     1     -10.534  12.375  63.180  1.00  0.00    -0.423 F  
ENDBRANCH  28  29
ENDBRANCH  27  28
ENDBRANCH  24  27
ENDBRANCH  23  24
ENDBRANCH  20  22
ENDBRANCH  12  13
ENDBRANCH  11  12
ENDBRANCH   9  10
ENDBRANCH   8   9
ENDBRANCH   7   8
ENDBRANCH   5   7
ENDBRANCH   4   5
ENDBRANCH   2   4
TORSDOF 13
ENDMDL
MODEL      227
REMARK 921   NORMALIZED FREE ENERGY PREDICTED BY IDOCK:   -4.91 KCAL/MOL
REMARK 922        TOTAL FREE ENERGY PREDICTED BY IDOCK:  -10.86 KCAL/MOL
REMARK 923 INTER-LIGAND FREE ENERGY PREDICTED BY IDOCK:  -10.04 KCAL/MOL
REMARK 924 INTRA-LIGAND FREE ENERGY PREDICTED BY IDOCK:   -0.82 KCAL/MOL
REMARK 927      BINDING AFFINITY PREDICTED BY RF-SCORE:    0.00 PKD
ROOT
HETATM    1  C   UNL     1     -12.724  15.078  73.654  1.00  0.00    -0.650 C  
HETATM    2  C   UNL     1     -13.086  15.597  72.267  1.00  0.00    -0.456 C  
HETATM    3  C   UNL     1     -11.837  16.046  71.515  1.00  0.00    -0.554 C  
ENDROOT
BRANCH   2   4
HETATM    4  O   UNL     1     -13.692  14.537  71.506  1.00  0.00    -0.366 OA 
BRANCH   4   5
HETATM    5  C   UNL     1     -12.893  13.453  71.294  1.00  0.00    -0.323 C  
HETATM    6  O   UNL     1     -11.918  13.433  70.555  1.00  0.00    -0.326 OA 
BRANCH   5   7
HETATM    7  C   UNL     1     -13.415  12.262  72.054  1.00  0.00    -0.418 C  
BRANCH   7   8
HETATM    8  C   UNL     1     -12.752  10.986  71.538  1.00  0.00    -0.521 C  
BRANCH   8   9
HETATM    9  C   UNL     1     -13.177   9.729  72.292  1.00  0.00    -0.468 C  
BRANCH   9  10
HETATM   10  C   UNL     1     -13.011   8.476  71.477  1.00  0.00    -0.328 C  
HETATM   11  C   UNL     1     -12.128   7.493  71.714  1.00  0.00    -0.340 C  
BRANCH  11  12
HETATM   12  C   UNL     1     -11.084   7.493  72.797  1.00  0.00    -0.416 C  
BRANCH  12  13
HETATM   13  C   UNL     1      -9.653   7.384  72.252  1.00  0.00    -0.186 C  
HETATM   14  C   UNL     1      -8.537   7.584  73.285  1.00  0.00    -0.157 C  
HETATM   15  O   UNL     1      -8.867   6.996  74.539  1.00  0.00    -0.190 OA 
HETATM   16  C   UNL     1      -7.350   6.833  72.694  1.00  0.00    -0.086 C  
HETATM   17  C   UNL     1      -7.976   5.575  72.101  1.00  0.00    -0.107 C  
HETATM   18  H   UNL     1      -8.175   7.121  75.178  1.00  0.00     0.000 HD 
HETATM   19  O   UNL     1      -8.080   4.566  73.111  1.00  0.00    -0.094 OA 
HETATM   20  C   UNL     1      -9.392   5.985  71.626  1.00  0.00    -0.160 C  
HETATM   21  H   UNL     1      -8.471   3.783  72.742  1.00  0.00     0.000 HD 
BRANCH  20  22
HETATM   22  C   UNL     1      -9.627   6.049  70.128  1.00  0.00    -0.192 C  
HETATM   23  C   UNL     1      -8.937   6.790  69.241  1.00  0.00    -0.137 C  
BRANCH  23  24
HETATM   24  C   UNL     1      -9.195   6.908  67.754  1.00  0.00    -0.119 C  
HETATM   25  H   UNL     1     -10.522   6.239  66.476  1.00  0.00     0.000 HD 
HETATM   26  O   UNL     1     -10.360   6.165  67.410  1.00  0.00    -0.158 OA 
BRANCH  24  27
HETATM   27  C   UNL     1      -9.375   8.387  67.357  1.00  0.00    -0.148 C  
BRANCH  27  28
HETATM   28  O   UNL     1      -9.421   8.541  65.929  1.00  0.00    -0.208 OA 
BRANCH  28  29
HETATM   29  C   UNL     1      -9.735   9.809  65.509  1.00  0.00    -0.312 A  
HETATM   30  C   UNL     1      -9.549  10.273  64.204  1.00  0.00    -0.376 A  
HETATM   31  C   UNL     1      -9.910  11.578  63.862  1.00  0.00    -0.326 A  
HETATM   32  C   UNL     1     -10.466  12.423  64.820  1.00  0.00    -0.333 A  
HETATM   33  C   UNL     1     -10.674  11.972  66.129  1.00  0.00    -0.312 A  
HETATM   34  C   UNL     1     -11.274  12.887  67.168  1.00  0.00    -0.289 C  
HETATM   35  C   UNL     1     -10.315  10.653  66.461  1.00  0.00    -0.299 A  
HETATM   36  F   UNL     1     -11.526  14.144  66.702  1.00  0.00    -0.316 F  
HETATM   37  F   UNL     1     -10.465  13.051  68.251  1.00  0.00    -0.220 F  
HETATM   38  F   UNL     1     -12.461  12.428  67.651  1.00  0.00    -0.148 F  
ENDBRANCH  28  29
ENDBRANCH  27  28
ENDBRANCH  24  27
ENDBRANCH  23  24
ENDBRANCH  20  22
ENDBRANCH  12  13
ENDBRANCH  11  12
ENDBRANCH   9  10
ENDBRANCH   8   9
ENDBRANCH   7   8
ENDBRANCH   5   7
ENDBRANCH   4   5
ENDBRANCH   2   4
TORSDOF 13
ENDMDL
MODEL      228
REMARK 921   NORMALIZED FREE ENERGY PREDICTED BY IDOCK:   -4.90 KCAL/MOL
REMARK 922        TOTAL FREE ENERGY PREDICTED BY IDOCK:  -10.85 KCAL/MOL
REMARK 923 INTER-LIGAND FREE ENERGY PREDICTED BY IDOCK:   -8.32 KCAL/MOL
REMARK 924 INTRA-LIGAND FREE ENERGY PREDICTED BY IDOCK:   -2.53 KCAL/MOL
REMARK 927      BINDING AFFINITY PREDICTED BY RF-SCORE:    0.00 PKD
ROOT
HETATM    1  C   UNL     1      -6.996   3.615  70.184  1.00  0.00    -0.038 C  
HETATM    2  C   UNL     1      -8.519   3.655  70.257  1.00  0.00    -0.056 C  
HETATM    3  C   UNL     1      -9.065   2.362  70.855  1.00  0.00    -0.180 C  
ENDROOT
BRANCH   2   4
HETATM    4  O   UNL     1      -8.925   4.736  71.115  1.00  0.00    -0.125 OA 
BRANCH   4   5
HETATM    5  C   UNL     1     -10.188   5.199  70.895  1.00  0.00    -0.229 C  
HETATM    6  O   UNL     1     -10.659   5.461  69.796  1.00  0.00    -0.309 OA 
BRANCH   5   7
HETATM    7  C   UNL     1     -10.906   5.401  72.203  1.00  0.00    -0.275 C  
BRANCH   7   8
HETATM    8  C   UNL     1     -10.956   6.891  72.542  1.00  0.00    -0.294 C  
BRANCH   8   9
HETATM    9  C   UNL     1      -9.634   7.615  72.308  1.00  0.00    -0.215 C  
BRANCH   9  10
HETATM   10  C   UNL     1      -9.819   9.057  71.922  1.00  0.00    -0.283 C  
HETATM   11  C   UNL     1     -10.030   9.520  70.680  1.00  0.00    -0.342 C  
BRANCH  11  12
HETATM   12  C   UNL     1     -10.043   8.691  69.425  1.00  0.00    -0.204 C  
BRANCH  12  13
HETATM   13  C   UNL     1      -8.927   9.070  68.442  1.00  0.00    -0.133 C  
HETATM   14  C   UNL     1      -7.645   8.236  68.546  1.00  0.00    -0.100 C  
HETATM   15  O   UNL     1      -7.928   6.865  68.805  1.00  0.00    -0.116 OA 
HETATM   16  C   UNL     1      -7.019   8.348  67.161  1.00  0.00    -0.075 C  
HETATM   17  C   UNL     1      -8.214   8.268  66.215  1.00  0.00    -0.112 C  
HETATM   18  H   UNL     1      -7.133   6.348  68.869  1.00  0.00     0.000 HD 
HETATM   19  O   UNL     1      -8.519   6.897  65.940  1.00  0.00    -0.135 OA 
HETATM   20  C   UNL     1      -9.398   8.923  66.967  1.00  0.00    -0.194 C  
HETATM   21  H   UNL     1      -9.264   6.846  65.352  1.00  0.00     0.000 HD 
BRANCH  20  22
HETATM   22  C   UNL     1      -9.883  10.268  66.455  1.00  0.00    -0.265 C  
HETATM   23  C   UNL     1      -9.776  11.451  67.088  1.00  0.00    -0.200 C  
BRANCH  23  24
HETATM   24  C   UNL     1     -10.304  12.789  66.617  1.00  0.00    -0.242 C  
HETATM   25  H   UNL     1     -11.005  13.542  64.949  1.00  0.00     0.000 HD 
HETATM   26  O   UNL     1     -10.675  12.702  65.245  1.00  0.00    -0.277 OA 
BRANCH  24  27
HETATM   27  C   UNL     1     -11.517  13.216  67.467  1.00  0.00    -0.328 C  
BRANCH  27  28
HETATM   28  O   UNL     1     -12.159  12.078  68.065  1.00  0.00    -0.514 OA 
BRANCH  28  29
HETATM   29  C   UNL     1     -12.466  12.237  69.393  1.00  0.00     0.277 A  
HETATM   30  C   UNL     1     -12.839  11.194  70.245  1.00  0.00    -0.129 A  
HETATM   31  C   UNL     1     -13.122  11.448  71.589  1.00  0.00    -0.498 A  
HETATM   32  C   UNL     1     -13.026  12.745  72.090  1.00  0.00    -0.344 A  
HETATM   33  C   UNL     1     -12.639  13.801  71.257  1.00  0.00    -0.444 A  
HETATM   34  C   UNL     1     -12.536  15.206  71.798  1.00  0.00    -0.345 C  
HETATM   35  C   UNL     1     -12.348  13.533  69.907  1.00  0.00    -0.287 A  
HETATM   36  F   UNL     1     -12.893  15.308  73.111  1.00  0.00    -0.408 F  
HETATM   37  F   UNL     1     -13.334  16.084  71.130  1.00  0.00    -0.488 F  
HETATM   38  F   UNL     1     -11.274  15.709  71.719  1.00  0.00    -0.413 F  
ENDBRANCH  28  29
ENDBRANCH  27  28
ENDBRANCH  24  27
ENDBRANCH  23  24
ENDBRANCH  20  22
ENDBRANCH  12  13
ENDBRANCH  11  12
ENDBRANCH   9  10
ENDBRANCH   8   9
ENDBRANCH   7   8
ENDBRANCH   5   7
ENDBRANCH   4   5
ENDBRANCH   2   4
TORSDOF 13
ENDMDL
MODEL      229
REMARK 921   NORMALIZED FREE ENERGY PREDICTED BY IDOCK:   -4.90 KCAL/MOL
REMARK 922        TOTAL FREE ENERGY PREDICTED BY IDOCK:  -10.84 KCAL/MOL
REMARK 923 INTER-LIGAND FREE ENERGY PREDICTED BY IDOCK:   -8.67 KCAL/MOL
REMARK 924 INTRA-LIGAND FREE ENERGY PREDICTED BY IDOCK:   -2.16 KCAL/MOL
REMARK 927      BINDING AFFINITY PREDICTED BY RF-SCORE:    0.00 PKD
ROOT
HETATM    1  C   UNL     1     -10.710   6.436  68.269  1.00  0.00    -0.351 C  
HETATM    2  C   UNL     1     -10.358   7.723  69.007  1.00  0.00    -0.211 C  
HETATM    3  C   UNL     1     -10.407   7.511  70.517  1.00  0.00    -0.217 C  
ENDROOT
BRANCH   2   4
HETATM    4  O   UNL     1      -9.016   8.113  68.667  1.00  0.00    -0.137 OA 
BRANCH   4   5
HETATM    5  C   UNL     1      -8.889   9.388  68.200  1.00  0.00    -0.124 C  
HETATM    6  O   UNL     1      -8.308  10.294  68.780  1.00  0.00    -0.110 OA 
BRANCH   5   7
HETATM    7  C   UNL     1      -9.620   9.539  66.892  1.00  0.00    -0.217 C  
BRANCH   7   8
HETATM    8  C   UNL     1      -8.984  10.659  66.068  1.00  0.00    -0.189 C  
BRANCH   8   9
HETATM    9  C   UNL     1      -9.934  11.817  65.776  1.00  0.00    -0.269 C  
BRANCH   9  10
HETATM   10  C   UNL     1     -11.282  11.641  66.421  1.00  0.00    -0.349 C  
HETATM   11  C   UNL     1     -11.625  12.047  67.653  1.00  0.00    -0.392 C  
BRANCH  11  12
HETATM   12  C   UNL     1     -10.704  12.687  68.655  1.00  0.00    -0.269 C  
BRANCH  12  13
HETATM   13  C   UNL     1     -10.984  14.182  68.861  1.00  0.00    -0.280 C  
HETATM   14  C   UNL     1     -12.401  14.529  69.333  1.00  0.00    -0.177 C  
HETATM   15  O   UNL     1     -12.891  13.579  70.273  1.00  0.00    -0.120 OA 
HETATM   16  C   UNL     1     -12.235  15.869  70.040  1.00  0.00    -0.213 C  
HETATM   17  C   UNL     1     -10.917  15.721  70.794  1.00  0.00    -0.281 C  
HETATM   18  H   UNL     1     -13.770  13.794  70.565  1.00  0.00     0.000 HD 
HETATM   19  O   UNL     1     -11.156  15.107  72.065  1.00  0.00    -0.529 OA 
HETATM   20  C   UNL     1     -10.031  14.794  69.926  1.00  0.00     0.186 C  
HETATM   21  H   UNL     1     -10.335  15.014  72.534  1.00  0.00     0.000 HD 
BRANCH  20  22
HETATM   22  C   UNL     1      -8.838  15.428  69.233  1.00  0.00    -0.258 C  
HETATM   23  C   UNL     1      -7.540  15.168  69.476  1.00  0.00    -0.207 C  
BRANCH  23  24
HETATM   24  C   UNL     1      -6.341  15.831  68.835  1.00  0.00    -0.116 C  
HETATM   25  H   UNL     1      -4.394  15.608  68.873  1.00  0.00     0.000 HD 
HETATM   26  O   UNL     1      -5.147  15.191  69.275  1.00  0.00    -0.092 OA 
BRANCH  24  27
HETATM   27  C   UNL     1      -6.445  15.757  67.298  1.00  0.00    -0.104 C  
BRANCH  27  28
HETATM   28  O   UNL     1      -5.934  16.951  66.684  1.00  0.00    -0.215 OA 
BRANCH  28  29
HETATM   29  C   UNL     1      -6.755  18.044  66.807  1.00  0.00    -0.190 A  
HETATM   30  C   UNL     1      -6.302  19.344  67.049  1.00  0.00    -0.195 A  
HETATM   31  C   UNL     1      -7.211  20.400  67.147  1.00  0.00    -0.347 A  
HETATM   32  C   UNL     1      -8.575  20.163  66.996  1.00  0.00    -0.408 A  
HETATM   33  C   UNL     1      -9.048  18.871  66.738  1.00  0.00    -0.323 A  
HETATM   34  C   UNL     1     -10.526  18.612  66.576  1.00  0.00    -0.420 C  
HETATM   35  C   UNL     1      -8.123  17.815  66.633  1.00  0.00    -0.288 A  
HETATM   36  F   UNL     1     -11.292  19.728  66.750  1.00  0.00    -0.464 F  
HETATM   37  F   UNL     1     -10.998  17.698  67.468  1.00  0.00    -0.349 F  
HETATM   38  F   UNL     1     -10.844  18.135  65.342  1.00  0.00    -0.448 F  
ENDBRANCH  28  29
ENDBRANCH  27  28
ENDBRANCH  24  27
ENDBRANCH  23  24
ENDBRANCH  20  22
ENDBRANCH  12  13
ENDBRANCH  11  12
ENDBRANCH   9  10
ENDBRANCH   8   9
ENDBRANCH   7   8
ENDBRANCH   5   7
ENDBRANCH   4   5
ENDBRANCH   2   4
TORSDOF 13
ENDMDL
MODEL      230
REMARK 921   NORMALIZED FREE ENERGY PREDICTED BY IDOCK:   -4.88 KCAL/MOL
REMARK 922        TOTAL FREE ENERGY PREDICTED BY IDOCK:  -10.81 KCAL/MOL
REMARK 923 INTER-LIGAND FREE ENERGY PREDICTED BY IDOCK:   -8.98 KCAL/MOL
REMARK 924 INTRA-LIGAND FREE ENERGY PREDICTED BY IDOCK:   -1.83 KCAL/MOL
REMARK 927      BINDING AFFINITY PREDICTED BY RF-SCORE:    0.00 PKD
ROOT
HETATM    1  C   UNL     1     -10.621  18.077  67.741  1.00  0.00    -0.409 C  
HETATM    2  C   UNL     1     -10.052  17.680  66.384  1.00  0.00    -0.356 C  
HETATM    3  C   UNL     1      -8.531  17.797  66.380  1.00  0.00    -0.270 C  
ENDROOT
BRANCH   2   4
HETATM    4  O   UNL     1     -10.381  16.305  66.114  1.00  0.00    -0.314 OA 
BRANCH   4   5
HETATM    5  C   UNL     1     -10.978  16.083  64.909  1.00  0.00    -0.384 C  
HETATM    6  O   UNL     1     -11.481  16.948  64.205  1.00  0.00    -1.174 OA 
BRANCH   5   7
HETATM    7  C   UNL     1     -10.983  14.611  64.592  1.00  0.00    -0.340 C  
BRANCH   7   8
HETATM    8  C   UNL     1     -11.673  13.840  65.718  1.00  0.00    -0.365 C  
BRANCH   8   9
HETATM    9  C   UNL     1     -11.429  12.335  65.665  1.00  0.00    -0.416 C  
BRANCH   9  10
HETATM   10  C   UNL     1     -11.691  11.656  66.981  1.00  0.00    -0.176 C  
HETATM   11  C   UNL     1     -11.187  12.021  68.170  1.00  0.00    -0.316 C  
BRANCH  11  12
HETATM   12  C   UNL     1     -10.202  13.134  68.402  1.00  0.00    -0.247 C  
BRANCH  12  13
HETATM   13  C   UNL     1      -8.803  12.822  67.854  1.00  0.00    -0.186 C  
HETATM   14  C   UNL     1      -8.011  14.031  67.341  1.00  0.00    -0.175 C  
HETATM   15  O   UNL     1      -8.214  15.180  68.158  1.00  0.00    -0.138 OA 
HETATM   16  C   UNL     1      -6.555  13.598  67.468  1.00  0.00    -0.122 C  
HETATM   17  C   UNL     1      -6.516  12.841  68.792  1.00  0.00    -0.085 C  
HETATM   18  H   UNL     1      -7.723  15.928  67.839  1.00  0.00     0.000 HD 
HETATM   19  O   UNL     1      -6.311  13.762  69.868  1.00  0.00    -0.164 OA 
HETATM   20  C   UNL     1      -7.903  12.168  68.940  1.00  0.00     0.070 C  
HETATM   21  H   UNL     1      -6.287  13.290  70.693  1.00  0.00     0.000 HD 
BRANCH  20  22
HETATM   22  C   UNL     1      -7.957  10.657  68.799  1.00  0.00    -0.135 C  
HETATM   23  C   UNL     1      -8.265   9.968  67.685  1.00  0.00    -0.114 C  
BRANCH  23  24
HETATM   24  C   UNL     1      -8.379   8.466  67.542  1.00  0.00    -0.129 C  
HETATM   25  H   UNL     1      -7.295   6.900  68.007  1.00  0.00     0.000 HD 
HETATM   26  O   UNL     1      -7.224   7.844  68.097  1.00  0.00    -0.085 OA 
BRANCH  24  27
HETATM   27  C   UNL     1      -9.648   7.955  68.253  1.00  0.00    -0.156 C  
BRANCH  27  28
HETATM   28  O   UNL     1     -10.404   9.042  68.812  1.00  0.00    -0.207 OA 
BRANCH  28  29
HETATM   29  C   UNL     1     -10.911   8.791  70.063  1.00  0.00    -0.223 A  
HETATM   30  C   UNL     1     -11.998   9.468  70.620  1.00  0.00    -0.266 A  
HETATM   31  C   UNL     1     -12.455   9.136  71.898  1.00  0.00    -0.459 A  
HETATM   32  C   UNL     1     -11.832   8.121  72.620  1.00  0.00    -0.389 A  
HETATM   33  C   UNL     1     -10.751   7.420  72.074  1.00  0.00    -0.254 A  
HETATM   34  C   UNL     1     -10.074   6.321  72.855  1.00  0.00    -0.183 C  
HETATM   35  C   UNL     1     -10.304   7.756  70.783  1.00  0.00    -0.206 A  
HETATM   36  F   UNL     1     -10.595   6.147  74.105  1.00  0.00    -0.265 F  
HETATM   37  F   UNL     1      -8.745   6.552  73.040  1.00  0.00    -0.125 F  
HETATM   38  F   UNL     1     -10.165   5.108  72.245  1.00  0.00    -0.211 F  
ENDBRANCH  28  29
ENDBRANCH  27  28
ENDBRANCH  24  27
ENDBRANCH  23  24
ENDBRANCH  20  22
ENDBRANCH  12  13
ENDBRANCH  11  12
ENDBRANCH   9  10
ENDBRANCH   8   9
ENDBRANCH   7   8
ENDBRANCH   5   7
ENDBRANCH   4   5
ENDBRANCH   2   4
TORSDOF 13
ENDMDL
MODEL      231
REMARK 921   NORMALIZED FREE ENERGY PREDICTED BY IDOCK:   -4.88 KCAL/MOL
REMARK 922        TOTAL FREE ENERGY PREDICTED BY IDOCK:  -10.81 KCAL/MOL
REMARK 923 INTER-LIGAND FREE ENERGY PREDICTED BY IDOCK:   -9.49 KCAL/MOL
REMARK 924 INTRA-LIGAND FREE ENERGY PREDICTED BY IDOCK:   -1.32 KCAL/MOL
REMARK 927      BINDING AFFINITY PREDICTED BY RF-SCORE:    0.00 PKD
ROOT
HETATM    1  C   UNL     1      -6.655   5.605  63.292  1.00  0.00    -0.032 C  
HETATM    2  C   UNL     1      -6.931   4.951  64.642  1.00  0.00    -0.050 C  
HETATM    3  C   UNL     1      -5.786   4.022  65.036  1.00  0.00    -0.022 C  
ENDROOT
BRANCH   2   4
HETATM    4  O   UNL     1      -7.029   5.971  65.653  1.00  0.00    -0.058 OA 
BRANCH   4   5
HETATM    5  C   UNL     1      -7.958   5.731  66.621  1.00  0.00    -0.102 C  
HETATM    6  O   UNL     1      -8.904   4.963  66.512  1.00  0.00    -0.112 OA 
BRANCH   5   7
HETATM    7  C   UNL     1      -7.689   6.593  67.827  1.00  0.00    -0.107 C  
BRANCH   7   8
HETATM    8  C   UNL     1      -8.874   6.521  68.790  1.00  0.00    -0.125 C  
BRANCH   8   9
HETATM    9  C   UNL     1      -9.928   7.596  68.542  1.00  0.00    -0.190 C  
BRANCH   9  10
HETATM   10  C   UNL     1      -9.414   8.986  68.794  1.00  0.00    -0.148 C  
HETATM   11  C   UNL     1      -9.601   9.705  69.913  1.00  0.00    -0.260 C  
BRANCH  11  12
HETATM   12  C   UNL     1     -10.427   9.285  71.098  1.00  0.00    -0.401 C  
BRANCH  12  13
HETATM   13  C   UNL     1     -11.935   9.296  70.814  1.00  0.00    -0.269 C  
HETATM   14  C   UNL     1     -12.621   7.925  70.839  1.00  0.00     0.013 C  
HETATM   15  O   UNL     1     -12.098   7.093  71.869  1.00  0.00    -0.300 OA 
HETATM   16  C   UNL     1     -14.075   8.247  71.166  1.00  0.00    -0.179 C  
HETATM   17  C   UNL     1     -13.975   9.356  72.208  1.00  0.00    -0.297 C  
HETATM   18  H   UNL     1     -12.524   6.243  71.885  1.00  0.00     0.000 HD 
HETATM   19  O   UNL     1     -13.834   8.782  73.511  1.00  0.00    -0.989 OA 
HETATM   20  C   UNL     1     -12.701  10.161  71.854  1.00  0.00    -0.493 C  
HETATM   21  H   UNL     1     -13.771   9.473  74.161  1.00  0.00     0.000 HD 
BRANCH  20  22
HETATM   22  C   UNL     1     -12.899  11.561  71.300  1.00  0.00    -0.463 C  
HETATM   23  C   UNL     1     -13.176  12.671  72.009  1.00  0.00    -0.531 C  
BRANCH  23  24
HETATM   24  C   UNL     1     -13.432  14.060  71.467  1.00  0.00    -0.328 C  
HETATM   25  H   UNL     1     -13.247  15.902  72.112  1.00  0.00     0.000 HD 
HETATM   26  O   UNL     1     -13.086  15.030  72.452  1.00  0.00    -0.321 OA 
BRANCH  24  27
HETATM   27  C   UNL     1     -12.612  14.294  70.182  1.00  0.00    -0.282 C  
BRANCH  27  28
HETATM   28  O   UNL     1     -11.614  15.309  70.380  1.00  0.00    -0.261 OA 
BRANCH  28  29
HETATM   29  C   UNL     1     -10.997  15.724  69.227  1.00  0.00    -0.281 A  
HETATM   30  C   UNL     1     -10.799  14.913  68.106  1.00  0.00    -0.256 A  
HETATM   31  C   UNL     1     -10.172  15.425  66.968  1.00  0.00    -0.262 A  
HETATM   32  C   UNL     1      -9.746  16.751  66.942  1.00  0.00    -0.263 A  
HETATM   33  C   UNL     1      -9.948  17.584  68.049  1.00  0.00    -0.310 A  
HETATM   34  C   UNL     1      -9.486  19.020  68.023  1.00  0.00    -0.319 C  
HETATM   35  C   UNL     1     -10.588  17.061  69.187  1.00  0.00    -0.303 A  
HETATM   36  F   UNL     1      -8.844  19.361  66.869  1.00  0.00    -0.280 F  
HETATM   37  F   UNL     1      -8.612  19.307  69.028  1.00  0.00    -0.388 F  
HETATM   38  F   UNL     1     -10.511  19.906  68.151  1.00  0.00    -0.518 F  
ENDBRANCH  28  29
ENDBRANCH  27  28
ENDBRANCH  24  27
ENDBRANCH  23  24
ENDBRANCH  20  22
ENDBRANCH  12  13
ENDBRANCH  11  12
ENDBRANCH   9  10
ENDBRANCH   8   9
ENDBRANCH   7   8
ENDBRANCH   5   7
ENDBRANCH   4   5
ENDBRANCH   2   4
TORSDOF 13
ENDMDL
MODEL      232
REMARK 921   NORMALIZED FREE ENERGY PREDICTED BY IDOCK:   -4.88 KCAL/MOL
REMARK 922        TOTAL FREE ENERGY PREDICTED BY IDOCK:  -10.81 KCAL/MOL
REMARK 923 INTER-LIGAND FREE ENERGY PREDICTED BY IDOCK:   -9.28 KCAL/MOL
REMARK 924 INTRA-LIGAND FREE ENERGY PREDICTED BY IDOCK:   -1.53 KCAL/MOL
REMARK 927      BINDING AFFINITY PREDICTED BY RF-SCORE:    0.00 PKD
ROOT
HETATM    1  C   UNL     1     -12.433  15.855  72.874  1.00  0.00    -0.582 C  
HETATM    2  C   UNL     1     -12.976  15.017  71.722  1.00  0.00    -0.347 C  
HETATM    3  C   UNL     1     -14.391  14.534  72.026  1.00  0.00    -0.639 C  
ENDROOT
BRANCH   2   4
HETATM    4  O   UNL     1     -13.040  15.826  70.534  1.00  0.00    -0.461 OA 
BRANCH   4   5
HETATM    5  C   UNL     1     -12.175  15.461  69.545  1.00  0.00    -0.246 C  
HETATM    6  O   UNL     1     -11.730  16.214  68.689  1.00  0.00    -0.362 OA 
BRANCH   5   7
HETATM    7  C   UNL     1     -11.891  13.984  69.617  1.00  0.00    -0.386 C  
BRANCH   7   8
HETATM    8  C   UNL     1     -10.429  13.719  69.260  1.00  0.00     0.040 C  
BRANCH   8   9
HETATM    9  C   UNL     1     -10.153  12.275  68.851  1.00  0.00     0.002 C  
BRANCH   9  10
HETATM   10  C   UNL     1      -8.753  12.071  68.340  1.00  0.00    -0.147 C  
HETATM   11  C   UNL     1      -8.274  12.504  67.163  1.00  0.00    -0.168 C  
BRANCH  11  12
HETATM   12  C   UNL     1      -9.067  13.209  66.097  1.00  0.00     0.094 C  
BRANCH  12  13
HETATM   13  C   UNL     1     -10.461  12.605  65.886  1.00  0.00    -0.295 C  
HETATM   14  C   UNL     1     -11.587  13.614  65.634  1.00  0.00    -0.328 C  
HETATM   15  O   UNL     1     -11.151  14.697  64.818  1.00  0.00    -0.401 OA 
HETATM   16  C   UNL     1     -12.632  12.816  64.863  1.00  0.00    -0.541 C  
HETATM   17  C   UNL     1     -11.803  11.955  63.915  1.00  0.00    -0.411 C  
HETATM   18  H   UNL     1     -11.849  15.322  64.661  1.00  0.00     0.000 HD 
HETATM   19  O   UNL     1     -11.519  12.690  62.720  1.00  0.00    -0.607 OA 
HETATM   20  C   UNL     1     -10.483  11.646  64.662  1.00  0.00    -0.354 C  
HETATM   21  H   UNL     1     -11.002  12.154  62.130  1.00  0.00     0.000 HD 
BRANCH  20  22
HETATM   22  C   UNL     1     -10.274  10.218  65.134  1.00  0.00    -0.295 C  
HETATM   23  C   UNL     1      -9.095   9.580  65.256  1.00  0.00    -0.276 C  
BRANCH  23  24
HETATM   24  C   UNL     1      -8.874   8.141  65.670  1.00  0.00    -0.120 C  
HETATM   25  H   UNL     1      -7.423   7.090  66.466  1.00  0.00     0.000 HD 
HETATM   26  O   UNL     1      -7.562   7.994  66.206  1.00  0.00    -0.087 OA 
BRANCH  24  27
HETATM   27  C   UNL     1      -9.924   7.718  66.717  1.00  0.00    -0.261 C  
BRANCH  27  28
HETATM   28  O   UNL     1      -9.594   8.228  68.020  1.00  0.00    -0.148 OA 
BRANCH  28  29
HETATM   29  C   UNL     1      -9.995   7.424  69.057  1.00  0.00    -0.176 A  
HETATM   30  C   UNL     1     -10.771   7.859  70.135  1.00  0.00    -0.244 A  
HETATM   31  C   UNL     1     -11.143   6.965  71.141  1.00  0.00    -0.297 A  
HETATM   32  C   UNL     1     -10.750   5.631  71.071  1.00  0.00    -0.304 A  
HETATM   33  C   UNL     1      -9.985   5.171  69.992  1.00  0.00    -0.326 A  
HETATM   34  C   UNL     1      -9.557   3.726  69.916  1.00  0.00    -0.184 C  
HETATM   35  C   UNL     1      -9.622   6.078  68.980  1.00  0.00    -0.153 A  
HETATM   36  F   UNL     1      -9.949   2.988  70.994  1.00  0.00    -0.239 F  
HETATM   37  F   UNL     1      -8.204   3.585  69.846  1.00  0.00    -0.053 F  
HETATM   38  F   UNL     1     -10.060   3.085  68.827  1.00  0.00     0.026 F  
ENDBRANCH  28  29
ENDBRANCH  27  28
ENDBRANCH  24  27
ENDBRANCH  23  24
ENDBRANCH  20  22
ENDBRANCH  12  13
ENDBRANCH  11  12
ENDBRANCH   9  10
ENDBRANCH   8   9
ENDBRANCH   7   8
ENDBRANCH   5   7
ENDBRANCH   4   5
ENDBRANCH   2   4
TORSDOF 13
ENDMDL
MODEL      233
REMARK 921   NORMALIZED FREE ENERGY PREDICTED BY IDOCK:   -4.85 KCAL/MOL
REMARK 922        TOTAL FREE ENERGY PREDICTED BY IDOCK:  -10.75 KCAL/MOL
REMARK 923 INTER-LIGAND FREE ENERGY PREDICTED BY IDOCK:   -7.44 KCAL/MOL
REMARK 924 INTRA-LIGAND FREE ENERGY PREDICTED BY IDOCK:   -3.32 KCAL/MOL
REMARK 927      BINDING AFFINITY PREDICTED BY RF-SCORE:    0.00 PKD
ROOT
HETATM    1  C   UNL     1     -12.940  10.862  71.824  1.00  0.00    -0.557 C  
HETATM    2  C   UNL     1     -12.478   9.411  71.906  1.00  0.00    -0.390 C  
HETATM    3  C   UNL     1     -13.660   8.458  71.755  1.00  0.00    -0.405 C  
ENDROOT
BRANCH   2   4
HETATM    4  O   UNL     1     -11.563   9.142  70.829  1.00  0.00    -0.276 OA 
BRANCH   4   5
HETATM    5  C   UNL     1     -10.246   9.143  71.180  1.00  0.00    -0.314 C  
HETATM    6  O   UNL     1      -9.817   8.882  72.295  1.00  0.00    -0.284 OA 
BRANCH   5   7
HETATM    7  C   UNL     1      -9.395   9.571  70.013  1.00  0.00    -0.265 C  
BRANCH   7   8
HETATM    8  C   UNL     1      -7.920   9.321  70.328  1.00  0.00    -0.155 C  
BRANCH   8   9
HETATM    9  C   UNL     1      -7.007  10.477  69.929  1.00  0.00    -0.151 C  
BRANCH   9  10
HETATM   10  C   UNL     1      -6.956  10.692  68.441  1.00  0.00    -0.066 C  
HETATM   11  C   UNL     1      -7.488  11.730  67.776  1.00  0.00    -0.117 C  
BRANCH  11  12
HETATM   12  C   UNL     1      -8.304  12.837  68.384  1.00  0.00    -0.119 C  
BRANCH  12  13
HETATM   13  C   UNL     1      -9.816  12.591  68.291  1.00  0.00    -0.227 C  
HETATM   14  C   UNL     1     -10.678  13.404  69.264  1.00  0.00     0.024 C  
HETATM   15  O   UNL     1     -10.183  14.730  69.425  1.00  0.00    -0.308 OA 
HETATM   16  C   UNL     1     -12.038  13.474  68.580  1.00  0.00    -0.303 C  
HETATM   17  C   UNL     1     -11.694  13.678  67.108  1.00  0.00    -0.383 C  
HETATM   18  H   UNL     1     -10.718  15.234  70.027  1.00  0.00     0.000 HD 
HETATM   19  O   UNL     1     -11.515  15.073  66.843  1.00  0.00    -0.334 OA 
HETATM   20  C   UNL     1     -10.359  12.929  66.874  1.00  0.00    -0.247 C  
HETATM   21  H   UNL     1     -11.300  15.200  65.926  1.00  0.00     0.000 HD 
BRANCH  20  22
HETATM   22  C   UNL     1     -10.414  11.663  66.038  1.00  0.00    -0.294 C  
HETATM   23  C   UNL     1      -9.462  11.218  65.196  1.00  0.00    -0.242 C  
BRANCH  23  24
HETATM   24  C   UNL     1      -9.524   9.990  64.314  1.00  0.00    -0.273 C  
HETATM   25  H   UNL     1      -9.023   9.522  62.478  1.00  0.00     0.000 HD 
HETATM   26  O   UNL     1      -8.983  10.293  63.032  1.00  0.00    -0.192 OA 
BRANCH  24  27
HETATM   27  C   UNL     1      -8.742   8.828  64.958  1.00  0.00    -0.148 C  
BRANCH  27  28
HETATM   28  O   UNL     1      -9.500   8.213  66.013  1.00  0.00    -0.176 OA 
BRANCH  28  29
HETATM   29  C   UNL     1      -8.744   7.492  66.904  1.00  0.00    -0.129 A  
HETATM   30  C   UNL     1      -7.347   7.466  66.907  1.00  0.00    -0.093 A  
HETATM   31  C   UNL     1      -6.658   6.713  67.862  1.00  0.00    -0.058 A  
HETATM   32  C   UNL     1      -7.363   5.989  68.821  1.00  0.00    -0.085 A  
HETATM   33  C   UNL     1      -8.763   6.014  68.843  1.00  0.00    -0.122 A  
HETATM   34  C   UNL     1      -9.527   5.230  69.881  1.00  0.00    -0.155 C  
HETATM   35  C   UNL     1      -9.446   6.782  67.883  1.00  0.00    -0.118 A  
HETATM   36  F   UNL     1      -8.723   4.502  70.710  1.00  0.00    -0.090 F  
HETATM   37  F   UNL     1     -10.391   4.334  69.328  1.00  0.00    -0.176 F  
HETATM   38  F   UNL     1     -10.275   6.023  70.695  1.00  0.00    -0.210 F  
ENDBRANCH  28  29
ENDBRANCH  27  28
ENDBRANCH  24  27
ENDBRANCH  23  24
ENDBRANCH  20  22
ENDBRANCH  12  13
ENDBRANCH  11  12
ENDBRANCH   9  10
ENDBRANCH   8   9
ENDBRANCH   7   8
ENDBRANCH   5   7
ENDBRANCH   4   5
ENDBRANCH   2   4
TORSDOF 13
ENDMDL
MODEL      234
REMARK 921   NORMALIZED FREE ENERGY PREDICTED BY IDOCK:   -4.85 KCAL/MOL
REMARK 922        TOTAL FREE ENERGY PREDICTED BY IDOCK:  -10.75 KCAL/MOL
REMARK 923 INTER-LIGAND FREE ENERGY PREDICTED BY IDOCK:   -8.85 KCAL/MOL
REMARK 924 INTRA-LIGAND FREE ENERGY PREDICTED BY IDOCK:   -1.90 KCAL/MOL
REMARK 927      BINDING AFFINITY PREDICTED BY RF-SCORE:    0.00 PKD
ROOT
HETATM    1  C   UNL     1     -10.461  10.436  70.117  1.00  0.00    -0.185 C  
HETATM    2  C   UNL     1     -11.943  10.698  69.872  1.00  0.00    -0.310 C  
HETATM    3  C   UNL     1     -12.587  11.341  71.097  1.00  0.00    -0.501 C  
ENDROOT
BRANCH   2   4
HETATM    4  O   UNL     1     -12.087  11.617  68.774  1.00  0.00    -0.402 OA 
BRANCH   4   5
HETATM    5  C   UNL     1     -11.573  11.181  67.590  1.00  0.00    -0.183 C  
HETATM    6  O   UNL     1     -11.150  10.052  67.381  1.00  0.00    -0.257 OA 
BRANCH   5   7
HETATM    7  C   UNL     1     -11.541  12.305  66.589  1.00  0.00    -0.438 C  
BRANCH   7   8
HETATM    8  C   UNL     1     -11.458  11.737  65.172  1.00  0.00    -0.248 C  
BRANCH   8   9
HETATM    9  C   UNL     1     -10.031  11.629  64.641  1.00  0.00    -0.291 C  
BRANCH   9  10
HETATM   10  C   UNL     1      -9.565  10.205  64.506  1.00  0.00    -0.376 C  
HETATM   11  C   UNL     1      -8.441   9.691  65.030  1.00  0.00    -0.160 C  
BRANCH  11  12
HETATM   12  C   UNL     1      -7.393  10.460  65.786  1.00  0.00    -0.147 C  
BRANCH  12  13
HETATM   13  C   UNL     1      -7.670  10.533  67.293  1.00  0.00    -0.106 C  
HETATM   14  C   UNL     1      -6.954   9.480  68.147  1.00  0.00    -0.078 C  
HETATM   15  O   UNL     1      -5.632   9.231  67.679  1.00  0.00    -0.038 OA 
HETATM   16  C   UNL     1      -6.867  10.121  69.527  1.00  0.00    -0.079 C  
HETATM   17  C   UNL     1      -6.545  11.582  69.228  1.00  0.00    -0.113 C  
HETATM   18  H   UNL     1      -5.189   8.578  68.209  1.00  0.00     0.000 HD 
HETATM   19  O   UNL     1      -5.129  11.745  69.089  1.00  0.00    -0.048 OA 
HETATM   20  C   UNL     1      -7.240  11.906  67.882  1.00  0.00    -0.095 C  
HETATM   21  H   UNL     1      -4.928  12.654  68.902  1.00  0.00     0.000 HD 
BRANCH  20  22
HETATM   22  C   UNL     1      -8.440  12.834  67.930  1.00  0.00    -0.173 C  
HETATM   23  C   UNL     1      -8.492  14.045  68.516  1.00  0.00    -0.143 C  
BRANCH  23  24
HETATM   24  C   UNL     1      -9.695  14.957  68.621  1.00  0.00    -0.226 C  
HETATM   25  H   UNL     1     -11.513  14.847  69.345  1.00  0.00     0.000 HD 
HETATM   26  O   UNL     1     -10.758  14.275  69.279  1.00  0.00    -0.232 OA 
BRANCH  24  27
HETATM   27  C   UNL     1      -9.329  16.240  69.395  1.00  0.00    -0.138 C  
BRANCH  27  28
HETATM   28  O   UNL     1     -10.335  17.253  69.227  1.00  0.00    -0.322 OA 
BRANCH  28  29
HETATM   29  C   UNL     1      -9.959  18.288  68.408  1.00  0.00    -0.382 A  
HETATM   30  C   UNL     1     -10.798  18.888  67.465  1.00  0.00    -0.440 A  
HETATM   31  C   UNL     1     -10.334  19.948  66.682  1.00  0.00    -0.608 A  
HETATM   32  C   UNL     1      -9.033  20.418  66.844  1.00  0.00    -0.383 A  
HETATM   33  C   UNL     1      -8.181  19.840  67.794  1.00  0.00    -0.340 A  
HETATM   34  C   UNL     1      -6.771  20.348  67.969  1.00  0.00    -0.301 C  
HETATM   35  C   UNL     1      -8.661  18.779  68.583  1.00  0.00    -0.360 A  
HETATM   36  F   UNL     1      -6.444  21.348  67.100  1.00  0.00    -0.363 F  
HETATM   37  F   UNL     1      -5.838  19.375  67.778  1.00  0.00    -0.189 F  
HETATM   38  F   UNL     1      -6.543  20.850  69.213  1.00  0.00    -0.202 F  
ENDBRANCH  28  29
ENDBRANCH  27  28
ENDBRANCH  24  27
ENDBRANCH  23  24
ENDBRANCH  20  22
ENDBRANCH  12  13
ENDBRANCH  11  12
ENDBRANCH   9  10
ENDBRANCH   8   9
ENDBRANCH   7   8
ENDBRANCH   5   7
ENDBRANCH   4   5
ENDBRANCH   2   4
TORSDOF 13
ENDMDL
MODEL      235
REMARK 921   NORMALIZED FREE ENERGY PREDICTED BY IDOCK:   -4.83 KCAL/MOL
REMARK 922        TOTAL FREE ENERGY PREDICTED BY IDOCK:  -10.73 KCAL/MOL
REMARK 923 INTER-LIGAND FREE ENERGY PREDICTED BY IDOCK:   -7.21 KCAL/MOL
REMARK 924 INTRA-LIGAND FREE ENERGY PREDICTED BY IDOCK:   -3.52 KCAL/MOL
REMARK 927      BINDING AFFINITY PREDICTED BY RF-SCORE:    0.00 PKD
ROOT
HETATM    1  C   UNL     1     -12.004  11.576  69.280  1.00  0.00    -0.397 C  
HETATM    2  C   UNL     1     -10.700  11.692  68.499  1.00  0.00    -0.218 C  
HETATM    3  C   UNL     1      -9.651  10.733  69.053  1.00  0.00    -0.193 C  
ENDROOT
BRANCH   2   4
HETATM    4  O   UNL     1     -10.935  11.330  67.126  1.00  0.00    -0.262 OA 
BRANCH   4   5
HETATM    5  C   UNL     1      -9.816  11.261  66.350  1.00  0.00    -0.211 C  
HETATM    6  O   UNL     1      -8.908  12.081  66.355  1.00  0.00    -0.192 OA 
BRANCH   5   7
HETATM    7  C   UNL     1      -9.884  10.063  65.441  1.00  0.00    -0.384 C  
BRANCH   7   8
HETATM    8  C   UNL     1      -9.399   8.819  66.186  1.00  0.00    -0.297 C  
BRANCH   8   9
HETATM    9  C   UNL     1     -10.526   8.018  66.833  1.00  0.00    -0.387 C  
BRANCH   9  10
HETATM   10  C   UNL     1     -10.170   6.570  67.035  1.00  0.00    -0.277 C  
HETATM   11  C   UNL     1     -10.604   5.784  68.032  1.00  0.00    -0.295 C  
BRANCH  11  12
HETATM   12  C   UNL     1     -11.468   6.221  69.183  1.00  0.00    -0.229 C  
BRANCH  12  13
HETATM   13  C   UNL     1     -10.794   7.272  70.076  1.00  0.00    -0.271 C  
HETATM   14  C   UNL     1     -11.738   8.298  70.715  1.00  0.00    -0.202 C  
HETATM   15  O   UNL     1     -12.967   7.704  71.120  1.00  0.00    -0.504 OA 
HETATM   16  C   UNL     1     -10.989   8.762  71.959  1.00  0.00    -0.438 C  
HETATM   17  C   UNL     1     -10.358   7.482  72.500  1.00  0.00    -0.240 C  
HETATM   18  H   UNL     1     -13.551   8.341  71.516  1.00  0.00     0.000 HD 
HETATM   19  O   UNL     1     -11.293   6.803  73.344  1.00  0.00    -0.487 OA 
HETATM   20  C   UNL     1     -10.042   6.606  71.263  1.00  0.00    -0.207 C  
HETATM   21  H   UNL     1     -10.900   6.006  73.681  1.00  0.00     0.000 HD 
BRANCH  20  22
HETATM   22  C   UNL     1      -8.579   6.427  70.898  1.00  0.00    -0.135 C  
HETATM   23  C   UNL     1      -7.867   7.192  70.050  1.00  0.00    -0.113 C  
BRANCH  23  24
HETATM   24  C   UNL     1      -6.426   6.994  69.633  1.00  0.00    -0.043 C  
HETATM   25  H   UNL     1      -4.858   6.037  70.318  1.00  0.00     0.000 HD 
HETATM   26  O   UNL     1      -5.763   6.161  70.580  1.00  0.00    -0.017 OA 
BRANCH  24  27
HETATM   27  C   UNL     1      -6.357   6.358  68.230  1.00  0.00    -0.040 C  
BRANCH  27  28
HETATM   28  O   UNL     1      -6.068   4.953  68.309  1.00  0.00    -0.028 OA 
BRANCH  28  29
HETATM   29  C   UNL     1      -7.121   4.142  67.970  1.00  0.00    -0.059 A  
HETATM   30  C   UNL     1      -7.850   3.375  68.883  1.00  0.00    -0.053 A  
HETATM   31  C   UNL     1      -8.918   2.586  68.449  1.00  0.00    -0.183 A  
HETATM   32  C   UNL     1      -9.268   2.567  67.101  1.00  0.00    -0.141 A  
HETATM   33  C   UNL     1      -8.561   3.339  66.171  1.00  0.00    -0.121 A  
HETATM   34  C   UNL     1      -8.938   3.318  64.711  1.00  0.00    -0.132 C  
HETATM   35  C   UNL     1      -7.492   4.136  66.621  1.00  0.00    -0.080 A  
HETATM   36  F   UNL     1      -9.964   2.463  64.429  1.00  0.00    -0.147 F  
HETATM   37  F   UNL     1      -7.907   2.931  63.909  1.00  0.00    -0.074 F  
HETATM   38  F   UNL     1      -9.336   4.535  64.252  1.00  0.00    -0.152 F  
ENDBRANCH  28  29
ENDBRANCH  27  28
ENDBRANCH  24  27
ENDBRANCH  23  24
ENDBRANCH  20  22
ENDBRANCH  12  13
ENDBRANCH  11  12
ENDBRANCH   9  10
ENDBRANCH   8   9
ENDBRANCH   7   8
ENDBRANCH   5   7
ENDBRANCH   4   5
ENDBRANCH   2   4
TORSDOF 13
ENDMDL
MODEL      236
REMARK 921   NORMALIZED FREE ENERGY PREDICTED BY IDOCK:   -4.82 KCAL/MOL
REMARK 922        TOTAL FREE ENERGY PREDICTED BY IDOCK:  -10.71 KCAL/MOL
REMARK 923 INTER-LIGAND FREE ENERGY PREDICTED BY IDOCK:   -8.68 KCAL/MOL
REMARK 924 INTRA-LIGAND FREE ENERGY PREDICTED BY IDOCK:   -2.02 KCAL/MOL
REMARK 927      BINDING AFFINITY PREDICTED BY RF-SCORE:    0.00 PKD
ROOT
HETATM    1  C   UNL     1     -11.521  15.054  65.202  1.00  0.00    -0.339 C  
HETATM    2  C   UNL     1     -12.499  14.032  65.772  1.00  0.00    -0.494 C  
HETATM    3  C   UNL     1     -12.249  12.652  65.173  1.00  0.00    -0.539 C  
ENDROOT
BRANCH   2   4
HETATM    4  O   UNL     1     -12.303  13.930  67.194  1.00  0.00    -0.372 OA 
BRANCH   4   5
HETATM    5  C   UNL     1     -11.296  13.094  67.576  1.00  0.00    -0.298 C  
HETATM    6  O   UNL     1     -10.106  13.291  67.374  1.00  0.00    -0.229 OA 
BRANCH   5   7
HETATM    7  C   UNL     1     -11.861  11.861  68.231  1.00  0.00    -0.343 C  
BRANCH   7   8
HETATM    8  C   UNL     1     -11.887  12.046  69.748  1.00  0.00    -0.401 C  
BRANCH   8   9
HETATM    9  C   UNL     1     -11.193  10.921  70.511  1.00  0.00    -0.084 C  
BRANCH   9  10
HETATM   10  C   UNL     1      -9.992  10.379  69.785  1.00  0.00    -0.167 C  
HETATM   11  C   UNL     1      -9.130   9.467  70.261  1.00  0.00    -0.283 C  
BRANCH  11  12
HETATM   12  C   UNL     1      -9.155   8.870  71.641  1.00  0.00    -0.280 C  
BRANCH  12  13
HETATM   13  C   UNL     1      -9.777   7.468  71.679  1.00  0.00    -0.184 C  
HETATM   14  C   UNL     1     -10.856   7.253  72.748  1.00  0.00    -0.314 C  
HETATM   15  O   UNL     1     -11.684   8.402  72.899  1.00  0.00    -0.347 OA 
HETATM   16  C   UNL     1     -11.703   6.115  72.192  1.00  0.00    -0.361 C  
HETATM   17  C   UNL     1     -11.793   6.424  70.700  1.00  0.00    -0.250 C  
HETATM   18  H   UNL     1     -12.352   8.269  73.561  1.00  0.00     0.000 HD 
HETATM   19  O   UNL     1     -12.882   7.321  70.459  1.00  0.00    -0.590 OA 
HETATM   20  C   UNL     1     -10.458   7.114  70.327  1.00  0.00    -0.232 C  
HETATM   21  H   UNL     1     -12.937   7.514  69.530  1.00  0.00     0.000 HD 
BRANCH  20  22
HETATM   22  C   UNL     1      -9.489   6.324  69.464  1.00  0.00    -0.151 C  
HETATM   23  C   UNL     1      -9.774   5.224  68.743  1.00  0.00    -0.203 C  
BRANCH  23  24
HETATM   24  C   UNL     1      -8.809   4.394  67.925  1.00  0.00    -0.109 C  
HETATM   25  H   UNL     1      -8.931   3.011  66.541  1.00  0.00     0.000 HD 
HETATM   26  O   UNL     1      -9.537   3.533  67.055  1.00  0.00    -0.204 OA 
BRANCH  24  27
HETATM   27  C   UNL     1      -7.876   5.309  67.106  1.00  0.00    -0.100 C  
BRANCH  27  28
HETATM   28  O   UNL     1      -8.167   5.223  65.701  1.00  0.00    -0.113 OA 
BRANCH  28  29
HETATM   29  C   UNL     1      -8.153   6.430  65.048  1.00  0.00    -0.135 A  
HETATM   30  C   UNL     1      -7.705   6.610  63.737  1.00  0.00    -0.111 A  
HETATM   31  C   UNL     1      -7.739   7.876  63.147  1.00  0.00    -0.136 A  
HETATM   32  C   UNL     1      -8.229   8.966  63.862  1.00  0.00    -0.171 A  
HETATM   33  C   UNL     1      -8.696   8.805  65.172  1.00  0.00    -0.202 A  
HETATM   34  C   UNL     1      -9.225   9.985  65.948  1.00  0.00    -0.167 C  
HETATM   35  C   UNL     1      -8.665   7.524  65.754  1.00  0.00    -0.142 A  
HETATM   36  F   UNL     1      -9.147  11.163  65.263  1.00  0.00    -0.204 F  
HETATM   37  F   UNL     1      -8.549  10.192  67.112  1.00  0.00    -0.123 F  
HETATM   38  F   UNL     1     -10.534   9.845  66.293  1.00  0.00    -0.301 F  
ENDBRANCH  28  29
ENDBRANCH  27  28
ENDBRANCH  24  27
ENDBRANCH  23  24
ENDBRANCH  20  22
ENDBRANCH  12  13
ENDBRANCH  11  12
ENDBRANCH   9  10
ENDBRANCH   8   9
ENDBRANCH   7   8
ENDBRANCH   5   7
ENDBRANCH   4   5
ENDBRANCH   2   4
TORSDOF 13
ENDMDL
MODEL      237
REMARK 921   NORMALIZED FREE ENERGY PREDICTED BY IDOCK:   -4.82 KCAL/MOL
REMARK 922        TOTAL FREE ENERGY PREDICTED BY IDOCK:  -10.70 KCAL/MOL
REMARK 923 INTER-LIGAND FREE ENERGY PREDICTED BY IDOCK:   -9.32 KCAL/MOL
REMARK 924 INTRA-LIGAND FREE ENERGY PREDICTED BY IDOCK:   -1.39 KCAL/MOL
REMARK 927      BINDING AFFINITY PREDICTED BY RF-SCORE:    0.00 PKD
ROOT
HETATM    1  C   UNL     1      -9.157   9.536  64.293  1.00  0.00    -0.220 C  
HETATM    2  C   UNL     1      -9.582  10.999  64.348  1.00  0.00    -0.259 C  
HETATM    3  C   UNL     1      -9.424  11.659  62.982  1.00  0.00    -0.265 C  
ENDROOT
BRANCH   2   4
HETATM    4  O   UNL     1     -10.973  11.077  64.710  1.00  0.00    -0.224 OA 
BRANCH   4   5
HETATM    5  C   UNL     1     -11.590  12.243  64.368  1.00  0.00    -0.360 C  
HETATM    6  O   UNL     1     -11.544  12.764  63.262  1.00  0.00    -0.498 OA 
BRANCH   5   7
HETATM    7  C   UNL     1     -12.290  12.833  65.564  1.00  0.00    -0.495 C  
BRANCH   7   8
HETATM    8  C   UNL     1     -11.336  12.867  66.759  1.00  0.00    -0.367 C  
BRANCH   8   9
HETATM    9  C   UNL     1     -10.541  14.165  66.867  1.00  0.00    -0.280 C  
BRANCH   9  10
HETATM   10  C   UNL     1     -11.361  15.308  67.399  1.00  0.00    -0.285 C  
HETATM   11  C   UNL     1     -11.272  15.835  68.631  1.00  0.00    -0.351 C  
BRANCH  11  12
HETATM   12  C   UNL     1     -10.390  15.333  69.739  1.00  0.00    -0.266 C  
BRANCH  12  13
HETATM   13  C   UNL     1     -11.175  14.672  70.880  1.00  0.00    -0.052 C  
HETATM   14  C   UNL     1     -11.432  15.558  72.105  1.00  0.00    -0.421 C  
HETATM   15  O   UNL     1     -11.718  16.902  71.732  1.00  0.00    -0.522 OA 
HETATM   16  C   UNL     1     -12.679  14.955  72.740  1.00  0.00    -0.500 C  
HETATM   17  C   UNL     1     -13.554  14.589  71.545  1.00  0.00    -0.390 C  
HETATM   18  H   UNL     1     -11.877  17.451  72.491  1.00  0.00     0.000 HD 
HETATM   19  O   UNL     1     -14.332  15.724  71.152  1.00  0.00    -0.637 OA 
HETATM   20  C   UNL     1     -12.579  14.205  70.405  1.00  0.00    -0.397 C  
HETATM   21  H   UNL     1     -14.876  15.496  70.407  1.00  0.00     0.000 HD 
BRANCH  20  22
HETATM   22  C   UNL     1     -12.519  12.740  70.011  1.00  0.00    -0.068 C  
HETATM   23  C   UNL     1     -11.883  11.758  70.676  1.00  0.00    -0.185 C  
BRANCH  23  24
HETATM   24  C   UNL     1     -11.766  10.305  70.268  1.00  0.00    -0.306 C  
HETATM   25  H   UNL     1     -12.278   9.209  68.726  1.00  0.00     0.000 HD 
HETATM   26  O   UNL     1     -12.351  10.121  68.982  1.00  0.00     0.140 OA 
BRANCH  24  27
HETATM   27  C   UNL     1     -10.286   9.873  70.243  1.00  0.00    -0.281 C  
BRANCH  27  28
HETATM   28  O   UNL     1      -9.652  10.259  69.012  1.00  0.00    -0.182 OA 
BRANCH  28  29
HETATM   29  C   UNL     1      -9.108   9.215  68.308  1.00  0.00    -0.132 A  
HETATM   30  C   UNL     1      -7.791   9.183  67.842  1.00  0.00    -0.100 A  
HETATM   31  C   UNL     1      -7.317   8.070  67.143  1.00  0.00    -0.091 A  
HETATM   32  C   UNL     1      -8.155   6.981  66.914  1.00  0.00    -0.116 A  
HETATM   33  C   UNL     1      -9.473   6.987  67.385  1.00  0.00    -0.155 A  
HETATM   34  C   UNL     1     -10.381   5.808  67.136  1.00  0.00    -0.240 C  
HETATM   35  C   UNL     1      -9.938   8.109  68.095  1.00  0.00    -0.219 A  
HETATM   36  F   UNL     1      -9.797   4.822  66.397  1.00  0.00    -0.144 F  
HETATM   37  F   UNL     1     -11.513   6.153  66.461  1.00  0.00    -0.294 F  
HETATM   38  F   UNL     1     -10.796   5.211  68.286  1.00  0.00    -0.154 F  
ENDBRANCH  28  29
ENDBRANCH  27  28
ENDBRANCH  24  27
ENDBRANCH  23  24
ENDBRANCH  20  22
ENDBRANCH  12  13
ENDBRANCH  11  12
ENDBRANCH   9  10
ENDBRANCH   8   9
ENDBRANCH   7   8
ENDBRANCH   5   7
ENDBRANCH   4   5
ENDBRANCH   2   4
TORSDOF 13
ENDMDL
MODEL      238
REMARK 921   NORMALIZED FREE ENERGY PREDICTED BY IDOCK:   -4.82 KCAL/MOL
REMARK 922        TOTAL FREE ENERGY PREDICTED BY IDOCK:  -10.70 KCAL/MOL
REMARK 923 INTER-LIGAND FREE ENERGY PREDICTED BY IDOCK:   -8.34 KCAL/MOL
REMARK 924 INTRA-LIGAND FREE ENERGY PREDICTED BY IDOCK:   -2.35 KCAL/MOL
REMARK 927      BINDING AFFINITY PREDICTED BY RF-SCORE:    0.00 PKD
ROOT
HETATM    1  C   UNL     1     -10.357   6.228  67.940  1.00  0.00    -0.239 C  
HETATM    2  C   UNL     1      -9.640   4.934  68.308  1.00  0.00    -0.145 C  
HETATM    3  C   UNL     1      -9.668   3.951  67.141  1.00  0.00    -0.182 C  
ENDROOT
BRANCH   2   4
HETATM    4  O   UNL     1      -8.261   5.221  68.600  1.00  0.00    -0.093 OA 
BRANCH   4   5
HETATM    5  C   UNL     1      -7.977   5.384  69.923  1.00  0.00    -0.081 C  
HETATM    6  O   UNL     1      -7.039   6.033  70.365  1.00  0.00    -0.066 OA 
BRANCH   5   7
HETATM    7  C   UNL     1      -8.949   4.602  70.767  1.00  0.00    -0.166 C  
BRANCH   7   8
HETATM    8  C   UNL     1      -8.233   4.034  71.992  1.00  0.00    -0.088 C  
BRANCH   8   9
HETATM    9  C   UNL     1      -8.533   4.794  73.281  1.00  0.00    -0.103 C  
BRANCH   9  10
HETATM   10  C   UNL     1      -7.606   5.959  73.500  1.00  0.00    -0.097 C  
HETATM   11  C   UNL     1      -7.974   7.240  73.655  1.00  0.00    -0.133 C  
BRANCH  11  12
HETATM   12  C   UNL     1      -9.379   7.768  73.563  1.00  0.00    -0.351 C  
BRANCH  12  13
HETATM   13  C   UNL     1      -9.937   7.746  72.134  1.00  0.00    -0.249 C  
HETATM   14  C   UNL     1     -11.383   7.253  71.998  1.00  0.00    -0.260 C  
HETATM   15  O   UNL     1     -12.199   7.708  73.072  1.00  0.00    -0.499 OA 
HETATM   16  C   UNL     1     -11.873   7.900  70.708  1.00  0.00    -0.190 C  
HETATM   17  C   UNL     1     -11.274   9.303  70.757  1.00  0.00    -0.288 C  
HETATM   18  H   UNL     1     -13.094   7.402  72.987  1.00  0.00     0.000 HD 
HETATM   19  O   UNL     1     -12.141  10.171  71.494  1.00  0.00    -0.377 OA 
HETATM   20  C   UNL     1      -9.922   9.165  71.499  1.00  0.00    -0.358 C  
HETATM   21  H   UNL     1     -11.768  11.045  71.525  1.00  0.00     0.000 HD 
BRANCH  20  22
HETATM   22  C   UNL     1      -8.660   9.336  70.673  1.00  0.00    -0.270 C  
HETATM   23  C   UNL     1      -8.592   9.484  69.337  1.00  0.00    -0.159 C  
BRANCH  23  24
HETATM   24  C   UNL     1      -7.340   9.599  68.493  1.00  0.00    -0.078 C  
HETATM   25  H   UNL     1      -5.996   8.377  67.757  1.00  0.00     0.000 HD 
HETATM   26  O   UNL     1      -6.782   8.304  68.286  1.00  0.00    -0.062 OA 
BRANCH  24  27
HETATM   27  C   UNL     1      -7.666  10.259  67.139  1.00  0.00    -0.092 C  
BRANCH  27  28
HETATM   28  O   UNL     1      -8.901   9.759  66.600  1.00  0.00    -0.136 OA 
BRANCH  28  29
HETATM   29  C   UNL     1      -9.246  10.299  65.387  1.00  0.00    -0.193 A  
HETATM   30  C   UNL     1      -8.616   9.985  64.179  1.00  0.00    -0.195 A  
HETATM   31  C   UNL     1      -9.043  10.575  62.987  1.00  0.00    -0.281 A  
HETATM   32  C   UNL     1     -10.106  11.475  62.995  1.00  0.00    -0.330 A  
HETATM   33  C   UNL     1     -10.760  11.792  64.192  1.00  0.00    -0.410 A  
HETATM   34  C   UNL     1     -11.911  12.768  64.203  1.00  0.00    -0.413 C  
HETATM   35  C   UNL     1     -10.328  11.186  65.386  1.00  0.00    -0.331 A  
HETATM   36  F   UNL     1     -12.179  13.301  62.976  1.00  0.00    -0.619 F  
HETATM   37  F   UNL     1     -11.688  13.830  65.025  1.00  0.00    -0.314 F  
HETATM   38  F   UNL     1     -13.076  12.204  64.622  1.00  0.00    -0.501 F  
ENDBRANCH  28  29
ENDBRANCH  27  28
ENDBRANCH  24  27
ENDBRANCH  23  24
ENDBRANCH  20  22
ENDBRANCH  12  13
ENDBRANCH  11  12
ENDBRANCH   9  10
ENDBRANCH   8   9
ENDBRANCH   7   8
ENDBRANCH   5   7
ENDBRANCH   4   5
ENDBRANCH   2   4
TORSDOF 13
ENDMDL
MODEL      239
REMARK 921   NORMALIZED FREE ENERGY PREDICTED BY IDOCK:   -4.81 KCAL/MOL
REMARK 922        TOTAL FREE ENERGY PREDICTED BY IDOCK:  -10.69 KCAL/MOL
REMARK 923 INTER-LIGAND FREE ENERGY PREDICTED BY IDOCK:   -9.04 KCAL/MOL
REMARK 924 INTRA-LIGAND FREE ENERGY PREDICTED BY IDOCK:   -1.65 KCAL/MOL
REMARK 927      BINDING AFFINITY PREDICTED BY RF-SCORE:    0.00 PKD
ROOT
HETATM    1  C   UNL     1     -12.570   8.097  72.198  1.00  0.00    -0.349 C  
HETATM    2  C   UNL     1     -12.152   8.864  70.948  1.00  0.00    -0.177 C  
HETATM    3  C   UNL     1     -11.961  10.345  71.262  1.00  0.00    -0.425 C  
ENDROOT
BRANCH   2   4
HETATM    4  O   UNL     1     -10.892   8.355  70.477  1.00  0.00    -0.224 OA 
BRANCH   4   5
HETATM    5  C   UNL     1      -9.793   8.968  71.000  1.00  0.00    -0.282 C  
HETATM    6  O   UNL     1      -9.519   9.020  72.192  1.00  0.00    -0.340 OA 
BRANCH   5   7
HETATM    7  C   UNL     1      -8.991   9.625  69.908  1.00  0.00    -0.243 C  
BRANCH   7   8
HETATM    8  C   UNL     1      -7.498   9.503  70.215  1.00  0.00    -0.148 C  
BRANCH   8   9
HETATM    9  C   UNL     1      -6.818   8.348  69.486  1.00  0.00    -0.041 C  
BRANCH   9  10
HETATM   10  C   UNL     1      -7.373   7.005  69.877  1.00  0.00    -0.085 C  
HETATM   11  C   UNL     1      -7.500   5.940  69.070  1.00  0.00    -0.085 C  
BRANCH  11  12
HETATM   12  C   UNL     1      -7.184   5.910  67.600  1.00  0.00    -0.076 C  
BRANCH  12  13
HETATM   13  C   UNL     1      -8.435   5.978  66.714  1.00  0.00    -0.110 C  
HETATM   14  C   UNL     1      -9.403   4.796  66.846  1.00  0.00    -0.134 C  
HETATM   15  O   UNL     1      -9.512   4.352  68.195  1.00  0.00    -0.138 OA 
HETATM   16  C   UNL     1     -10.747   5.371  66.416  1.00  0.00    -0.284 C  
HETATM   17  C   UNL     1     -10.756   6.769  67.026  1.00  0.00    -0.365 C  
HETATM   18  H   UNL     1     -10.112   3.619  68.277  1.00  0.00     0.000 HD 
HETATM   19  O   UNL     1     -11.241   6.705  68.371  1.00  0.00    -0.508 OA 
HETATM   20  C   UNL     1      -9.282   7.244  67.027  1.00  0.00    -0.170 C  
HETATM   21  H   UNL     1     -11.246   7.575  68.751  1.00  0.00     0.000 HD 
BRANCH  20  22
HETATM   22  C   UNL     1      -8.912   8.352  66.057  1.00  0.00    -0.228 C  
HETATM   23  C   UNL     1      -8.860   8.257  64.716  1.00  0.00     0.134 C  
BRANCH  23  24
HETATM   24  C   UNL     1      -8.439   9.335  63.740  1.00  0.00    -0.191 C  
HETATM   25  H   UNL     1      -8.597   9.660  61.814  1.00  0.00     0.000 HD 
HETATM   26  O   UNL     1      -8.862   8.983  62.426  1.00  0.00    -0.229 OA 
BRANCH  24  27
HETATM   27  C   UNL     1      -9.048  10.693  64.146  1.00  0.00    -0.222 C  
BRANCH  27  28
HETATM   28  O   UNL     1     -10.465  10.719  63.909  1.00  0.00    -0.338 OA 
BRANCH  28  29
HETATM   29  C   UNL     1     -11.107  11.803  64.452  1.00  0.00    -0.334 A  
HETATM   30  C   UNL     1     -11.717  12.812  63.702  1.00  0.00    -0.587 A  
HETATM   31  C   UNL     1     -12.360  13.875  64.342  1.00  0.00    -0.400 A  
HETATM   32  C   UNL     1     -12.404  13.929  65.733  1.00  0.00    -0.518 A  
HETATM   33  C   UNL     1     -11.812  12.920  66.502  1.00  0.00    -0.473 A  
HETATM   34  C   UNL     1     -11.858  12.977  68.009  1.00  0.00    -0.347 C  
HETATM   35  C   UNL     1     -11.174  11.850  65.848  1.00  0.00    -0.373 A  
HETATM   36  F   UNL     1     -12.472  14.097  68.490  1.00  0.00    -0.322 F  
HETATM   37  F   UNL     1     -10.618  12.969  68.571  1.00  0.00    -0.232 F  
HETATM   38  F   UNL     1     -12.527  11.927  68.557  1.00  0.00    -0.199 F  
ENDBRANCH  28  29
ENDBRANCH  27  28
ENDBRANCH  24  27
ENDBRANCH  23  24
ENDBRANCH  20  22
ENDBRANCH  12  13
ENDBRANCH  11  12
ENDBRANCH   9  10
ENDBRANCH   8   9
ENDBRANCH   7   8
ENDBRANCH   5   7
ENDBRANCH   4   5
ENDBRANCH   2   4
TORSDOF 13
ENDMDL
MODEL      240
REMARK 921   NORMALIZED FREE ENERGY PREDICTED BY IDOCK:   -4.80 KCAL/MOL
REMARK 922        TOTAL FREE ENERGY PREDICTED BY IDOCK:  -10.66 KCAL/MOL
REMARK 923 INTER-LIGAND FREE ENERGY PREDICTED BY IDOCK:   -9.13 KCAL/MOL
REMARK 924 INTRA-LIGAND FREE ENERGY PREDICTED BY IDOCK:   -1.53 KCAL/MOL
REMARK 927      BINDING AFFINITY PREDICTED BY RF-SCORE:    0.00 PKD
ROOT
HETATM    1  C   UNL     1      -9.823   8.066  66.263  1.00  0.00    -0.162 C  
HETATM    2  C   UNL     1     -10.689   7.360  67.302  1.00  0.00    -0.308 C  
HETATM    3  C   UNL     1     -10.840   5.880  66.963  1.00  0.00    -0.379 C  
ENDROOT
BRANCH   2   4
HETATM    4  O   UNL     1     -10.052   7.447  68.589  1.00  0.00    -0.168 OA 
BRANCH   4   5
HETATM    5  C   UNL     1      -8.722   7.149  68.593  1.00  0.00    -0.127 C  
HETATM    6  O   UNL     1      -8.256   6.020  68.518  1.00  0.00    -0.109 OA 
BRANCH   5   7
HETATM    7  C   UNL     1      -7.906   8.403  68.764  1.00  0.00    -0.115 C  
BRANCH   7   8
HETATM    8  C   UNL     1      -8.169   9.009  70.143  1.00  0.00    -0.140 C  
BRANCH   8   9
HETATM    9  C   UNL     1      -7.507   8.242  71.283  1.00  0.00    -0.082 C  
BRANCH   9  10
HETATM   10  C   UNL     1      -8.346   8.213  72.531  1.00  0.00    -0.230 C  
HETATM   11  C   UNL     1      -8.563   7.141  73.310  1.00  0.00    -0.157 C  
BRANCH  11  12
HETATM   12  C   UNL     1      -8.072   5.746  73.041  1.00  0.00    -0.118 C  
BRANCH  12  13
HETATM   13  C   UNL     1      -9.132   4.850  72.387  1.00  0.00    -0.144 C  
HETATM   14  C   UNL     1      -8.699   3.404  72.115  1.00  0.00    -0.087 C  
HETATM   15  O   UNL     1      -7.885   2.891  73.165  1.00  0.00    -0.054 OA 
HETATM   16  C   UNL     1     -10.008   2.625  72.091  1.00  0.00    -0.236 C  
HETATM   17  C   UNL     1     -10.822   3.250  73.220  1.00  0.00    -0.180 C  
HETATM   18  H   UNL     1      -7.617   1.995  72.996  1.00  0.00     0.000 HD 
HETATM   19  O   UNL     1     -10.494   2.614  74.460  1.00  0.00    -0.149 OA 
HETATM   20  C   UNL     1     -10.405   4.740  73.273  1.00  0.00    -0.233 C  
HETATM   21  H   UNL     1     -11.001   3.004  75.163  1.00  0.00     0.000 HD 
BRANCH  20  22
HETATM   22  C   UNL     1     -11.430   5.762  72.815  1.00  0.00    -0.304 C  
HETATM   23  C   UNL     1     -11.463   6.382  71.620  1.00  0.00    -0.354 C  
BRANCH  23  24
HETATM   24  C   UNL     1     -12.443   7.443  71.169  1.00  0.00    -0.308 C  
HETATM   25  H   UNL     1     -14.265   7.997  71.636  1.00  0.00     0.000 HD 
HETATM   26  O   UNL     1     -13.649   7.331  71.919  1.00  0.00    -0.305 OA 
BRANCH  24  27
HETATM   27  C   UNL     1     -11.834   8.848  71.352  1.00  0.00    -0.317 C  
BRANCH  27  28
HETATM   28  O   UNL     1     -12.860   9.849  71.454  1.00  0.00    -0.346 OA 
BRANCH  28  29
HETATM   29  C   UNL     1     -12.529  11.054  70.887  1.00  0.00    -0.410 A  
HETATM   30  C   UNL     1     -11.942  11.195  69.627  1.00  0.00    -0.429 A  
HETATM   31  C   UNL     1     -11.651  12.465  69.122  1.00  0.00    -0.369 A  
HETATM   32  C   UNL     1     -11.952  13.599  69.872  1.00  0.00    -0.415 A  
HETATM   33  C   UNL     1     -12.554  13.481  71.131  1.00  0.00    -0.438 A  
HETATM   34  C   UNL     1     -12.879  14.709  71.944  1.00  0.00    -0.328 C  
HETATM   35  C   UNL     1     -12.850  12.198  71.626  1.00  0.00    -0.390 A  
HETATM   36  F   UNL     1     -12.489  15.873  71.347  1.00  0.00    -0.405 F  
HETATM   37  F   UNL     1     -12.276  14.703  73.165  1.00  0.00    -0.388 F  
HETATM   38  F   UNL     1     -14.212  14.845  72.182  1.00  0.00    -0.446 F  
ENDBRANCH  28  29
ENDBRANCH  27  28
ENDBRANCH  24  27
ENDBRANCH  23  24
ENDBRANCH  20  22
ENDBRANCH  12  13
ENDBRANCH  11  12
ENDBRANCH   9  10
ENDBRANCH   8   9
ENDBRANCH   7   8
ENDBRANCH   5   7
ENDBRANCH   4   5
ENDBRANCH   2   4
TORSDOF 13
ENDMDL
MODEL      241
REMARK 921   NORMALIZED FREE ENERGY PREDICTED BY IDOCK:   -4.79 KCAL/MOL
REMARK 922        TOTAL FREE ENERGY PREDICTED BY IDOCK:  -10.65 KCAL/MOL
REMARK 923 INTER-LIGAND FREE ENERGY PREDICTED BY IDOCK:   -8.34 KCAL/MOL
REMARK 924 INTRA-LIGAND FREE ENERGY PREDICTED BY IDOCK:   -2.31 KCAL/MOL
REMARK 927      BINDING AFFINITY PREDICTED BY RF-SCORE:    0.00 PKD
ROOT
HETATM    1  C   UNL     1      -7.037   9.336  70.736  1.00  0.00    -0.121 C  
HETATM    2  C   UNL     1      -7.091   7.890  71.218  1.00  0.00    -0.055 C  
HETATM    3  C   UNL     1      -6.070   7.034  70.474  1.00  0.00    -0.027 C  
ENDROOT
BRANCH   2   4
HETATM    4  O   UNL     1      -6.758   7.843  72.618  1.00  0.00    -0.064 OA 
BRANCH   4   5
HETATM    5  C   UNL     1      -7.828   7.772  73.460  1.00  0.00    -0.146 C  
HETATM    6  O   UNL     1      -7.894   8.309  74.557  1.00  0.00    -0.233 OA 
BRANCH   5   7
HETATM    7  C   UNL     1      -8.897   6.889  72.873  1.00  0.00    -0.142 C  
BRANCH   7   8
HETATM    8  C   UNL     1     -10.228   7.641  72.835  1.00  0.00    -0.356 C  
BRANCH   8   9
HETATM    9  C   UNL     1     -10.962   7.514  71.503  1.00  0.00    -0.256 C  
BRANCH   9  10
HETATM   10  C   UNL     1     -10.959   8.793  70.711  1.00  0.00    -0.294 C  
HETATM   11  C   UNL     1     -10.528   8.936  69.448  1.00  0.00    -0.228 C  
BRANCH  11  12
HETATM   12  C   UNL     1      -9.894   7.862  68.609  1.00  0.00    -0.177 C  
BRANCH  12  13
HETATM   13  C   UNL     1      -8.914   8.414  67.565  1.00  0.00    -0.142 C  
HETATM   14  C   UNL     1      -7.621   7.609  67.383  1.00  0.00    -0.109 C  
HETATM   15  O   UNL     1      -7.857   6.207  67.465  1.00  0.00    -0.099 OA 
HETATM   16  C   UNL     1      -7.176   7.944  65.964  1.00  0.00    -0.073 C  
HETATM   17  C   UNL     1      -8.480   7.972  65.172  1.00  0.00    -0.100 C  
HETATM   18  H   UNL     1      -7.055   5.709  67.351  1.00  0.00     0.000 HD 
HETATM   19  O   UNL     1      -8.805   6.649  64.732  1.00  0.00    -0.339 OA 
HETATM   20  C   UNL     1      -9.566   8.475  66.154  1.00  0.00    -0.276 C  
HETATM   21  H   UNL     1      -9.617   6.666  64.239  1.00  0.00     0.000 HD 
BRANCH  20  22
HETATM   22  C   UNL     1     -10.123   9.867  65.915  1.00  0.00    -0.316 C  
HETATM   23  C   UNL     1      -9.414  11.007  65.819  1.00  0.00    -0.242 C  
BRANCH  23  24
HETATM   24  C   UNL     1      -9.958  12.408  65.637  1.00  0.00    -0.244 C  
HETATM   25  H   UNL     1     -10.390  13.589  64.134  1.00  0.00     0.000 HD 
HETATM   26  O   UNL     1     -10.049  12.710  64.248  1.00  0.00    -0.329 OA 
BRANCH  24  27
HETATM   27  C   UNL     1     -11.346  12.533  66.298  1.00  0.00    -0.338 C  
BRANCH  27  28
HETATM   28  O   UNL     1     -11.840  13.880  66.216  1.00  0.00    -0.367 OA 
BRANCH  28  29
HETATM   29  C   UNL     1     -11.557  14.651  67.316  1.00  0.00    -0.387 A  
HETATM   30  C   UNL     1     -11.889  14.301  68.627  1.00  0.00    -0.379 A  
HETATM   31  C   UNL     1     -11.549  15.143  69.689  1.00  0.00    -0.335 A  
HETATM   32  C   UNL     1     -10.869  16.334  69.445  1.00  0.00    -0.331 A  
HETATM   33  C   UNL     1     -10.514  16.696  68.140  1.00  0.00    -0.321 A  
HETATM   34  C   UNL     1      -9.779  17.986  67.875  1.00  0.00    -0.297 C  
HETATM   35  C   UNL     1     -10.854  15.837  67.079  1.00  0.00    -0.273 A  
HETATM   36  F   UNL     1      -9.563  18.727  69.000  1.00  0.00    -0.358 F  
HETATM   37  F   UNL     1     -10.451  18.805  67.019  1.00  0.00    -0.364 F  
HETATM   38  F   UNL     1      -8.551  17.789  67.322  1.00  0.00    -0.222 F  
ENDBRANCH  28  29
ENDBRANCH  27  28
ENDBRANCH  24  27
ENDBRANCH  23  24
ENDBRANCH  20  22
ENDBRANCH  12  13
ENDBRANCH  11  12
ENDBRANCH   9  10
ENDBRANCH   8   9
ENDBRANCH   7   8
ENDBRANCH   5   7
ENDBRANCH   4   5
ENDBRANCH   2   4
TORSDOF 13
ENDMDL
MODEL      242
REMARK 921   NORMALIZED FREE ENERGY PREDICTED BY IDOCK:   -4.79 KCAL/MOL
REMARK 922        TOTAL FREE ENERGY PREDICTED BY IDOCK:  -10.65 KCAL/MOL
REMARK 923 INTER-LIGAND FREE ENERGY PREDICTED BY IDOCK:   -7.55 KCAL/MOL
REMARK 924 INTRA-LIGAND FREE ENERGY PREDICTED BY IDOCK:   -3.10 KCAL/MOL
REMARK 927      BINDING AFFINITY PREDICTED BY RF-SCORE:    0.00 PKD
ROOT
HETATM    1  C   UNL     1     -10.846  10.637  65.960  1.00  0.00    -0.051 C  
HETATM    2  C   UNL     1     -10.709  11.694  64.869  1.00  0.00    -0.296 C  
HETATM    3  C   UNL     1     -10.412  11.044  63.522  1.00  0.00    -0.365 C  
ENDROOT
BRANCH   2   4
HETATM    4  O   UNL     1     -11.952  12.408  64.742  1.00  0.00    -0.378 OA 
BRANCH   4   5
HETATM    5  C   UNL     1     -11.837  13.680  64.265  1.00  0.00    -0.425 C  
HETATM    6  O   UNL     1     -12.594  14.197  63.454  1.00  0.00    -0.818 OA 
BRANCH   5   7
HETATM    7  C   UNL     1     -10.609  14.341  64.832  1.00  0.00    -0.452 C  
BRANCH   7   8
HETATM    8  C   UNL     1     -11.016  15.530  65.703  1.00  0.00    -0.307 C  
BRANCH   8   9
HETATM    9  C   UNL     1     -10.824  16.881  65.020  1.00  0.00    -0.077 C  
BRANCH   9  10
HETATM   10  C   UNL     1     -10.367  17.955  65.969  1.00  0.00    -0.318 C  
HETATM   11  C   UNL     1      -9.100  18.187  66.346  1.00  0.00    -0.255 C  
BRANCH  11  12
HETATM   12  C   UNL     1      -7.902  17.368  65.949  1.00  0.00    -0.077 C  
BRANCH  12  13
HETATM   13  C   UNL     1      -7.114  16.834  67.152  1.00  0.00    -0.222 C  
HETATM   14  C   UNL     1      -5.666  17.327  67.264  1.00  0.00    -0.142 C  
HETATM   15  O   UNL     1      -5.544  18.694  66.886  1.00  0.00    -0.143 OA 
HETATM   16  C   UNL     1      -5.349  17.206  68.750  1.00  0.00    -0.142 C  
HETATM   17  C   UNL     1      -6.636  17.659  69.433  1.00  0.00    -0.206 C  
HETATM   18  H   UNL     1      -4.647  19.000  66.955  1.00  0.00     0.000 HD 
HETATM   19  O   UNL     1      -6.632  19.083  69.573  1.00  0.00    -0.292 OA 
HETATM   20  C   UNL     1      -7.791  17.231  68.495  1.00  0.00    -0.266 C  
HETATM   21  H   UNL     1      -7.434  19.365  69.998  1.00  0.00     0.000 HD 
BRANCH  20  22
HETATM   22  C   UNL     1      -8.682  16.096  68.967  1.00  0.00    -0.254 C  
HETATM   23  C   UNL     1      -9.999  16.171  69.232  1.00  0.00    -0.253 C  
BRANCH  23  24
HETATM   24  C   UNL     1     -10.889  15.064  69.757  1.00  0.00    -0.261 C  
HETATM   25  H   UNL     1     -12.729  14.899  70.411  1.00  0.00     0.000 HD 
HETATM   26  O   UNL     1     -12.171  15.594  70.082  1.00  0.00    -0.379 OA 
BRANCH  24  27
HETATM   27  C   UNL     1     -11.029  13.945  68.705  1.00  0.00    -0.261 C  
BRANCH  27  28
HETATM   28  O   UNL     1     -10.451  12.716  69.174  1.00  0.00    -0.058 OA 
BRANCH  28  29
HETATM   29  C   UNL     1      -9.300  12.351  68.522  1.00  0.00    -0.088 A  
HETATM   30  C   UNL     1      -8.615  13.168  67.619  1.00  0.00    -0.193 A  
HETATM   31  C   UNL     1      -7.441  12.717  67.010  1.00  0.00     0.030 A  
HETATM   32  C   UNL     1      -6.942  11.451  67.309  1.00  0.00    -0.115 A  
HETATM   33  C   UNL     1      -7.605  10.623  68.223  1.00  0.00    -0.097 A  
HETATM   34  C   UNL     1      -7.066   9.251  68.545  1.00  0.00    -0.071 C  
HETATM   35  C   UNL     1      -8.782  11.090  68.836  1.00  0.00    -0.122 A  
HETATM   36  F   UNL     1      -5.945   8.929  67.837  1.00  0.00    -0.046 F  
HETATM   37  F   UNL     1      -7.964   8.261  68.283  1.00  0.00    -0.110 F  
HETATM   38  F   UNL     1      -6.726   9.114  69.856  1.00  0.00    -0.042 F  
ENDBRANCH  28  29
ENDBRANCH  27  28
ENDBRANCH  24  27
ENDBRANCH  23  24
ENDBRANCH  20  22
ENDBRANCH  12  13
ENDBRANCH  11  12
ENDBRANCH   9  10
ENDBRANCH   8   9
ENDBRANCH   7   8
ENDBRANCH   5   7
ENDBRANCH   4   5
ENDBRANCH   2   4
TORSDOF 13
ENDMDL
MODEL      243
REMARK 921   NORMALIZED FREE ENERGY PREDICTED BY IDOCK:   -4.78 KCAL/MOL
REMARK 922        TOTAL FREE ENERGY PREDICTED BY IDOCK:  -10.64 KCAL/MOL
REMARK 923 INTER-LIGAND FREE ENERGY PREDICTED BY IDOCK:   -7.80 KCAL/MOL
REMARK 924 INTRA-LIGAND FREE ENERGY PREDICTED BY IDOCK:   -2.83 KCAL/MOL
REMARK 927      BINDING AFFINITY PREDICTED BY RF-SCORE:    0.00 PKD
ROOT
HETATM    1  C   UNL     1     -13.763  13.195  72.385  1.00  0.00    -0.640 C  
HETATM    2  C   UNL     1     -12.623  13.601  71.458  1.00  0.00    -0.295 C  
HETATM    3  C   UNL     1     -12.378  12.528  70.402  1.00  0.00    -0.311 C  
ENDROOT
BRANCH   2   4
HETATM    4  O   UNL     1     -12.979  14.813  70.770  1.00  0.00    -0.349 OA 
BRANCH   4   5
HETATM    5  C   UNL     1     -11.932  15.638  70.480  1.00  0.00    -0.385 C  
HETATM    6  O   UNL     1     -11.163  16.111  71.305  1.00  0.00    -0.323 OA 
BRANCH   5   7
HETATM    7  C   UNL     1     -11.892  15.932  69.004  1.00  0.00    -0.328 C  
BRANCH   7   8
HETATM    8  C   UNL     1     -10.509  15.599  68.446  1.00  0.00    -0.242 C  
BRANCH   8   9
HETATM    9  C   UNL     1     -10.383  14.164  67.943  1.00  0.00    -0.234 C  
BRANCH   9  10
HETATM   10  C   UNL     1     -11.533  13.752  67.064  1.00  0.00    -0.368 C  
HETATM   11  C   UNL     1     -11.433  13.178  65.855  1.00  0.00    -0.366 C  
BRANCH  11  12
HETATM   12  C   UNL     1     -10.153  12.906  65.114  1.00  0.00    -0.241 C  
BRANCH  12  13
HETATM   13  C   UNL     1      -9.802  11.414  65.045  1.00  0.00    -0.304 C  
HETATM   14  C   UNL     1      -9.710  10.822  63.634  1.00  0.00    -0.327 C  
HETATM   15  O   UNL     1      -9.115  11.734  62.717  1.00  0.00    -0.606 OA 
HETATM   16  C   UNL     1      -8.783   9.623  63.798  1.00  0.00    -0.241 C  
HETATM   17  C   UNL     1      -7.714  10.122  64.766  1.00  0.00    -0.141 C  
HETATM   18  H   UNL     1      -9.057  11.366  61.843  1.00  0.00     0.000 HD 
HETATM   19  O   UNL     1      -6.680  10.793  64.039  1.00  0.00    -0.348 OA 
HETATM   20  C   UNL     1      -8.425  11.126  65.706  1.00  0.00    -0.076 C  
HETATM   21  H   UNL     1      -6.015  11.104  64.642  1.00  0.00     0.000 HD 
BRANCH  20  22
HETATM   22  C   UNL     1      -8.635  10.694  67.147  1.00  0.00    -0.127 C  
HETATM   23  C   UNL     1      -9.816  10.454  67.745  1.00  0.00    -0.193 C  
BRANCH  23  24
HETATM   24  C   UNL     1     -10.046  10.079  69.193  1.00  0.00    -0.208 C  
HETATM   25  H   UNL     1     -11.075   8.728  70.174  1.00  0.00     0.000 HD 
HETATM   26  O   UNL     1     -10.930   8.964  69.264  1.00  0.00    -0.144 OA 
BRANCH  24  27
HETATM   27  C   UNL     1      -8.707   9.737  69.877  1.00  0.00    -0.217 C  
BRANCH  27  28
HETATM   28  O   UNL     1      -8.573   8.321  70.079  1.00  0.00    -0.125 OA 
BRANCH  28  29
HETATM   29  C   UNL     1      -7.551   7.745  69.366  1.00  0.00    -0.101 A  
HETATM   30  C   UNL     1      -6.196   7.996  69.593  1.00  0.00    -0.033 A  
HETATM   31  C   UNL     1      -5.222   7.353  68.826  1.00  0.00    -0.021 A  
HETATM   32  C   UNL     1      -5.598   6.451  67.833  1.00  0.00    -0.008 A  
HETATM   33  C   UNL     1      -6.950   6.174  67.600  1.00  0.00    -0.069 A  
HETATM   34  C   UNL     1      -7.359   5.198  66.525  1.00  0.00    -0.086 C  
HETATM   35  C   UNL     1      -7.923   6.820  68.384  1.00  0.00    -0.115 A  
HETATM   36  F   UNL     1      -6.303   4.691  65.824  1.00  0.00    -0.034 F  
HETATM   37  F   UNL     1      -8.182   5.757  65.595  1.00  0.00    -0.106 F  
HETATM   38  F   UNL     1      -8.026   4.119  67.018  1.00  0.00    -0.093 F  
ENDBRANCH  28  29
ENDBRANCH  27  28
ENDBRANCH  24  27
ENDBRANCH  23  24
ENDBRANCH  20  22
ENDBRANCH  12  13
ENDBRANCH  11  12
ENDBRANCH   9  10
ENDBRANCH   8   9
ENDBRANCH   7   8
ENDBRANCH   5   7
ENDBRANCH   4   5
ENDBRANCH   2   4
TORSDOF 13
ENDMDL
MODEL      244
REMARK 921   NORMALIZED FREE ENERGY PREDICTED BY IDOCK:   -4.76 KCAL/MOL
REMARK 922        TOTAL FREE ENERGY PREDICTED BY IDOCK:  -10.60 KCAL/MOL
REMARK 923 INTER-LIGAND FREE ENERGY PREDICTED BY IDOCK:   -7.89 KCAL/MOL
REMARK 924 INTRA-LIGAND FREE ENERGY PREDICTED BY IDOCK:   -2.71 KCAL/MOL
REMARK 927      BINDING AFFINITY PREDICTED BY RF-SCORE:    0.00 PKD
ROOT
HETATM    1  C   UNL     1     -12.435  16.047  71.802  1.00  0.00    -0.457 C  
HETATM    2  C   UNL     1     -12.211  15.569  70.372  1.00  0.00    -0.406 C  
HETATM    3  C   UNL     1     -11.158  16.425  69.675  1.00  0.00    -0.306 C  
ENDROOT
BRANCH   2   4
HETATM    4  O   UNL     1     -11.725  14.215  70.394  1.00  0.00    -0.285 OA 
BRANCH   4   5
HETATM    5  C   UNL     1     -11.876  13.532  69.224  1.00  0.00    -0.341 C  
HETATM    6  O   UNL     1     -12.200  14.032  68.155  1.00  0.00    -0.325 OA 
BRANCH   5   7
HETATM    7  C   UNL     1     -11.646  12.060  69.445  1.00  0.00    -0.393 C  
BRANCH   7   8
HETATM    8  C   UNL     1     -10.677  11.522  68.392  1.00  0.00    -0.241 C  
BRANCH   8   9
HETATM    9  C   UNL     1     -11.283  10.440  67.502  1.00  0.00    -0.254 C  
BRANCH   9  10
HETATM   10  C   UNL     1     -10.326   9.315  67.220  1.00  0.00    -0.332 C  
HETATM   11  C   UNL     1     -10.232   8.168  67.913  1.00  0.00    -0.274 C  
BRANCH  11  12
HETATM   12  C   UNL     1     -11.014   7.823  69.150  1.00  0.00     0.029 C  
BRANCH  12  13
HETATM   13  C   UNL     1     -10.121   7.507  70.357  1.00  0.00    -0.196 C  
HETATM   14  C   UNL     1      -9.729   8.711  71.222  1.00  0.00    -0.237 C  
HETATM   15  O   UNL     1     -10.804   9.635  71.357  1.00  0.00    -0.340 OA 
HETATM   16  C   UNL     1      -9.438   8.103  72.589  1.00  0.00    -0.346 C  
HETATM   17  C   UNL     1     -10.521   7.040  72.751  1.00  0.00    -0.238 C  
HETATM   18  H   UNL     1     -10.561  10.381  71.893  1.00  0.00     0.000 HD 
HETATM   19  O   UNL     1     -11.703   7.635  73.295  1.00  0.00    -0.649 OA 
HETATM   20  C   UNL     1     -10.813   6.508  71.327  1.00  0.00    -0.294 C  
HETATM   21  H   UNL     1     -12.378   6.974  73.395  1.00  0.00     0.000 HD 
BRANCH  20  22
HETATM   22  C   UNL     1     -10.356   5.095  71.009  1.00  0.00    -0.278 C  
HETATM   23  C   UNL     1      -9.967   4.162  71.897  1.00  0.00    -0.253 C  
BRANCH  23  24
HETATM   24  C   UNL     1      -9.455   2.770  71.593  1.00  0.00    -0.141 C  
HETATM   25  H   UNL     1     -10.043   0.929  71.920  1.00  0.00     0.000 HD 
HETATM   26  O   UNL     1     -10.364   1.802  72.110  1.00  0.00    -0.157 OA 
BRANCH  24  27
HETATM   27  C   UNL     1      -9.289   2.580  70.071  1.00  0.00    -0.116 C  
BRANCH  27  28
HETATM   28  O   UNL     1      -7.929   2.805  69.665  1.00  0.00    -0.043 OA 
BRANCH  28  29
HETATM   29  C   UNL     1      -7.719   4.010  69.043  1.00  0.00    -0.053 A  
HETATM   30  C   UNL     1      -6.926   5.035  69.563  1.00  0.00    -0.054 A  
HETATM   31  C   UNL     1      -6.757   6.226  68.852  1.00  0.00    -0.060 A  
HETATM   32  C   UNL     1      -7.374   6.394  67.615  1.00  0.00    -0.088 A  
HETATM   33  C   UNL     1      -8.161   5.373  67.069  1.00  0.00    -0.104 A  
HETATM   34  C   UNL     1      -8.831   5.553  65.729  1.00  0.00    -0.153 C  
HETATM   35  C   UNL     1      -8.318   4.174  67.789  1.00  0.00    -0.096 A  
HETATM   36  F   UNL     1      -8.620   6.785  65.180  1.00  0.00    -0.138 F  
HETATM   37  F   UNL     1     -10.184   5.409  65.797  1.00  0.00    -0.161 F  
HETATM   38  F   UNL     1      -8.402   4.657  64.800  1.00  0.00    -0.108 F  
ENDBRANCH  28  29
ENDBRANCH  27  28
ENDBRANCH  24  27
ENDBRANCH  23  24
ENDBRANCH  20  22
ENDBRANCH  12  13
ENDBRANCH  11  12
ENDBRANCH   9  10
ENDBRANCH   8   9
ENDBRANCH   7   8
ENDBRANCH   5   7
ENDBRANCH   4   5
ENDBRANCH   2   4
TORSDOF 13
ENDMDL
MODEL      245
REMARK 921   NORMALIZED FREE ENERGY PREDICTED BY IDOCK:   -4.75 KCAL/MOL
REMARK 922        TOTAL FREE ENERGY PREDICTED BY IDOCK:  -10.59 KCAL/MOL
REMARK 923 INTER-LIGAND FREE ENERGY PREDICTED BY IDOCK:   -8.02 KCAL/MOL
REMARK 924 INTRA-LIGAND FREE ENERGY PREDICTED BY IDOCK:   -2.56 KCAL/MOL
REMARK 927      BINDING AFFINITY PREDICTED BY RF-SCORE:    0.00 PKD
ROOT
HETATM    1  C   UNL     1      -7.493   4.677  63.079  1.00  0.00    -0.053 C  
HETATM    2  C   UNL     1      -8.377   5.144  64.231  1.00  0.00    -0.137 C  
HETATM    3  C   UNL     1      -8.896   3.954  65.030  1.00  0.00    -0.126 C  
ENDROOT
BRANCH   2   4
HETATM    4  O   UNL     1      -7.599   5.962  65.124  1.00  0.00    -0.079 OA 
BRANCH   4   5
HETATM    5  C   UNL     1      -8.044   7.243  65.264  1.00  0.00    -0.134 C  
HETATM    6  O   UNL     1      -8.060   8.081  64.372  1.00  0.00    -0.148 OA 
BRANCH   5   7
HETATM    7  C   UNL     1      -8.458   7.500  66.688  1.00  0.00    -0.130 C  
BRANCH   7   8
HETATM    8  C   UNL     1      -9.933   7.142  66.872  1.00  0.00    -0.293 C  
BRANCH   8   9
HETATM    9  C   UNL     1     -10.453   7.404  68.283  1.00  0.00    -0.231 C  
BRANCH   9  10
HETATM   10  C   UNL     1      -9.370   7.335  69.325  1.00  0.00    -0.154 C  
HETATM   11  C   UNL     1      -9.318   6.471  70.351  1.00  0.00    -0.166 C  
BRANCH  11  12
HETATM   12  C   UNL     1     -10.373   5.458  70.700  1.00  0.00    -0.333 C  
BRANCH  12  13
HETATM   13  C   UNL     1     -10.818   5.533  72.166  1.00  0.00    -0.293 C  
HETATM   14  C   UNL     1     -10.375   4.363  73.052  1.00  0.00    -0.179 C  
HETATM   15  O   UNL     1      -9.058   3.929  72.732  1.00  0.00    -0.103 OA 
HETATM   16  C   UNL     1     -10.364   4.949  74.459  1.00  0.00    -0.324 C  
HETATM   17  C   UNL     1      -9.796   6.351  74.263  1.00  0.00    -0.302 C  
HETATM   18  H   UNL     1      -8.783   3.203  73.281  1.00  0.00     0.000 HD 
HETATM   19  O   UNL     1      -8.366   6.300  74.298  1.00  0.00    -0.117 OA 
HETATM   20  C   UNL     1     -10.266   6.810  72.861  1.00  0.00    -0.223 C  
HETATM   21  H   UNL     1      -8.012   7.174  74.176  1.00  0.00     0.000 HD 
BRANCH  20  22
HETATM   22  C   UNL     1     -11.313   7.908  72.808  1.00  0.00    -0.453 C  
HETATM   23  C   UNL     1     -12.289   8.039  71.891  1.00  0.00    -0.360 C  
BRANCH  23  24
HETATM   24  C   UNL     1     -13.304   9.157  71.791  1.00  0.00    -0.406 C  
HETATM   25  H   UNL     1     -14.596  10.025  72.983  1.00  0.00     0.000 HD 
HETATM   26  O   UNL     1     -13.958   9.323  73.046  1.00  0.00    -0.333 OA 
BRANCH  24  27
HETATM   27  C   UNL     1     -12.615  10.472  71.375  1.00  0.00    -0.434 C  
BRANCH  27  28
HETATM   28  O   UNL     1     -12.726  10.692  69.959  1.00  0.00    -0.278 OA 
BRANCH  28  29
HETATM   29  C   UNL     1     -11.870  11.645  69.468  1.00  0.00    -0.348 A  
HETATM   30  C   UNL     1     -12.008  13.017  69.694  1.00  0.00    -0.367 A  
HETATM   31  C   UNL     1     -11.079  13.915  69.164  1.00  0.00    -0.284 A  
HETATM   32  C   UNL     1     -10.003  13.446  68.413  1.00  0.00    -0.231 A  
HETATM   33  C   UNL     1      -9.839  12.074  68.188  1.00  0.00    -0.201 A  
HETATM   34  C   UNL     1      -8.675  11.565  67.374  1.00  0.00    -0.147 C  
HETATM   35  C   UNL     1     -10.775  11.177  68.733  1.00  0.00    -0.236 A  
HETATM   36  F   UNL     1      -7.884  12.560  66.879  1.00  0.00    -0.158 F  
HETATM   37  F   UNL     1      -9.071  10.838  66.292  1.00  0.00    -0.162 F  
HETATM   38  F   UNL     1      -7.846  10.756  68.088  1.00  0.00    -0.100 F  
ENDBRANCH  28  29
ENDBRANCH  27  28
ENDBRANCH  24  27
ENDBRANCH  23  24
ENDBRANCH  20  22
ENDBRANCH  12  13
ENDBRANCH  11  12
ENDBRANCH   9  10
ENDBRANCH   8   9
ENDBRANCH   7   8
ENDBRANCH   5   7
ENDBRANCH   4   5
ENDBRANCH   2   4
TORSDOF 13
ENDMDL
MODEL      246
REMARK 921   NORMALIZED FREE ENERGY PREDICTED BY IDOCK:   -4.75 KCAL/MOL
REMARK 922        TOTAL FREE ENERGY PREDICTED BY IDOCK:  -10.58 KCAL/MOL
REMARK 923 INTER-LIGAND FREE ENERGY PREDICTED BY IDOCK:   -8.66 KCAL/MOL
REMARK 924 INTRA-LIGAND FREE ENERGY PREDICTED BY IDOCK:   -1.92 KCAL/MOL
REMARK 927      BINDING AFFINITY PREDICTED BY RF-SCORE:    0.00 PKD
ROOT
HETATM    1  C   UNL     1      -9.807   3.978  64.151  1.00  0.00    -0.170 C  
HETATM    2  C   UNL     1      -9.280   4.420  65.512  1.00  0.00    -0.150 C  
HETATM    3  C   UNL     1     -10.295   5.311  66.222  1.00  0.00    -0.287 C  
ENDROOT
BRANCH   2   4
HETATM    4  O   UNL     1      -9.066   3.262  66.338  1.00  0.00    -0.144 OA 
BRANCH   4   5
HETATM    5  C   UNL     1      -7.769   3.042  66.696  1.00  0.00    -0.076 C  
HETATM    6  O   UNL     1      -6.797   3.292  65.996  1.00  0.00    -0.050 OA 
BRANCH   5   7
HETATM    7  C   UNL     1      -7.705   2.393  68.053  1.00  0.00    -0.055 C  
BRANCH   7   8
HETATM    8  C   UNL     1      -7.384   3.444  69.116  1.00  0.00    -0.049 C  
BRANCH   8   9
HETATM    9  C   UNL     1      -8.409   3.500  70.246  1.00  0.00    -0.084 C  
BRANCH   9  10
HETATM   10  C   UNL     1      -9.770   3.938  69.777  1.00  0.00    -0.227 C  
HETATM   11  C   UNL     1     -10.251   5.191  69.815  1.00  0.00    -0.357 C  
BRANCH  11  12
HETATM   12  C   UNL     1      -9.549   6.383  70.405  1.00  0.00    -0.178 C  
BRANCH  12  13
HETATM   13  C   UNL     1     -10.030   6.724  71.821  1.00  0.00    -0.184 C  
HETATM   14  C   UNL     1      -9.395   5.902  72.949  1.00  0.00    -0.147 C  
HETATM   15  O   UNL     1      -8.013   5.655  72.708  1.00  0.00    -0.101 OA 
HETATM   16  C   UNL     1      -9.521   6.800  74.175  1.00  0.00    -0.268 C  
HETATM   17  C   UNL     1      -9.219   8.195  73.635  1.00  0.00    -0.107 C  
HETATM   18  H   UNL     1      -7.620   5.146  73.408  1.00  0.00     0.000 HD 
HETATM   19  O   UNL     1      -7.805   8.420  73.644  1.00  0.00    -0.290 OA 
HETATM   20  C   UNL     1      -9.738   8.209  72.176  1.00  0.00    -0.311 C  
HETATM   21  H   UNL     1      -7.617   9.288  73.308  1.00  0.00     0.000 HD 
BRANCH  20  22
HETATM   22  C   UNL     1     -10.969   9.050  71.889  1.00  0.00    -0.423 C  
HETATM   23  C   UNL     1     -11.220   9.742  70.763  1.00  0.00    -0.419 C  
BRANCH  23  24
HETATM   24  C   UNL     1     -12.415  10.629  70.483  1.00  0.00    -0.358 C  
HETATM   25  H   UNL     1     -13.421  12.014  71.437  1.00  0.00     0.000 HD 
HETATM   26  O   UNL     1     -12.671  11.458  71.613  1.00  0.00    -0.375 OA 
BRANCH  24  27
HETATM   27  C   UNL     1     -12.157  11.498  69.236  1.00  0.00    -0.278 C  
BRANCH  27  28
HETATM   28  O   UNL     1     -10.853  11.246  68.688  1.00  0.00    -0.180 OA 
BRANCH  28  29
HETATM   29  C   UNL     1     -10.788  11.344  67.320  1.00  0.00    -0.263 A  
HETATM   30  C   UNL     1     -10.089  10.453  66.501  1.00  0.00    -0.285 A  
HETATM   31  C   UNL     1     -10.090  10.623  65.114  1.00  0.00    -0.374 A  
HETATM   32  C   UNL     1     -10.794  11.679  64.540  1.00  0.00    -0.383 A  
HETATM   33  C   UNL     1     -11.513  12.573  65.342  1.00  0.00    -0.383 A  
HETATM   34  C   UNL     1     -12.276  13.717  64.722  1.00  0.00    -0.406 C  
HETATM   35  C   UNL     1     -11.513  12.388  66.737  1.00  0.00    -0.423 A  
HETATM   36  F   UNL     1     -12.140  13.786  63.366  1.00  0.00    -0.485 F  
HETATM   37  F   UNL     1     -11.875  14.930  65.194  1.00  0.00    -0.353 F  
HETATM   38  F   UNL     1     -13.615  13.645  64.955  1.00  0.00    -0.040 F  
ENDBRANCH  28  29
ENDBRANCH  27  28
ENDBRANCH  24  27
ENDBRANCH  23  24
ENDBRANCH  20  22
ENDBRANCH  12  13
ENDBRANCH  11  12
ENDBRANCH   9  10
ENDBRANCH   8   9
ENDBRANCH   7   8
ENDBRANCH   5   7
ENDBRANCH   4   5
ENDBRANCH   2   4
TORSDOF 13
ENDMDL
MODEL      247
REMARK 921   NORMALIZED FREE ENERGY PREDICTED BY IDOCK:   -4.75 KCAL/MOL
REMARK 922        TOTAL FREE ENERGY PREDICTED BY IDOCK:  -10.58 KCAL/MOL
REMARK 923 INTER-LIGAND FREE ENERGY PREDICTED BY IDOCK:   -8.90 KCAL/MOL
REMARK 924 INTRA-LIGAND FREE ENERGY PREDICTED BY IDOCK:   -1.68 KCAL/MOL
REMARK 927      BINDING AFFINITY PREDICTED BY RF-SCORE:    0.00 PKD
ROOT
HETATM    1  C   UNL     1     -11.749   6.213  72.504  1.00  0.00    -0.259 C  
HETATM    2  C   UNL     1     -10.501   6.006  73.355  1.00  0.00    -0.249 C  
HETATM    3  C   UNL     1     -10.586   4.692  74.126  1.00  0.00    -0.348 C  
ENDROOT
BRANCH   2   4
HETATM    4  O   UNL     1      -9.348   5.931  72.497  1.00  0.00    -0.142 OA 
BRANCH   4   5
HETATM    5  C   UNL     1      -8.695   7.113  72.310  1.00  0.00    -0.120 C  
HETATM    6  O   UNL     1      -8.331   7.864  73.205  1.00  0.00    -0.144 OA 
BRANCH   5   7
HETATM    7  C   UNL     1      -8.538   7.395  70.839  1.00  0.00    -0.135 C  
BRANCH   7   8
HETATM    8  C   UNL     1      -9.384   8.608  70.450  1.00  0.00    -0.191 C  
BRANCH   8   9
HETATM    9  C   UNL     1     -10.659   8.245  69.696  1.00  0.00    -0.222 C  
BRANCH   9  10
HETATM   10  C   UNL     1     -10.652   6.829  69.186  1.00  0.00    -0.261 C  
HETATM   11  C   UNL     1     -10.546   6.455  67.901  1.00  0.00    -0.321 C  
BRANCH  11  12
HETATM   12  C   UNL     1     -10.491   7.381  66.718  1.00  0.00    -0.316 C  
BRANCH  12  13
HETATM   13  C   UNL     1      -9.262   8.300  66.730  1.00  0.00    -0.212 C  
HETATM   14  C   UNL     1      -7.913   7.595  66.913  1.00  0.00    -0.115 C  
HETATM   15  O   UNL     1      -7.866   6.355  66.214  1.00  0.00    -0.097 OA 
HETATM   16  C   UNL     1      -6.909   8.549  66.276  1.00  0.00    -0.073 C  
HETATM   17  C   UNL     1      -7.632   9.059  65.033  1.00  0.00    -0.103 C  
HETATM   18  H   UNL     1      -7.030   5.918  66.327  1.00  0.00     0.000 HD 
HETATM   19  O   UNL     1      -7.423   8.151  63.947  1.00  0.00    -0.101 OA 
HETATM   20  C   UNL     1      -9.136   9.094  65.399  1.00  0.00    -0.271 C  
HETATM   21  H   UNL     1      -7.874   8.468  63.173  1.00  0.00     0.000 HD 
BRANCH  20  22
HETATM   22  C   UNL     1      -9.776  10.462  65.564  1.00  0.00    -0.307 C  
HETATM   23  C   UNL     1     -10.785  10.967  64.830  1.00  0.00    -0.248 C  
BRANCH  23  24
HETATM   24  C   UNL     1     -11.395  12.347  64.944  1.00  0.00    -0.317 C  
HETATM   25  H   UNL     1     -13.175  13.144  64.747  1.00  0.00     0.000 HD 
HETATM   26  O   UNL     1     -12.792  12.277  64.676  1.00  0.00    -0.665 OA 
BRANCH  24  27
HETATM   27  C   UNL     1     -11.155  12.923  66.354  1.00  0.00    -0.285 C  
BRANCH  27  28
HETATM   28  O   UNL     1     -10.178  13.977  66.326  1.00  0.00    -0.281 OA 
BRANCH  28  29
HETATM   29  C   UNL     1     -10.420  14.993  67.217  1.00  0.00    -0.265 A  
HETATM   30  C   UNL     1     -10.050  16.324  67.010  1.00  0.00    -0.270 A  
HETATM   31  C   UNL     1     -10.349  17.296  67.968  1.00  0.00    -0.353 A  
HETATM   32  C   UNL     1     -11.026  16.943  69.133  1.00  0.00    -0.151 A  
HETATM   33  C   UNL     1     -11.418  15.617  69.353  1.00  0.00    -0.354 A  
HETATM   34  C   UNL     1     -12.150  15.233  70.615  1.00  0.00    -0.354 C  
HETATM   35  C   UNL     1     -11.120  14.648  68.378  1.00  0.00    -0.270 A  
HETATM   36  F   UNL     1     -12.324  16.275  71.478  1.00  0.00    -0.472 F  
HETATM   37  F   UNL     1     -11.499  14.271  71.326  1.00  0.00    -0.284 F  
HETATM   38  F   UNL     1     -13.396  14.743  70.373  1.00  0.00    -0.342 F  
ENDBRANCH  28  29
ENDBRANCH  27  28
ENDBRANCH  24  27
ENDBRANCH  23  24
ENDBRANCH  20  22
ENDBRANCH  12  13
ENDBRANCH  11  12
ENDBRANCH   9  10
ENDBRANCH   8   9
ENDBRANCH   7   8
ENDBRANCH   5   7
ENDBRANCH   4   5
ENDBRANCH   2   4
TORSDOF 13
ENDMDL
MODEL      248
REMARK 921   NORMALIZED FREE ENERGY PREDICTED BY IDOCK:   -4.74 KCAL/MOL
REMARK 922        TOTAL FREE ENERGY PREDICTED BY IDOCK:  -10.57 KCAL/MOL
REMARK 923 INTER-LIGAND FREE ENERGY PREDICTED BY IDOCK:   -6.88 KCAL/MOL
REMARK 924 INTRA-LIGAND FREE ENERGY PREDICTED BY IDOCK:   -3.68 KCAL/MOL
REMARK 927      BINDING AFFINITY PREDICTED BY RF-SCORE:    0.00 PKD
ROOT
HETATM    1  C   UNL     1     -12.447  11.310  70.396  1.00  0.00    -0.355 C  
HETATM    2  C   UNL     1     -11.309  11.401  69.385  1.00  0.00    -0.297 C  
HETATM    3  C   UNL     1     -10.181  10.443  69.754  1.00  0.00    -0.228 C  
ENDROOT
BRANCH   2   4
HETATM    4  O   UNL     1     -11.796  11.017  68.086  1.00  0.00    -0.573 OA 
BRANCH   4   5
HETATM    5  C   UNL     1     -11.105  11.544  67.035  1.00  0.00    -0.307 C  
HETATM    6  O   UNL     1     -10.833  12.729  66.898  1.00  0.00    -0.247 OA 
BRANCH   5   7
HETATM    7  C   UNL     1     -10.775  10.468  66.035  1.00  0.00    -0.086 C  
BRANCH   7   8
HETATM    8  C   UNL     1      -9.960   9.365  66.710  1.00  0.00    -0.305 C  
BRANCH   8   9
HETATM    9  C   UNL     1     -10.629   7.994  66.656  1.00  0.00    -0.074 C  
BRANCH   9  10
HETATM   10  C   UNL     1      -9.718   6.883  67.103  1.00  0.00    -0.197 C  
HETATM   11  C   UNL     1      -9.945   6.040  68.123  1.00  0.00    -0.168 C  
BRANCH  11  12
HETATM   12  C   UNL     1     -11.117   6.094  69.063  1.00  0.00    -0.437 C  
BRANCH  12  13
HETATM   13  C   UNL     1     -10.813   6.853  70.362  1.00  0.00    -0.297 C  
HETATM   14  C   UNL     1     -12.000   7.597  70.985  1.00  0.00    -0.273 C  
HETATM   15  O   UNL     1     -13.210   6.858  70.861  1.00  0.00    -0.442 OA 
HETATM   16  C   UNL     1     -11.640   7.694  72.462  1.00  0.00    -0.382 C  
HETATM   17  C   UNL     1     -11.011   6.339  72.771  1.00  0.00    -0.260 C  
HETATM   18  H   UNL     1     -13.946   7.319  71.247  1.00  0.00     0.000 HD 
HETATM   19  O   UNL     1     -12.035   5.398  73.107  1.00  0.00    -0.546 OA 
HETATM   20  C   UNL     1     -10.299   5.892  71.471  1.00  0.00    -0.273 C  
HETATM   21  H   UNL     1     -11.643   4.554  73.299  1.00  0.00     0.000 HD 
BRANCH  20  22
HETATM   22  C   UNL     1      -8.781   5.894  71.478  1.00  0.00    -0.132 C  
HETATM   23  C   UNL     1      -7.983   6.970  71.603  1.00  0.00    -0.099 C  
BRANCH  23  24
HETATM   24  C   UNL     1      -6.470   6.995  71.555  1.00  0.00    -0.041 C  
HETATM   25  H   UNL     1      -5.024   5.686  71.364  1.00  0.00     0.000 HD 
HETATM   26  O   UNL     1      -5.974   5.670  71.394  1.00  0.00    -0.027 OA 
BRANCH  24  27
HETATM   27  C   UNL     1      -5.986   7.888  70.395  1.00  0.00    -0.029 C  
BRANCH  27  28
HETATM   28  O   UNL     1      -6.341   7.323  69.122  1.00  0.00    -0.034 OA 
BRANCH  28  29
HETATM   29  C   UNL     1      -6.407   8.236  68.100  1.00  0.00    -0.055 A  
HETATM   30  C   UNL     1      -6.310   7.907  66.745  1.00  0.00    -0.054 A  
HETATM   31  C   UNL     1      -6.401   8.904  65.770  1.00  0.00    -0.056 A  
HETATM   32  C   UNL     1      -6.597  10.231  66.144  1.00  0.00    -0.105 A  
HETATM   33  C   UNL     1      -6.712  10.579  67.495  1.00  0.00    -0.070 A  
HETATM   34  C   UNL     1      -6.923  12.017  67.901  1.00  0.00    -0.095 C  
HETATM   35  C   UNL     1      -6.627   9.567  68.469  1.00  0.00    -0.053 A  
HETATM   36  F   UNL     1      -6.939  12.881  66.846  1.00  0.00    -0.085 F  
HETATM   37  F   UNL     1      -5.949  12.473  68.736  1.00  0.00    -0.060 F  
HETATM   38  F   UNL     1      -8.101  12.211  68.554  1.00  0.00    -0.139 F  
ENDBRANCH  28  29
ENDBRANCH  27  28
ENDBRANCH  24  27
ENDBRANCH  23  24
ENDBRANCH  20  22
ENDBRANCH  12  13
ENDBRANCH  11  12
ENDBRANCH   9  10
ENDBRANCH   8   9
ENDBRANCH   7   8
ENDBRANCH   5   7
ENDBRANCH   4   5
ENDBRANCH   2   4
TORSDOF 13
ENDMDL
MODEL      249
REMARK 921   NORMALIZED FREE ENERGY PREDICTED BY IDOCK:   -4.74 KCAL/MOL
REMARK 922        TOTAL FREE ENERGY PREDICTED BY IDOCK:  -10.56 KCAL/MOL
REMARK 923 INTER-LIGAND FREE ENERGY PREDICTED BY IDOCK:   -8.18 KCAL/MOL
REMARK 924 INTRA-LIGAND FREE ENERGY PREDICTED BY IDOCK:   -2.38 KCAL/MOL
REMARK 927      BINDING AFFINITY PREDICTED BY RF-SCORE:    0.00 PKD
ROOT
HETATM    1  C   UNL     1      -6.453   4.670  63.453  1.00  0.00    -0.026 C  
HETATM    2  C   UNL     1      -6.693   4.403  64.934  1.00  0.00    -0.045 C  
HETATM    3  C   UNL     1      -5.481   3.723  65.564  1.00  0.00    -0.010 C  
ENDROOT
BRANCH   2   4
HETATM    4  O   UNL     1      -6.892   5.654  65.617  1.00  0.00    -0.053 OA 
BRANCH   4   5
HETATM    5  C   UNL     1      -7.672   5.582  66.732  1.00  0.00    -0.100 C  
HETATM    6  O   UNL     1      -8.673   4.887  66.845  1.00  0.00    -0.109 OA 
BRANCH   5   7
HETATM    7  C   UNL     1      -7.162   6.526  67.788  1.00  0.00    -0.090 C  
BRANCH   7   8
HETATM    8  C   UNL     1      -8.002   6.387  69.058  1.00  0.00    -0.111 C  
BRANCH   8   9
HETATM    9  C   UNL     1      -9.104   7.435  69.178  1.00  0.00    -0.134 C  
BRANCH   9  10
HETATM   10  C   UNL     1      -8.636   8.698  69.848  1.00  0.00    -0.131 C  
HETATM   11  C   UNL     1      -9.015   9.134  71.060  1.00  0.00    -0.281 C  
BRANCH  11  12
HETATM   12  C   UNL     1     -10.038   8.482  71.947  1.00  0.00    -0.367 C  
BRANCH  12  13
HETATM   13  C   UNL     1     -11.441   8.453  71.327  1.00  0.00    -0.325 C  
HETATM   14  C   UNL     1     -12.263   7.190  71.612  1.00  0.00    -0.350 C  
HETATM   15  O   UNL     1     -12.064   6.721  72.942  1.00  0.00    -0.417 OA 
HETATM   16  C   UNL     1     -13.709   7.652  71.472  1.00  0.00    -0.440 C  
HETATM   17  C   UNL     1     -13.711   9.036  72.114  1.00  0.00    -0.480 C  
HETATM   18  H   UNL     1     -12.574   5.938  73.118  1.00  0.00     0.000 HD 
HETATM   19  O   UNL     1     -13.912   8.912  73.526  1.00  0.00    -1.160 OA 
HETATM   20  C   UNL     1     -12.311   9.636  71.839  1.00  0.00    -0.437 C  
HETATM   21  H   UNL     1     -13.913   9.774  73.925  1.00  0.00     0.000 HD 
BRANCH  20  22
HETATM   22  C   UNL     1     -12.233  10.785  70.849  1.00  0.00    -0.487 C  
HETATM   23  C   UNL     1     -11.799  10.717  69.577  1.00  0.00    -0.380 C  
BRANCH  23  24
HETATM   24  C   UNL     1     -11.663  11.862  68.597  1.00  0.00    -0.323 C  
HETATM   25  H   UNL     1     -11.164  13.756  68.672  1.00  0.00     0.000 HD 
HETATM   26  O   UNL     1     -11.249  13.037  69.287  1.00  0.00    -0.250 OA 
BRANCH  24  27
HETATM   27  C   UNL     1     -10.642  11.507  67.497  1.00  0.00    -0.206 C  
BRANCH  27  28
HETATM   28  O   UNL     1      -9.294  11.674  67.966  1.00  0.00    -0.165 OA 
BRANCH  28  29
HETATM   29  C   UNL     1      -8.348  11.046  67.195  1.00  0.00    -0.132 A  
HETATM   30  C   UNL     1      -7.121  10.584  67.677  1.00  0.00    -0.084 A  
HETATM   31  C   UNL     1      -6.223   9.943  66.821  1.00  0.00    -0.064 A  
HETATM   32  C   UNL     1      -6.550   9.754  65.480  1.00  0.00    -0.085 A  
HETATM   33  C   UNL     1      -7.781  10.196  64.980  1.00  0.00    -0.141 A  
HETATM   34  C   UNL     1      -8.136   9.993  63.528  1.00  0.00    -0.159 C  
HETATM   35  C   UNL     1      -8.682  10.833  65.853  1.00  0.00    -0.189 A  
HETATM   36  F   UNL     1      -7.141   9.403  62.805  1.00  0.00    -0.103 F  
HETATM   37  F   UNL     1      -8.411  11.164  62.888  1.00  0.00    -0.151 F  
HETATM   38  F   UNL     1      -9.233   9.205  63.359  1.00  0.00    -0.190 F  
ENDBRANCH  28  29
ENDBRANCH  27  28
ENDBRANCH  24  27
ENDBRANCH  23  24
ENDBRANCH  20  22
ENDBRANCH  12  13
ENDBRANCH  11  12
ENDBRANCH   9  10
ENDBRANCH   8   9
ENDBRANCH   7   8
ENDBRANCH   5   7
ENDBRANCH   4   5
ENDBRANCH   2   4
TORSDOF 13
ENDMDL
MODEL      250
REMARK 921   NORMALIZED FREE ENERGY PREDICTED BY IDOCK:   -4.73 KCAL/MOL
REMARK 922        TOTAL FREE ENERGY PREDICTED BY IDOCK:  -10.55 KCAL/MOL
REMARK 923 INTER-LIGAND FREE ENERGY PREDICTED BY IDOCK:   -9.07 KCAL/MOL
REMARK 924 INTRA-LIGAND FREE ENERGY PREDICTED BY IDOCK:   -1.47 KCAL/MOL
REMARK 927      BINDING AFFINITY PREDICTED BY RF-SCORE:    0.00 PKD
ROOT
HETATM    1  C   UNL     1     -11.782   8.504  72.299  1.00  0.00    -0.443 C  
HETATM    2  C   UNL     1     -10.569   7.591  72.448  1.00  0.00    -0.251 C  
HETATM    3  C   UNL     1     -10.960   6.281  73.124  1.00  0.00    -0.251 C  
ENDROOT
BRANCH   2   4
HETATM    4  O   UNL     1     -10.053   7.270  71.144  1.00  0.00    -0.187 OA 
BRANCH   4   5
HETATM    5  C   UNL     1     -10.780   6.349  70.450  1.00  0.00    -0.262 C  
HETATM    6  O   UNL     1     -11.893   6.543  69.979  1.00  0.00    -0.404 OA 
BRANCH   5   7
HETATM    7  C   UNL     1     -10.045   5.036  70.396  1.00  0.00    -0.330 C  
BRANCH   7   8
HETATM    8  C   UNL     1      -8.932   5.107  69.350  1.00  0.00    -0.127 C  
BRANCH   8   9
HETATM    9  C   UNL     1      -9.303   4.461  68.019  1.00  0.00    -0.191 C  
BRANCH   9  10
HETATM   10  C   UNL     1      -8.232   4.621  66.975  1.00  0.00    -0.106 C  
HETATM   11  C   UNL     1      -8.165   5.601  66.059  1.00  0.00    -0.113 C  
BRANCH  11  12
HETATM   12  C   UNL     1      -9.190   6.682  65.853  1.00  0.00    -0.010 C  
BRANCH  12  13
HETATM   13  C   UNL     1      -8.566   8.061  65.598  1.00  0.00    -0.167 C  
HETATM   14  C   UNL     1      -7.789   8.201  64.284  1.00  0.00    -0.137 C  
HETATM   15  O   UNL     1      -8.423   7.501  63.219  1.00  0.00    -0.367 OA 
HETATM   16  C   UNL     1      -7.842   9.694  63.982  1.00  0.00    -0.137 C  
HETATM   17  C   UNL     1      -9.262  10.093  64.374  1.00  0.00    -0.258 C  
HETATM   18  H   UNL     1      -7.941   7.588  62.404  1.00  0.00     0.000 HD 
HETATM   19  O   UNL     1     -10.148   9.863  63.275  1.00  0.00    -0.386 OA 
HETATM   20  C   UNL     1      -9.652   9.174  65.558  1.00  0.00    -0.239 C  
HETATM   21  H   UNL     1     -11.032  10.111  63.519  1.00  0.00     0.000 HD 
BRANCH  20  22
HETATM   22  C   UNL     1      -9.764   9.820  66.927  1.00  0.00    -0.243 C  
HETATM   23  C   UNL     1     -10.722   9.589  67.844  1.00  0.00    -0.285 C  
BRANCH  23  24
HETATM   24  C   UNL     1     -10.880  10.265  69.189  1.00  0.00    -0.233 C  
HETATM   25  H   UNL     1      -9.701  10.851  70.642  1.00  0.00     0.000 HD 
HETATM   26  O   UNL     1      -9.602  10.427  69.797  1.00  0.00    -0.165 OA 
BRANCH  24  27
HETATM   27  C   UNL     1     -11.565  11.636  69.022  1.00  0.00    -0.316 C  
BRANCH  27  28
HETATM   28  O   UNL     1     -10.649  12.615  68.504  1.00  0.00    -0.236 OA 
BRANCH  28  29
HETATM   29  C   UNL     1     -11.097  13.267  67.382  1.00  0.00    -0.278 A  
HETATM   30  C   UNL     1     -11.974  12.710  66.448  1.00  0.00    -0.425 A  
HETATM   31  C   UNL     1     -12.389  13.454  65.340  1.00  0.00    -0.522 A  
HETATM   32  C   UNL     1     -11.935  14.759  65.166  1.00  0.00    -0.278 A  
HETATM   33  C   UNL     1     -11.068  15.340  66.099  1.00  0.00    -0.280 A  
HETATM   34  C   UNL     1     -10.575  16.754  65.911  1.00  0.00    -0.248 C  
HETATM   35  C   UNL     1     -10.663  14.586  67.215  1.00  0.00    -0.287 A  
HETATM   36  F   UNL     1     -11.021  17.334  64.759  1.00  0.00    -0.377 F  
HETATM   37  F   UNL     1      -9.216  16.831  65.859  1.00  0.00    -0.300 F  
HETATM   38  F   UNL     1     -10.962  17.585  66.917  1.00  0.00    -0.234 F  
ENDBRANCH  28  29
ENDBRANCH  27  28
ENDBRANCH  24  27
ENDBRANCH  23  24
ENDBRANCH  20  22
ENDBRANCH  12  13
ENDBRANCH  11  12
ENDBRANCH   9  10
ENDBRANCH   8   9
ENDBRANCH   7   8
ENDBRANCH   5   7
ENDBRANCH   4   5
ENDBRANCH   2   4
TORSDOF 13
ENDMDL
MODEL      251
REMARK 921   NORMALIZED FREE ENERGY PREDICTED BY IDOCK:   -4.73 KCAL/MOL
REMARK 922        TOTAL FREE ENERGY PREDICTED BY IDOCK:  -10.55 KCAL/MOL
REMARK 923 INTER-LIGAND FREE ENERGY PREDICTED BY IDOCK:   -8.56 KCAL/MOL
REMARK 924 INTRA-LIGAND FREE ENERGY PREDICTED BY IDOCK:   -1.99 KCAL/MOL
REMARK 927      BINDING AFFINITY PREDICTED BY RF-SCORE:    0.00 PKD
ROOT
HETATM    1  C   UNL     1     -11.021  10.092  69.521  1.00  0.00    -0.289 C  
HETATM    2  C   UNL     1     -11.367   9.148  70.668  1.00  0.00    -0.273 C  
HETATM    3  C   UNL     1     -10.351   9.277  71.799  1.00  0.00    -0.204 C  
ENDROOT
BRANCH   2   4
HETATM    4  O   UNL     1     -12.656   9.501  71.200  1.00  0.00    -0.312 OA 
BRANCH   4   5
HETATM    5  C   UNL     1     -13.255   8.528  71.945  1.00  0.00    -0.369 C  
HETATM    6  O   UNL     1     -13.964   8.729  72.922  1.00  0.00    -0.352 OA 
BRANCH   5   7
HETATM    7  C   UNL     1     -12.872   7.166  71.431  1.00  0.00    -0.431 C  
BRANCH   7   8
HETATM    8  C   UNL     1     -12.132   6.389  72.520  1.00  0.00    -0.069 C  
BRANCH   8   9
HETATM    9  C   UNL     1     -11.214   5.299  71.975  1.00  0.00    -0.091 C  
BRANCH   9  10
HETATM   10  C   UNL     1      -9.795   5.768  71.797  1.00  0.00    -0.200 C  
HETATM   11  C   UNL     1      -9.190   6.019  70.626  1.00  0.00    -0.161 C  
BRANCH  11  12
HETATM   12  C   UNL     1      -9.791   5.807  69.263  1.00  0.00    -0.220 C  
BRANCH  12  13
HETATM   13  C   UNL     1      -8.814   6.113  68.120  1.00  0.00    -0.112 C  
HETATM   14  C   UNL     1      -7.995   4.920  67.614  1.00  0.00    -0.094 C  
HETATM   15  O   UNL     1      -8.767   3.724  67.587  1.00  0.00    -0.096 OA 
HETATM   16  C   UNL     1      -7.637   5.299  66.182  1.00  0.00    -0.087 C  
HETATM   17  C   UNL     1      -8.907   5.961  65.655  1.00  0.00    -0.118 C  
HETATM   18  H   UNL     1      -8.259   2.985  67.273  1.00  0.00     0.000 HD 
HETATM   19  O   UNL     1      -9.795   4.962  65.144  1.00  0.00    -0.345 OA 
HETATM   20  C   UNL     1      -9.559   6.663  66.871  1.00  0.00    -0.194 C  
HETATM   21  H   UNL     1     -10.586   5.374  64.816  1.00  0.00     0.000 HD 
BRANCH  20  22
HETATM   22  C   UNL     1      -9.528   8.181  66.892  1.00  0.00    -0.244 C  
HETATM   23  C   UNL     1      -9.764   9.000  65.850  1.00  0.00    -0.306 C  
BRANCH  23  24
HETATM   24  C   UNL     1      -9.682  10.511  65.841  1.00  0.00    -0.217 C  
HETATM   25  H   UNL     1      -8.842  11.890  64.729  1.00  0.00     0.000 HD 
HETATM   26  O   UNL     1      -8.893  10.941  64.735  1.00  0.00    -0.177 OA 
BRANCH  24  27
HETATM   27  C   UNL     1     -11.094  11.124  65.754  1.00  0.00    -0.014 C  
BRANCH  27  28
HETATM   28  O   UNL     1     -11.040  12.501  65.345  1.00  0.00    -0.287 OA 
BRANCH  28  29
HETATM   29  C   UNL     1     -11.208  13.399  66.369  1.00  0.00    -0.304 A  
HETATM   30  C   UNL     1     -11.855  13.106  67.572  1.00  0.00    -0.409 A  
HETATM   31  C   UNL     1     -11.969  14.081  68.566  1.00  0.00    -0.383 A  
HETATM   32  C   UNL     1     -11.430  15.350  68.365  1.00  0.00    -0.365 A  
HETATM   33  C   UNL     1     -10.765  15.658  67.172  1.00  0.00    -0.314 A  
HETATM   34  C   UNL     1     -10.181  17.032  66.953  1.00  0.00    -0.305 C  
HETATM   35  C   UNL     1     -10.648  14.667  66.181  1.00  0.00    -0.314 A  
HETATM   36  F   UNL     1     -10.416  17.892  67.986  1.00  0.00    -0.331 F  
HETATM   37  F   UNL     1     -10.685  17.644  65.845  1.00  0.00    -0.353 F  
HETATM   38  F   UNL     1      -8.830  17.011  66.791  1.00  0.00    -0.214 F  
ENDBRANCH  28  29
ENDBRANCH  27  28
ENDBRANCH  24  27
ENDBRANCH  23  24
ENDBRANCH  20  22
ENDBRANCH  12  13
ENDBRANCH  11  12
ENDBRANCH   9  10
ENDBRANCH   8   9
ENDBRANCH   7   8
ENDBRANCH   5   7
ENDBRANCH   4   5
ENDBRANCH   2   4
TORSDOF 13
ENDMDL
MODEL      252
REMARK 921   NORMALIZED FREE ENERGY PREDICTED BY IDOCK:   -4.72 KCAL/MOL
REMARK 922        TOTAL FREE ENERGY PREDICTED BY IDOCK:  -10.54 KCAL/MOL
REMARK 923 INTER-LIGAND FREE ENERGY PREDICTED BY IDOCK:   -8.75 KCAL/MOL
REMARK 924 INTRA-LIGAND FREE ENERGY PREDICTED BY IDOCK:   -1.79 KCAL/MOL
REMARK 927      BINDING AFFINITY PREDICTED BY RF-SCORE:    0.00 PKD
ROOT
HETATM    1  C   UNL     1     -11.818  13.314  69.039  1.00  0.00    -0.365 C  
HETATM    2  C   UNL     1     -11.962  14.757  69.508  1.00  0.00    -0.311 C  
HETATM    3  C   UNL     1     -13.053  14.874  70.568  1.00  0.00    -0.299 C  
ENDROOT
BRANCH   2   4
HETATM    4  O   UNL     1     -10.727  15.188  70.107  1.00  0.00    -0.260 OA 
BRANCH   4   5
HETATM    5  C   UNL     1      -9.773  15.597  69.223  1.00  0.00    -0.271 C  
HETATM    6  O   UNL     1      -8.752  14.979  68.957  1.00  0.00    -0.193 OA 
BRANCH   5   7
HETATM    7  C   UNL     1     -10.125  16.951  68.665  1.00  0.00    -0.291 C  
BRANCH   7   8
HETATM    8  C   UNL     1      -8.903  17.563  67.979  1.00  0.00    -0.258 C  
BRANCH   8   9
HETATM    9  C   UNL     1      -8.846  17.292  66.478  1.00  0.00    -0.290 C  
BRANCH   9  10
HETATM   10  C   UNL     1     -10.203  17.330  65.828  1.00  0.00    -0.212 C  
HETATM   11  C   UNL     1     -10.807  16.306  65.206  1.00  0.00    -0.310 C  
BRANCH  11  12
HETATM   12  C   UNL     1     -10.210  14.946  64.971  1.00  0.00    -0.365 C  
BRANCH  12  13
HETATM   13  C   UNL     1     -11.194  13.801  65.249  1.00  0.00    -0.311 C  
HETATM   14  C   UNL     1     -12.511  13.858  64.466  1.00  0.00    -0.297 C  
HETATM   15  O   UNL     1     -12.312  14.316  63.132  1.00  0.00    -1.096 OA 
HETATM   16  C   UNL     1     -12.973  12.407  64.417  1.00  0.00    -0.219 C  
HETATM   17  C   UNL     1     -11.684  11.623  64.188  1.00  0.00    -0.216 C  
HETATM   18  H   UNL     1     -13.128  14.351  62.647  1.00  0.00     0.000 HD 
HETATM   19  O   UNL     1     -11.403  11.557  62.786  1.00  0.00    -0.593 OA 
HETATM   20  C   UNL     1     -10.567  12.420  64.905  1.00  0.00    -0.326 C  
HETATM   21  H   UNL     1     -10.600  11.069  62.643  1.00  0.00     0.000 HD 
BRANCH  20  22
HETATM   22  C   UNL     1      -9.976  11.806  66.161  1.00  0.00    -0.254 C  
HETATM   23  C   UNL     1      -9.986  10.502  66.494  1.00  0.00    -0.266 C  
BRANCH  23  24
HETATM   24  C   UNL     1      -9.453   9.881  67.767  1.00  0.00    -0.140 C  
HETATM   25  H   UNL     1      -9.101  10.466  69.605  1.00  0.00     0.000 HD 
HETATM   26  O   UNL     1      -9.436  10.856  68.805  1.00  0.00    -0.183 OA 
BRANCH  24  27
HETATM   27  C   UNL     1     -10.324   8.679  68.184  1.00  0.00    -0.216 C  
BRANCH  27  28
HETATM   28  O   UNL     1      -9.974   8.213  69.497  1.00  0.00    -0.179 OA 
BRANCH  28  29
HETATM   29  C   UNL     1      -9.449   6.946  69.524  1.00  0.00    -0.146 A  
HETATM   30  C   UNL     1     -10.196   5.781  69.332  1.00  0.00    -0.301 A  
HETATM   31  C   UNL     1      -9.573   4.530  69.363  1.00  0.00    -0.264 A  
HETATM   32  C   UNL     1      -8.200   4.440  69.577  1.00  0.00    -0.065 A  
HETATM   33  C   UNL     1      -7.431   5.596  69.757  1.00  0.00    -0.074 A  
HETATM   34  C   UNL     1      -5.943   5.498  69.991  1.00  0.00    -0.021 C  
HETATM   35  C   UNL     1      -8.066   6.850  69.716  1.00  0.00    -0.126 A  
HETATM   36  F   UNL     1      -5.487   4.214  70.048  1.00  0.00    -0.009 F  
HETATM   37  F   UNL     1      -5.559   6.077  71.162  1.00  0.00    -0.016 F  
HETATM   38  F   UNL     1      -5.216   6.105  69.014  1.00  0.00    -0.003 F  
ENDBRANCH  28  29
ENDBRANCH  27  28
ENDBRANCH  24  27
ENDBRANCH  23  24
ENDBRANCH  20  22
ENDBRANCH  12  13
ENDBRANCH  11  12
ENDBRANCH   9  10
ENDBRANCH   8   9
ENDBRANCH   7   8
ENDBRANCH   5   7
ENDBRANCH   4   5
ENDBRANCH   2   4
TORSDOF 13
ENDMDL
MODEL      253
REMARK 921   NORMALIZED FREE ENERGY PREDICTED BY IDOCK:   -4.72 KCAL/MOL
REMARK 922        TOTAL FREE ENERGY PREDICTED BY IDOCK:  -10.52 KCAL/MOL
REMARK 923 INTER-LIGAND FREE ENERGY PREDICTED BY IDOCK:   -9.12 KCAL/MOL
REMARK 924 INTRA-LIGAND FREE ENERGY PREDICTED BY IDOCK:   -1.40 KCAL/MOL
REMARK 927      BINDING AFFINITY PREDICTED BY RF-SCORE:    0.00 PKD
ROOT
HETATM    1  C   UNL     1     -11.082   2.589  73.780  1.00  0.00    -0.303 C  
HETATM    2  C   UNL     1     -10.454   3.919  73.381  1.00  0.00    -0.176 C  
HETATM    3  C   UNL     1      -9.781   3.811  72.016  1.00  0.00    -0.236 C  
ENDROOT
BRANCH   2   4
HETATM    4  O   UNL     1     -11.483   4.919  73.279  1.00  0.00    -0.336 OA 
BRANCH   4   5
HETATM    5  C   UNL     1     -11.044   6.207  73.365  1.00  0.00    -0.061 C  
HETATM    6  O   UNL     1     -10.387   6.663  74.291  1.00  0.00    -0.361 OA 
BRANCH   5   7
HETATM    7  C   UNL     1     -11.533   7.006  72.187  1.00  0.00    -0.312 C  
BRANCH   7   8
HETATM    8  C   UNL     1     -13.017   6.728  71.951  1.00  0.00    -0.229 C  
BRANCH   8   9
HETATM    9  C   UNL     1     -13.823   7.975  71.598  1.00  0.00    -0.444 C  
BRANCH   9  10
HETATM   10  C   UNL     1     -13.343   9.203  72.323  1.00  0.00    -0.540 C  
HETATM   11  C   UNL     1     -12.801  10.292  71.756  1.00  0.00    -0.565 C  
BRANCH  11  12
HETATM   12  C   UNL     1     -12.498  10.461  70.293  1.00  0.00    -0.296 C  
BRANCH  12  13
HETATM   13  C   UNL     1     -10.994  10.479  69.988  1.00  0.00    -0.351 C  
HETATM   14  C   UNL     1     -10.364   9.112  69.692  1.00  0.00    -0.219 C  
HETATM   15  O   UNL     1     -11.234   8.285  68.927  1.00  0.00    -0.381 OA 
HETATM   16  C   UNL     1      -9.141   9.446  68.846  1.00  0.00    -0.140 C  
HETATM   17  C   UNL     1      -9.630  10.563  67.929  1.00  0.00    -0.150 C  
HETATM   18  H   UNL     1     -10.843   7.439  68.744  1.00  0.00     0.000 HD 
HETATM   19  O   UNL     1     -10.250   9.998  66.769  1.00  0.00    -0.217 OA 
HETATM   20  C   UNL     1     -10.679  11.358  68.744  1.00  0.00    -0.240 C  
HETATM   21  H   UNL     1     -10.554  10.694  66.198  1.00  0.00     0.000 HD 
BRANCH  20  22
HETATM   22  C   UNL     1     -10.291  12.754  69.197  1.00  0.00     0.158 C  
HETATM   23  C   UNL     1     -10.836  13.911  68.779  1.00  0.00    -0.282 C  
BRANCH  23  24
HETATM   24  C   UNL     1     -10.423  15.311  69.177  1.00  0.00    -0.247 C  
HETATM   25  H   UNL     1     -10.565  16.444  70.771  1.00  0.00     0.000 HD 
HETATM   26  O   UNL     1     -10.824  15.565  70.521  1.00  0.00    -0.316 OA 
BRANCH  24  27
HETATM   27  C   UNL     1      -8.896  15.480  69.039  1.00  0.00    -0.242 C  
BRANCH  27  28
HETATM   28  O   UNL     1      -8.500  15.513  67.658  1.00  0.00    -0.157 OA 
BRANCH  28  29
HETATM   29  C   UNL     1      -9.286  16.312  66.866  1.00  0.00    -0.224 A  
HETATM   30  C   UNL     1     -10.163  15.832  65.890  1.00  0.00    -0.377 A  
HETATM   31  C   UNL     1     -10.936  16.720  65.138  1.00  0.00    -0.109 A  
HETATM   32  C   UNL     1     -10.842  18.091  65.364  1.00  0.00     0.242 A  
HETATM   33  C   UNL     1      -9.981  18.592  66.348  1.00  0.00    -0.399 A  
HETATM   34  C   UNL     1      -9.877  20.077  66.592  1.00  0.00    -0.450 C  
HETATM   35  C   UNL     1      -9.213  17.688  67.105  1.00  0.00    -0.245 A  
HETATM   36  F   UNL     1     -10.649  20.820  65.748  1.00  0.00    -0.134 F  
HETATM   37  F   UNL     1      -8.608  20.545  66.437  1.00  0.00    -0.261 F  
HETATM   38  F   UNL     1     -10.259  20.431  67.850  1.00  0.00    -0.520 F  
ENDBRANCH  28  29
ENDBRANCH  27  28
ENDBRANCH  24  27
ENDBRANCH  23  24
ENDBRANCH  20  22
ENDBRANCH  12  13
ENDBRANCH  11  12
ENDBRANCH   9  10
ENDBRANCH   8   9
ENDBRANCH   7   8
ENDBRANCH   5   7
ENDBRANCH   4   5
ENDBRANCH   2   4
TORSDOF 13
ENDMDL
MODEL      254
REMARK 921   NORMALIZED FREE ENERGY PREDICTED BY IDOCK:   -4.72 KCAL/MOL
REMARK 922        TOTAL FREE ENERGY PREDICTED BY IDOCK:  -10.52 KCAL/MOL
REMARK 923 INTER-LIGAND FREE ENERGY PREDICTED BY IDOCK:  -10.08 KCAL/MOL
REMARK 924 INTRA-LIGAND FREE ENERGY PREDICTED BY IDOCK:   -0.44 KCAL/MOL
REMARK 927      BINDING AFFINITY PREDICTED BY RF-SCORE:    0.00 PKD
ROOT
HETATM    1  C   UNL     1      -9.130   9.524  64.237  1.00  0.00    -0.220 C  
HETATM    2  C   UNL     1      -9.513  10.999  64.254  1.00  0.00    -0.235 C  
HETATM    3  C   UNL     1      -9.320  11.623  62.875  1.00  0.00    -0.157 C  
ENDROOT
BRANCH   2   4
HETATM    4  O   UNL     1     -10.905  11.125  64.596  1.00  0.00    -0.305 OA 
BRANCH   4   5
HETATM    5  C   UNL     1     -11.485  12.300  64.220  1.00  0.00    -0.362 C  
HETATM    6  O   UNL     1     -11.436  12.779  63.095  1.00  0.00    -0.408 OA 
BRANCH   5   7
HETATM    7  C   UNL     1     -12.145  12.958  65.403  1.00  0.00    -0.501 C  
BRANCH   7   8
HETATM    8  C   UNL     1     -11.202  12.930  66.606  1.00  0.00    -0.342 C  
BRANCH   8   9
HETATM    9  C   UNL     1     -10.277  14.141  66.683  1.00  0.00    -0.270 C  
BRANCH   9  10
HETATM   10  C   UNL     1     -10.968  15.370  67.206  1.00  0.00    -0.317 C  
HETATM   11  C   UNL     1     -10.830  15.888  68.437  1.00  0.00    -0.316 C  
BRANCH  11  12
HETATM   12  C   UNL     1     -10.016  15.294  69.554  1.00  0.00    -0.247 C  
BRANCH  12  13
HETATM   13  C   UNL     1     -10.875  14.608  70.624  1.00  0.00     0.178 C  
HETATM   14  C   UNL     1     -11.298  15.496  71.800  1.00  0.00    -0.384 C  
HETATM   15  O   UNL     1     -11.615  16.817  71.376  1.00  0.00    -0.557 OA 
HETATM   16  C   UNL     1     -12.569  14.835  72.322  1.00  0.00    -0.414 C  
HETATM   17  C   UNL     1     -13.301  14.406  71.053  1.00  0.00    -0.300 C  
HETATM   18  H   UNL     1     -11.878  17.367  72.105  1.00  0.00     0.000 HD 
HETATM   19  O   UNL     1     -14.094  15.492  70.564  1.00  0.00    -0.719 OA 
HETATM   20  C   UNL     1     -12.199  14.059  70.022  1.00  0.00    -0.414 C  
HETATM   21  H   UNL     1     -14.549  15.224  69.773  1.00  0.00     0.000 HD 
BRANCH  20  22
HETATM   22  C   UNL     1     -12.024  12.594  69.664  1.00  0.00    -0.352 C  
HETATM   23  C   UNL     1     -12.111  11.549  70.506  1.00  0.00    -0.472 C  
BRANCH  23  24
HETATM   24  C   UNL     1     -11.883  10.089  70.177  1.00  0.00    -0.173 C  
HETATM   25  H   UNL     1     -11.271   9.052  68.631  1.00  0.00     0.000 HD 
HETATM   26  O   UNL     1     -11.413   9.968  68.838  1.00  0.00    -0.134 OA 
BRANCH  24  27
HETATM   27  C   UNL     1     -10.863   9.472  71.154  1.00  0.00    -0.355 C  
BRANCH  27  28
HETATM   28  O   UNL     1      -9.784   8.838  70.448  1.00  0.00    -0.167 OA 
BRANCH  28  29
HETATM   29  C   UNL     1      -9.663   7.493  70.695  1.00  0.00    -0.175 A  
HETATM   30  C   UNL     1      -8.755   6.653  70.044  1.00  0.00    -0.141 A  
HETATM   31  C   UNL     1      -8.692   5.296  70.370  1.00  0.00    -0.138 A  
HETATM   32  C   UNL     1      -9.531   4.774  71.352  1.00  0.00    -0.213 A  
HETATM   33  C   UNL     1     -10.437   5.602  72.026  1.00  0.00    -0.270 A  
HETATM   34  C   UNL     1     -11.346   5.037  73.089  1.00  0.00    -0.321 C  
HETATM   35  C   UNL     1     -10.486   6.969  71.697  1.00  0.00    -0.219 A  
HETATM   36  F   UNL     1     -11.209   3.691  73.260  1.00  0.00    -0.274 F  
HETATM   37  F   UNL     1     -12.664   5.240  72.812  1.00  0.00    -0.216 F  
HETATM   38  F   UNL     1     -11.130   5.589  74.315  1.00  0.00    -0.172 F  
ENDBRANCH  28  29
ENDBRANCH  27  28
ENDBRANCH  24  27
ENDBRANCH  23  24
ENDBRANCH  20  22
ENDBRANCH  12  13
ENDBRANCH  11  12
ENDBRANCH   9  10
ENDBRANCH   8   9
ENDBRANCH   7   8
ENDBRANCH   5   7
ENDBRANCH   4   5
ENDBRANCH   2   4
TORSDOF 13
ENDMDL
MODEL      255
REMARK 921   NORMALIZED FREE ENERGY PREDICTED BY IDOCK:   -4.72 KCAL/MOL
REMARK 922        TOTAL FREE ENERGY PREDICTED BY IDOCK:  -10.52 KCAL/MOL
REMARK 923 INTER-LIGAND FREE ENERGY PREDICTED BY IDOCK:   -8.55 KCAL/MOL
REMARK 924 INTRA-LIGAND FREE ENERGY PREDICTED BY IDOCK:   -1.97 KCAL/MOL
REMARK 927      BINDING AFFINITY PREDICTED BY RF-SCORE:    0.00 PKD
ROOT
HETATM    1  C   UNL     1      -8.515  19.238  66.815  1.00  0.00    -0.321 C  
HETATM    2  C   UNL     1      -8.173  17.848  66.292  1.00  0.00    -0.211 C  
HETATM    3  C   UNL     1      -6.942  17.292  67.001  1.00  0.00    -0.223 C  
ENDROOT
BRANCH   2   4
HETATM    4  O   UNL     1      -9.269  16.955  66.562  1.00  0.00    -0.243 OA 
BRANCH   4   5
HETATM    5  C   UNL     1     -10.052  17.312  67.619  1.00  0.00    -0.313 C  
HETATM    6  O   UNL     1     -10.828  18.258  67.630  1.00  0.00    -0.396 OA 
BRANCH   5   7
HETATM    7  C   UNL     1      -9.784  16.411  68.795  1.00  0.00    -0.250 C  
BRANCH   7   8
HETATM    8  C   UNL     1      -9.306  15.045  68.304  1.00  0.00    -0.192 C  
BRANCH   8   9
HETATM    9  C   UNL     1     -10.106  13.878  68.877  1.00  0.00    -0.106 C  
BRANCH   9  10
HETATM   10  C   UNL     1     -11.591  14.113  68.836  1.00  0.00    -0.345 C  
HETATM   11  C   UNL     1     -12.342  14.219  67.729  1.00  0.00    -0.041 C  
BRANCH  11  12
HETATM   12  C   UNL     1     -11.829  14.200  66.315  1.00  0.00    -0.427 C  
BRANCH  12  13
HETATM   13  C   UNL     1     -11.979  12.831  65.639  1.00  0.00    -0.503 C  
HETATM   14  C   UNL     1     -12.777  12.826  64.329  1.00  0.00    -0.253 C  
HETATM   15  O   UNL     1     -12.505  13.980  63.542  1.00  0.00    -1.043 OA 
HETATM   16  C   UNL     1     -12.258  11.600  63.587  1.00  0.00    -0.348 C  
HETATM   17  C   UNL     1     -10.758  11.614  63.867  1.00  0.00    -0.398 C  
HETATM   18  H   UNL     1     -12.999  13.977  62.730  1.00  0.00     0.000 HD 
HETATM   19  O   UNL     1     -10.096  12.446  62.908  1.00  0.00    -0.408 OA 
HETATM   20  C   UNL     1     -10.594  12.221  65.283  1.00  0.00    -0.322 C  
HETATM   21  H   UNL     1      -9.162  12.455  63.083  1.00  0.00     0.000 HD 
BRANCH  20  22
HETATM   22  C   UNL     1     -10.156  11.281  66.391  1.00  0.00    -0.260 C  
HETATM   23  C   UNL     1     -10.956  10.659  67.277  1.00  0.00    -0.348 C  
BRANCH  23  24
HETATM   24  C   UNL     1     -10.531   9.765  68.421  1.00  0.00    -0.218 C  
HETATM   25  H   UNL     1     -10.206   7.851  68.695  1.00  0.00     0.000 HD 
HETATM   26  O   UNL     1     -10.473   8.413  67.976  1.00  0.00    -0.217 OA 
BRANCH  24  27
HETATM   27  C   UNL     1      -9.156  10.204  68.962  1.00  0.00    -0.173 C  
BRANCH  27  28
HETATM   28  O   UNL     1      -8.142   9.233  68.655  1.00  0.00    -0.102 OA 
BRANCH  28  29
HETATM   29  C   UNL     1      -7.337   9.574  67.598  1.00  0.00    -0.083 A  
HETATM   30  C   UNL     1      -6.232  10.425  67.694  1.00  0.00    -0.056 A  
HETATM   31  C   UNL     1      -5.459  10.707  66.565  1.00  0.00    -0.070 A  
HETATM   32  C   UNL     1      -5.782  10.134  65.337  1.00  0.00    -0.091 A  
HETATM   33  C   UNL     1      -6.875   9.267  65.223  1.00  0.00    -0.081 A  
HETATM   34  C   UNL     1      -7.227   8.647  63.893  1.00  0.00    -0.096 C  
HETATM   35  C   UNL     1      -7.642   8.983  66.368  1.00  0.00    -0.092 A  
HETATM   36  F   UNL     1      -6.416   9.056  62.874  1.00  0.00    -0.091 F  
HETATM   37  F   UNL     1      -8.495   8.943  63.496  1.00  0.00    -0.175 F  
HETATM   38  F   UNL     1      -7.144   7.288  63.908  1.00  0.00    -0.056 F  
ENDBRANCH  28  29
ENDBRANCH  27  28
ENDBRANCH  24  27
ENDBRANCH  23  24
ENDBRANCH  20  22
ENDBRANCH  12  13
ENDBRANCH  11  12
ENDBRANCH   9  10
ENDBRANCH   8   9
ENDBRANCH   7   8
ENDBRANCH   5   7
ENDBRANCH   4   5
ENDBRANCH   2   4
TORSDOF 13
ENDMDL
MODEL      256
REMARK 921   NORMALIZED FREE ENERGY PREDICTED BY IDOCK:   -4.71 KCAL/MOL
REMARK 922        TOTAL FREE ENERGY PREDICTED BY IDOCK:  -10.51 KCAL/MOL
REMARK 923 INTER-LIGAND FREE ENERGY PREDICTED BY IDOCK:   -7.18 KCAL/MOL
REMARK 924 INTRA-LIGAND FREE ENERGY PREDICTED BY IDOCK:   -3.33 KCAL/MOL
REMARK 927      BINDING AFFINITY PREDICTED BY RF-SCORE:    0.00 PKD
ROOT
HETATM    1  C   UNL     1     -12.881  10.941  70.592  1.00  0.00    -0.340 C  
HETATM    2  C   UNL     1     -11.677  11.290  69.723  1.00  0.00    -0.349 C  
HETATM    3  C   UNL     1     -10.437  10.536  70.192  1.00  0.00    -0.084 C  
ENDROOT
BRANCH   2   4
HETATM    4  O   UNL     1     -11.940  10.890  68.366  1.00  0.00    -0.543 OA 
BRANCH   4   5
HETATM    5  C   UNL     1     -11.287  11.619  67.417  1.00  0.00    -0.300 C  
HETATM    6  O   UNL     1     -11.285  12.841  67.347  1.00  0.00    -0.266 OA 
BRANCH   5   7
HETATM    7  C   UNL     1     -10.614  10.705  66.427  1.00  0.00    -0.240 C  
BRANCH   7   8
HETATM    8  C   UNL     1     -10.028   9.494  67.154  1.00  0.00    -0.261 C  
BRANCH   8   9
HETATM    9  C   UNL     1     -10.658   8.169  66.738  1.00  0.00    -0.223 C  
BRANCH   9  10
HETATM   10  C   UNL     1      -9.822   6.979  67.124  1.00  0.00    -0.225 C  
HETATM   11  C   UNL     1     -10.091   6.115  68.115  1.00  0.00    -0.181 C  
BRANCH  11  12
HETATM   12  C   UNL     1     -11.240   6.215  69.079  1.00  0.00    -0.375 C  
BRANCH  12  13
HETATM   13  C   UNL     1     -10.860   6.898  70.399  1.00  0.00    -0.297 C  
HETATM   14  C   UNL     1     -11.992   7.661  71.098  1.00  0.00    -0.297 C  
HETATM   15  O   UNL     1     -13.236   6.977  70.985  1.00  0.00    -0.497 OA 
HETATM   16  C   UNL     1     -11.578   7.673  72.565  1.00  0.00    -0.382 C  
HETATM   17  C   UNL     1     -10.997   6.281  72.789  1.00  0.00    -0.260 C  
HETATM   18  H   UNL     1     -13.938   7.450  71.418  1.00  0.00     0.000 HD 
HETATM   19  O   UNL     1     -12.048   5.367  73.119  1.00  0.00    -0.528 OA 
HETATM   20  C   UNL     1     -10.350   5.866  71.445  1.00  0.00    -0.271 C  
HETATM   21  H   UNL     1     -11.686   4.500  73.258  1.00  0.00     0.000 HD 
BRANCH  20  22
HETATM   22  C   UNL     1      -8.833   5.806  71.397  1.00  0.00    -0.143 C  
HETATM   23  C   UNL     1      -8.004   6.801  71.032  1.00  0.00    -0.103 C  
BRANCH  23  24
HETATM   24  C   UNL     1      -6.496   6.740  70.925  1.00  0.00    -0.052 C  
HETATM   25  H   UNL     1      -5.169   5.553  70.104  1.00  0.00     0.000 HD 
HETATM   26  O   UNL     1      -6.116   5.592  70.171  1.00  0.00    -0.023 OA 
BRANCH  24  27
HETATM   27  C   UNL     1      -5.953   8.018  70.253  1.00  0.00    -0.029 C  
BRANCH  27  28
HETATM   28  O   UNL     1      -5.671   7.794  68.862  1.00  0.00    -0.028 OA 
BRANCH  28  29
HETATM   29  C   UNL     1      -6.009   8.842  68.043  1.00  0.00    -0.046 A  
HETATM   30  C   UNL     1      -5.934  10.187  68.416  1.00  0.00    -0.041 A  
HETATM   31  C   UNL     1      -6.287  11.190  67.511  1.00  0.00    -0.065 A  
HETATM   32  C   UNL     1      -6.709  10.855  66.227  1.00  0.00    -0.124 A  
HETATM   33  C   UNL     1      -6.777   9.514  65.828  1.00  0.00    -0.083 A  
HETATM   34  C   UNL     1      -7.235   9.150  64.438  1.00  0.00    -0.099 C  
HETATM   35  C   UNL     1      -6.411   8.512  66.745  1.00  0.00    -0.057 A  
HETATM   36  F   UNL     1      -7.597  10.230  63.686  1.00  0.00    -0.146 F  
HETATM   37  F   UNL     1      -8.320   8.326  64.443  1.00  0.00    -0.158 F  
HETATM   38  F   UNL     1      -6.277   8.505  63.720  1.00  0.00    -0.070 F  
ENDBRANCH  28  29
ENDBRANCH  27  28
ENDBRANCH  24  27
ENDBRANCH  23  24
ENDBRANCH  20  22
ENDBRANCH  12  13
ENDBRANCH  11  12
ENDBRANCH   9  10
ENDBRANCH   8   9
ENDBRANCH   7   8
ENDBRANCH   5   7
ENDBRANCH   4   5
ENDBRANCH   2   4
TORSDOF 13
ENDMDL
MODEL      257
REMARK 921   NORMALIZED FREE ENERGY PREDICTED BY IDOCK:   -4.70 KCAL/MOL
REMARK 922        TOTAL FREE ENERGY PREDICTED BY IDOCK:  -10.49 KCAL/MOL
REMARK 923 INTER-LIGAND FREE ENERGY PREDICTED BY IDOCK:   -8.73 KCAL/MOL
REMARK 924 INTRA-LIGAND FREE ENERGY PREDICTED BY IDOCK:   -1.76 KCAL/MOL
REMARK 927      BINDING AFFINITY PREDICTED BY RF-SCORE:    0.00 PKD
ROOT
HETATM    1  C   UNL     1     -12.536  12.203  63.774  1.00  0.00    -0.620 C  
HETATM    2  C   UNL     1     -11.101  12.173  64.290  1.00  0.00    -0.346 C  
HETATM    3  C   UNL     1     -10.263  11.175  63.498  1.00  0.00    -0.446 C  
ENDROOT
BRANCH   2   4
HETATM    4  O   UNL     1     -10.507  13.472  64.117  1.00  0.00    -0.358 OA 
BRANCH   4   5
HETATM    5  C   UNL     1     -11.148  14.487  64.763  1.00  0.00    -0.391 C  
HETATM    6  O   UNL     1     -11.810  15.359  64.216  1.00  0.00    -0.398 OA 
BRANCH   5   7
HETATM    7  C   UNL     1     -10.879  14.418  66.243  1.00  0.00    -0.313 C  
BRANCH   7   8
HETATM    8  C   UNL     1     -12.150  14.003  66.983  1.00  0.00    -0.455 C  
BRANCH   8   9
HETATM    9  C   UNL     1     -11.881  13.209  68.258  1.00  0.00    -0.384 C  
BRANCH   9  10
HETATM   10  C   UNL     1     -11.855  11.723  68.025  1.00  0.00    -0.304 C  
HETATM   11  C   UNL     1     -11.899  10.776  68.975  1.00  0.00    -0.325 C  
BRANCH  11  12
HETATM   12  C   UNL     1     -11.905  11.020  70.459  1.00  0.00    -0.464 C  
BRANCH  12  13
HETATM   13  C   UNL     1     -11.349   9.838  71.265  1.00  0.00    -0.445 C  
HETATM   14  C   UNL     1     -12.364   9.112  72.156  1.00  0.00    -0.354 C  
HETATM   15  O   UNL     1     -13.637   9.007  71.528  1.00  0.00    -0.361 OA 
HETATM   16  C   UNL     1     -11.782   7.712  72.311  1.00  0.00    -0.371 C  
HETATM   17  C   UNL     1     -11.231   7.393  70.924  1.00  0.00    -0.270 C  
HETATM   18  H   UNL     1     -14.266   8.557  72.081  1.00  0.00     0.000 HD 
HETATM   19  O   UNL     1     -12.271   6.845  70.107  1.00  0.00    -0.638 OA 
HETATM   20  C   UNL     1     -10.760   8.743  70.331  1.00  0.00    -0.254 C  
HETATM   21  H   UNL     1     -11.928   6.647  69.244  1.00  0.00     0.000 HD 
BRANCH  20  22
HETATM   22  C   UNL     1      -9.263   8.951  70.189  1.00  0.00    -0.195 C  
HETATM   23  C   UNL     1      -8.551   8.887  69.049  1.00  0.00    -0.138 C  
BRANCH  23  24
HETATM   24  C   UNL     1      -7.052   9.036  68.899  1.00  0.00    -0.069 C  
HETATM   25  H   UNL     1      -5.647  10.174  69.655  1.00  0.00     0.000 HD 
HETATM   26  O   UNL     1      -6.587  10.080  69.749  1.00  0.00    -0.054 OA 
BRANCH  24  27
HETATM   27  C   UNL     1      -6.344   7.712  69.250  1.00  0.00    -0.035 C  
BRANCH  27  28
HETATM   28  O   UNL     1      -7.290   6.640  69.395  1.00  0.00    -0.087 OA 
BRANCH  28  29
HETATM   29  C   UNL     1      -6.908   5.668  70.286  1.00  0.00    -0.053 A  
HETATM   30  C   UNL     1      -5.781   4.857  70.128  1.00  0.00    -0.016 A  
HETATM   31  C   UNL     1      -5.460   3.901  71.094  1.00  0.00    -0.008 A  
HETATM   32  C   UNL     1      -6.259   3.756  72.226  1.00  0.00    -0.013 A  
HETATM   33  C   UNL     1      -7.384   4.569  72.410  1.00  0.00    -0.081 A  
HETATM   34  C   UNL     1      -8.251   4.413  73.635  1.00  0.00    -0.097 C  
HETATM   35  C   UNL     1      -7.694   5.535  71.435  1.00  0.00    -0.109 A  
HETATM   36  F   UNL     1      -7.845   3.406  74.461  1.00  0.00    -0.058 F  
HETATM   37  F   UNL     1      -9.548   4.134  73.326  1.00  0.00    -0.121 F  
HETATM   38  F   UNL     1      -8.280   5.533  74.407  1.00  0.00    -0.103 F  
ENDBRANCH  28  29
ENDBRANCH  27  28
ENDBRANCH  24  27
ENDBRANCH  23  24
ENDBRANCH  20  22
ENDBRANCH  12  13
ENDBRANCH  11  12
ENDBRANCH   9  10
ENDBRANCH   8   9
ENDBRANCH   7   8
ENDBRANCH   5   7
ENDBRANCH   4   5
ENDBRANCH   2   4
TORSDOF 13
ENDMDL
MODEL      258
REMARK 921   NORMALIZED FREE ENERGY PREDICTED BY IDOCK:   -4.69 KCAL/MOL
REMARK 922        TOTAL FREE ENERGY PREDICTED BY IDOCK:  -10.48 KCAL/MOL
REMARK 923 INTER-LIGAND FREE ENERGY PREDICTED BY IDOCK:   -8.63 KCAL/MOL
REMARK 924 INTRA-LIGAND FREE ENERGY PREDICTED BY IDOCK:   -1.85 KCAL/MOL
REMARK 927      BINDING AFFINITY PREDICTED BY RF-SCORE:    0.00 PKD
ROOT
HETATM    1  C   UNL     1     -14.284   7.797  71.507  1.00  0.00    -0.540 C  
HETATM    2  C   UNL     1     -12.883   7.259  71.780  1.00  0.00    -0.331 C  
HETATM    3  C   UNL     1     -12.163   6.943  70.473  1.00  0.00    -0.253 C  
ENDROOT
BRANCH   2   4
HETATM    4  O   UNL     1     -12.114   8.262  72.467  1.00  0.00    -0.385 OA 
BRANCH   4   5
HETATM    5  C   UNL     1     -10.911   7.834  72.946  1.00  0.00    -0.407 C  
HETATM    6  O   UNL     1     -10.757   6.910  73.732  1.00  0.00    -0.347 OA 
BRANCH   5   7
HETATM    7  C   UNL     1      -9.801   8.702  72.415  1.00  0.00    -0.315 C  
BRANCH   7   8
HETATM    8  C   UNL     1      -8.612   7.831  72.007  1.00  0.00    -0.149 C  
BRANCH   8   9
HETATM    9  C   UNL     1      -8.381   7.782  70.500  1.00  0.00    -0.125 C  
BRANCH   9  10
HETATM   10  C   UNL     1      -9.216   8.784  69.750  1.00  0.00    -0.155 C  
HETATM   11  C   UNL     1      -9.652   8.657  68.486  1.00  0.00    -0.162 C  
BRANCH  11  12
HETATM   12  C   UNL     1      -9.324   7.524  67.554  1.00  0.00    -0.157 C  
BRANCH  12  13
HETATM   13  C   UNL     1      -8.053   7.770  66.731  1.00  0.00    -0.115 C  
HETATM   14  C   UNL     1      -6.991   6.668  66.811  1.00  0.00    -0.067 C  
HETATM   15  O   UNL     1      -7.578   5.371  66.839  1.00  0.00    -0.087 OA 
HETATM   16  C   UNL     1      -6.206   6.817  65.513  1.00  0.00    -0.039 C  
HETATM   17  C   UNL     1      -7.280   7.124  64.474  1.00  0.00    -0.074 C  
HETATM   18  H   UNL     1      -6.919   4.688  66.889  1.00  0.00     0.000 HD 
HETATM   19  O   UNL     1      -7.830   5.902  63.973  1.00  0.00    -0.106 OA 
HETATM   20  C   UNL     1      -8.378   7.923  65.218  1.00  0.00    -0.140 C  
HETATM   21  H   UNL     1      -8.499   6.093  63.326  1.00  0.00     0.000 HD 
BRANCH  20  22
HETATM   22  C   UNL     1      -8.514   9.396  64.876  1.00  0.00    -0.176 C  
HETATM   23  C   UNL     1      -9.542   9.975  64.227  1.00  0.00    -0.301 C  
BRANCH  23  24
HETATM   24  C   UNL     1      -9.666  11.429  63.829  1.00  0.00    -0.287 C  
HETATM   25  H   UNL     1      -9.383  12.497  62.210  1.00  0.00     0.000 HD 
HETATM   26  O   UNL     1      -9.305  11.584  62.460  1.00  0.00    -0.274 OA 
BRANCH  24  27
HETATM   27  C   UNL     1     -11.109  11.925  64.055  1.00  0.00    -0.391 C  
BRANCH  27  28
HETATM   28  O   UNL     1     -11.417  12.005  65.457  1.00  0.00    -0.345 OA 
BRANCH  28  29
HETATM   29  C   UNL     1     -11.240  13.252  66.002  1.00  0.00    -0.297 A  
HETATM   30  C   UNL     1     -10.771  14.360  65.293  1.00  0.00    -0.387 A  
HETATM   31  C   UNL     1     -10.634  15.597  65.927  1.00  0.00    -0.354 A  
HETATM   32  C   UNL     1     -10.973  15.734  67.271  1.00  0.00    -0.259 A  
HETATM   33  C   UNL     1     -11.459  14.639  67.996  1.00  0.00    -0.346 A  
HETATM   34  C   UNL     1     -11.826  14.785  69.452  1.00  0.00    -0.323 C  
HETATM   35  C   UNL     1     -11.601  13.400  67.345  1.00  0.00    -0.394 A  
HETATM   36  F   UNL     1     -11.589  16.034  69.947  1.00  0.00    -0.293 F  
HETATM   37  F   UNL     1     -11.129  13.934  70.255  1.00  0.00    -0.143 F  
HETATM   38  F   UNL     1     -13.142  14.537  69.692  1.00  0.00    -0.107 F  
ENDBRANCH  28  29
ENDBRANCH  27  28
ENDBRANCH  24  27
ENDBRANCH  23  24
ENDBRANCH  20  22
ENDBRANCH  12  13
ENDBRANCH  11  12
ENDBRANCH   9  10
ENDBRANCH   8   9
ENDBRANCH   7   8
ENDBRANCH   5   7
ENDBRANCH   4   5
ENDBRANCH   2   4
TORSDOF 13
ENDMDL
MODEL      259
REMARK 921   NORMALIZED FREE ENERGY PREDICTED BY IDOCK:   -4.68 KCAL/MOL
REMARK 922        TOTAL FREE ENERGY PREDICTED BY IDOCK:  -10.46 KCAL/MOL
REMARK 923 INTER-LIGAND FREE ENERGY PREDICTED BY IDOCK:   -9.26 KCAL/MOL
REMARK 924 INTRA-LIGAND FREE ENERGY PREDICTED BY IDOCK:   -1.20 KCAL/MOL
REMARK 927      BINDING AFFINITY PREDICTED BY RF-SCORE:    0.00 PKD
ROOT
HETATM    1  C   UNL     1      -8.517  19.227  66.825  1.00  0.00    -0.321 C  
HETATM    2  C   UNL     1      -8.162  17.819  66.357  1.00  0.00    -0.255 C  
HETATM    3  C   UNL     1      -6.954  17.285  67.121  1.00  0.00    -0.207 C  
ENDROOT
BRANCH   2   4
HETATM    4  O   UNL     1      -9.268  16.937  66.622  1.00  0.00    -0.232 OA 
BRANCH   4   5
HETATM    5  C   UNL     1     -10.090  17.336  67.633  1.00  0.00    -0.313 C  
HETATM    6  O   UNL     1     -10.858  18.287  67.580  1.00  0.00    -0.399 OA 
BRANCH   5   7
HETATM    7  C   UNL     1      -9.877  16.476  68.850  1.00  0.00    -0.260 C  
BRANCH   7   8
HETATM    8  C   UNL     1      -9.369  15.097  68.429  1.00  0.00    -0.197 C  
BRANCH   8   9
HETATM    9  C   UNL     1     -10.216  13.945  68.961  1.00  0.00    -0.071 C  
BRANCH   9  10
HETATM   10  C   UNL     1     -11.692  14.175  68.780  1.00  0.00    -0.380 C  
HETATM   11  C   UNL     1     -12.336  14.267  67.605  1.00  0.00    -0.061 C  
BRANCH  11  12
HETATM   12  C   UNL     1     -11.693  14.235  66.246  1.00  0.00    -0.404 C  
BRANCH  12  13
HETATM   13  C   UNL     1     -11.814  12.871  65.555  1.00  0.00    -0.455 C  
HETATM   14  C   UNL     1     -12.435  12.893  64.154  1.00  0.00    -0.335 C  
HETATM   15  O   UNL     1     -12.015  14.031  63.409  1.00  0.00    -0.801 OA 
HETATM   16  C   UNL     1     -11.878  11.642  63.484  1.00  0.00    -0.365 C  
HETATM   17  C   UNL     1     -10.428  11.594  63.955  1.00  0.00    -0.367 C  
HETATM   18  H   UNL     1     -12.401  14.045  62.540  1.00  0.00     0.000 HD 
HETATM   19  O   UNL     1      -9.613  12.391  63.090  1.00  0.00    -0.535 OA 
HETATM   20  C   UNL     1     -10.422  12.200  65.380  1.00  0.00    -0.305 C  
HETATM   21  H   UNL     1      -8.710  12.362  63.384  1.00  0.00     0.000 HD 
BRANCH  20  22
HETATM   22  C   UNL     1     -10.171  11.247  66.536  1.00  0.00    -0.269 C  
HETATM   23  C   UNL     1     -11.104  10.671  67.315  1.00  0.00    -0.313 C  
BRANCH  23  24
HETATM   24  C   UNL     1     -10.869   9.765  68.504  1.00  0.00    -0.188 C  
HETATM   25  H   UNL     1     -10.664   7.841  68.817  1.00  0.00     0.000 HD 
HETATM   26  O   UNL     1     -10.812   8.410  68.070  1.00  0.00    -0.101 OA 
BRANCH  24  27
HETATM   27  C   UNL     1      -9.556  10.148  69.218  1.00  0.00    -0.225 C  
BRANCH  27  28
HETATM   28  O   UNL     1      -9.617   9.837  70.620  1.00  0.00    -0.212 OA 
BRANCH  28  29
HETATM   29  C   UNL     1      -8.955   8.687  70.970  1.00  0.00    -0.196 A  
HETATM   30  C   UNL     1      -7.601   8.632  71.309  1.00  0.00    -0.129 A  
HETATM   31  C   UNL     1      -7.012   7.416  71.666  1.00  0.00    -0.058 A  
HETATM   32  C   UNL     1      -7.777   6.253  71.696  1.00  0.00    -0.100 A  
HETATM   33  C   UNL     1      -9.140   6.289  71.375  1.00  0.00    -0.143 A  
HETATM   34  C   UNL     1      -9.969   5.029  71.405  1.00  0.00    -0.193 C  
HETATM   35  C   UNL     1      -9.724   7.520  71.024  1.00  0.00    -0.170 A  
HETATM   36  F   UNL     1      -9.248   3.914  71.720  1.00  0.00    -0.137 F  
HETATM   37  F   UNL     1     -10.556   4.760  70.206  1.00  0.00    -0.298 F  
HETATM   38  F   UNL     1     -10.978   5.085  72.316  1.00  0.00    -0.268 F  
ENDBRANCH  28  29
ENDBRANCH  27  28
ENDBRANCH  24  27
ENDBRANCH  23  24
ENDBRANCH  20  22
ENDBRANCH  12  13
ENDBRANCH  11  12
ENDBRANCH   9  10
ENDBRANCH   8   9
ENDBRANCH   7   8
ENDBRANCH   5   7
ENDBRANCH   4   5
ENDBRANCH   2   4
TORSDOF 13
ENDMDL
MODEL      260
REMARK 921   NORMALIZED FREE ENERGY PREDICTED BY IDOCK:   -4.68 KCAL/MOL
REMARK 922        TOTAL FREE ENERGY PREDICTED BY IDOCK:  -10.45 KCAL/MOL
REMARK 923 INTER-LIGAND FREE ENERGY PREDICTED BY IDOCK:   -8.85 KCAL/MOL
REMARK 924 INTRA-LIGAND FREE ENERGY PREDICTED BY IDOCK:   -1.61 KCAL/MOL
REMARK 927      BINDING AFFINITY PREDICTED BY RF-SCORE:    0.00 PKD
ROOT
HETATM    1  C   UNL     1      -7.881  18.794  66.207  1.00  0.00    -0.295 C  
HETATM    2  C   UNL     1      -9.278  18.245  66.475  1.00  0.00    -0.292 C  
HETATM    3  C   UNL     1     -10.342  19.273  66.106  1.00  0.00    -0.578 C  
ENDROOT
BRANCH   2   4
HETATM    4  O   UNL     1      -9.496  17.082  65.657  1.00  0.00    -0.526 OA 
BRANCH   4   5
HETATM    5  C   UNL     1      -9.267  15.891  66.279  1.00  0.00    -0.337 C  
HETATM    6  O   UNL     1      -8.168  15.482  66.629  1.00  0.00    -0.253 OA 
BRANCH   5   7
HETATM    7  C   UNL     1     -10.552  15.120  66.423  1.00  0.00    -0.305 C  
BRANCH   7   8
HETATM    8  C   UNL     1     -10.523  14.297  67.711  1.00  0.00    -0.245 C  
BRANCH   8   9
HETATM    9  C   UNL     1     -11.885  13.733  68.105  1.00  0.00    -0.411 C  
BRANCH   9  10
HETATM   10  C   UNL     1     -12.052  13.601  69.594  1.00  0.00    -0.378 C  
HETATM   11  C   UNL     1     -11.961  12.462  70.299  1.00  0.00    -0.371 C  
BRANCH  11  12
HETATM   12  C   UNL     1     -11.751  11.088  69.724  1.00  0.00    -0.410 C  
BRANCH  12  13
HETATM   13  C   UNL     1     -11.304  10.060  70.772  1.00  0.00    -0.439 C  
HETATM   14  C   UNL     1     -12.402   9.563  71.719  1.00  0.00    -0.394 C  
HETATM   15  O   UNL     1     -13.645   9.395  71.045  1.00  0.00    -0.567 OA 
HETATM   16  C   UNL     1     -11.907   8.194  72.171  1.00  0.00    -0.417 C  
HETATM   17  C   UNL     1     -11.302   7.592  70.906  1.00  0.00    -0.277 C  
HETATM   18  H   UNL     1     -14.325   9.087  71.632  1.00  0.00     0.000 HD 
HETATM   19  O   UNL     1     -12.326   6.943  70.144  1.00  0.00    -0.628 OA 
HETATM   20  C   UNL     1     -10.728   8.782  70.100  1.00  0.00    -0.239 C  
HETATM   21  H   UNL     1     -11.949   6.569  69.356  1.00  0.00     0.000 HD 
BRANCH  20  22
HETATM   22  C   UNL     1      -9.216   8.893  70.014  1.00  0.00    -0.183 C  
HETATM   23  C   UNL     1      -8.367   9.064  71.044  1.00  0.00    -0.237 C  
BRANCH  23  24
HETATM   24  C   UNL     1      -6.864   9.233  70.971  1.00  0.00    -0.089 C  
HETATM   25  H   UNL     1      -5.343   9.040  72.191  1.00  0.00     0.000 HD 
HETATM   26  O   UNL     1      -6.286   8.933  72.238  1.00  0.00    -0.151 OA 
BRANCH  24  27
HETATM   27  C   UNL     1      -6.274   8.310  69.887  1.00  0.00    -0.032 C  
BRANCH  27  28
HETATM   28  O   UNL     1      -6.071   6.979  70.391  1.00  0.00    -0.027 OA 
BRANCH  28  29
HETATM   29  C   UNL     1      -6.504   5.986  69.549  1.00  0.00    -0.042 A  
HETATM   30  C   UNL     1      -6.156   5.894  68.198  1.00  0.00    -0.017 A  
HETATM   31  C   UNL     1      -6.633   4.838  67.418  1.00  0.00    -0.047 A  
HETATM   32  C   UNL     1      -7.454   3.866  67.985  1.00  0.00    -0.066 A  
HETATM   33  C   UNL     1      -7.802   3.932  69.340  1.00  0.00    -0.052 A  
HETATM   34  C   UNL     1      -8.692   2.880  69.955  1.00  0.00    -0.070 C  
HETATM   35  C   UNL     1      -7.309   4.995  70.119  1.00  0.00    -0.059 A  
HETATM   36  F   UNL     1      -9.122   1.945  69.060  1.00  0.00    -0.118 F  
HETATM   37  F   UNL     1      -9.820   3.407  70.507  1.00  0.00    -0.247 F  
HETATM   38  F   UNL     1      -8.075   2.185  70.948  1.00  0.00    -0.047 F  
ENDBRANCH  28  29
ENDBRANCH  27  28
ENDBRANCH  24  27
ENDBRANCH  23  24
ENDBRANCH  20  22
ENDBRANCH  12  13
ENDBRANCH  11  12
ENDBRANCH   9  10
ENDBRANCH   8   9
ENDBRANCH   7   8
ENDBRANCH   5   7
ENDBRANCH   4   5
ENDBRANCH   2   4
TORSDOF 13
ENDMDL
MODEL      261
REMARK 921   NORMALIZED FREE ENERGY PREDICTED BY IDOCK:   -4.67 KCAL/MOL
REMARK 922        TOTAL FREE ENERGY PREDICTED BY IDOCK:  -10.45 KCAL/MOL
REMARK 923 INTER-LIGAND FREE ENERGY PREDICTED BY IDOCK:   -7.67 KCAL/MOL
REMARK 924 INTRA-LIGAND FREE ENERGY PREDICTED BY IDOCK:   -2.78 KCAL/MOL
REMARK 927      BINDING AFFINITY PREDICTED BY RF-SCORE:    0.00 PKD
ROOT
HETATM    1  C   UNL     1     -11.791  15.954  70.773  1.00  0.00    -0.423 C  
HETATM    2  C   UNL     1     -11.434  15.839  69.295  1.00  0.00    -0.365 C  
HETATM    3  C   UNL     1     -10.164  16.625  68.983  1.00  0.00    -0.301 C  
ENDROOT
BRANCH   2   4
HETATM    4  O   UNL     1     -11.180  14.460  68.973  1.00  0.00    -0.240 OA 
BRANCH   4   5
HETATM    5  C   UNL     1     -11.460  14.109  67.686  1.00  0.00    -0.338 C  
HETATM    6  O   UNL     1     -11.861  14.876  66.821  1.00  0.00    -0.304 OA 
BRANCH   5   7
HETATM    7  C   UNL     1     -11.265  12.629  67.494  1.00  0.00    -0.335 C  
BRANCH   7   8
HETATM    8  C   UNL     1     -10.079  12.378  66.563  1.00  0.00    -0.246 C  
BRANCH   8   9
HETATM    9  C   UNL     1     -10.360  11.338  65.483  1.00  0.00    -0.321 C  
BRANCH   9  10
HETATM   10  C   UNL     1      -9.323  10.250  65.437  1.00  0.00    -0.258 C  
HETATM   11  C   UNL     1      -9.419   9.046  66.024  1.00  0.00    -0.323 C  
BRANCH  11  12
HETATM   12  C   UNL     1     -10.548   8.585  66.904  1.00  0.00    -0.279 C  
BRANCH  12  13
HETATM   13  C   UNL     1     -10.069   7.850  68.163  1.00  0.00    -0.228 C  
HETATM   14  C   UNL     1     -10.169   8.646  69.470  1.00  0.00    -0.209 C  
HETATM   15  O   UNL     1     -11.352   9.436  69.516  1.00  0.00    -0.430 OA 
HETATM   16  C   UNL     1     -10.260   7.572  70.548  1.00  0.00    -0.201 C  
HETATM   17  C   UNL     1     -11.165   6.512  69.928  1.00  0.00    -0.395 C  
HETATM   18  H   UNL     1     -11.414   9.929  70.326  1.00  0.00     0.000 HD 
HETATM   19  O   UNL     1     -12.535   6.843  70.175  1.00  0.00    -0.602 OA 
HETATM   20  C   UNL     1     -10.887   6.550  68.405  1.00  0.00    -0.357 C  
HETATM   21  H   UNL     1     -13.099   6.182  69.789  1.00  0.00     0.000 HD 
BRANCH  20  22
HETATM   22  C   UNL     1     -10.146   5.367  67.808  1.00  0.00    -0.215 C  
HETATM   23  C   UNL     1      -9.617   4.330  68.483  1.00  0.00    -0.202 C  
BRANCH  23  24
HETATM   24  C   UNL     1      -8.828   3.174  67.909  1.00  0.00    -0.132 C  
HETATM   25  H   UNL     1      -9.036   1.230  67.773  1.00  0.00     0.000 HD 
HETATM   26  O   UNL     1      -9.531   1.956  68.133  1.00  0.00    -0.190 OA 
BRANCH  24  27
HETATM   27  C   UNL     1      -8.595   3.381  66.399  1.00  0.00    -0.119 C  
BRANCH  27  28
HETATM   28  O   UNL     1      -7.203   3.588  66.111  1.00  0.00    -0.065 OA 
BRANCH  28  29
HETATM   29  C   UNL     1      -6.817   4.905  66.112  1.00  0.00    -0.058 A  
HETATM   30  C   UNL     1      -6.142   5.525  67.167  1.00  0.00    -0.030 A  
HETATM   31  C   UNL     1      -5.776   6.870  67.076  1.00  0.00    -0.018 A  
HETATM   32  C   UNL     1      -6.076   7.599  65.928  1.00  0.00    -0.038 A  
HETATM   33  C   UNL     1      -6.738   6.993  64.854  1.00  0.00    -0.046 A  
HETATM   34  C   UNL     1      -7.065   7.782  63.610  1.00  0.00    -0.074 C  
HETATM   35  C   UNL     1      -7.095   5.635  64.952  1.00  0.00    -0.060 A  
HETATM   36  F   UNL     1      -6.695   9.093  63.688  1.00  0.00    -0.089 F  
HETATM   37  F   UNL     1      -8.398   7.792  63.332  1.00  0.00    -0.124 F  
HETATM   38  F   UNL     1      -6.453   7.291  62.499  1.00  0.00    -0.053 F  
ENDBRANCH  28  29
ENDBRANCH  27  28
ENDBRANCH  24  27
ENDBRANCH  23  24
ENDBRANCH  20  22
ENDBRANCH  12  13
ENDBRANCH  11  12
ENDBRANCH   9  10
ENDBRANCH   8   9
ENDBRANCH   7   8
ENDBRANCH   5   7
ENDBRANCH   4   5
ENDBRANCH   2   4
TORSDOF 13
ENDMDL
MODEL      262
REMARK 921   NORMALIZED FREE ENERGY PREDICTED BY IDOCK:   -4.66 KCAL/MOL
REMARK 922        TOTAL FREE ENERGY PREDICTED BY IDOCK:  -10.43 KCAL/MOL
REMARK 923 INTER-LIGAND FREE ENERGY PREDICTED BY IDOCK:   -7.69 KCAL/MOL
REMARK 924 INTRA-LIGAND FREE ENERGY PREDICTED BY IDOCK:   -2.74 KCAL/MOL
REMARK 927      BINDING AFFINITY PREDICTED BY RF-SCORE:    0.00 PKD
ROOT
HETATM    1  C   UNL     1      -8.668   3.952  70.128  1.00  0.00    -0.120 C  
HETATM    2  C   UNL     1      -8.947   5.421  69.832  1.00  0.00    -0.125 C  
HETATM    3  C   UNL     1     -10.433   5.646  69.568  1.00  0.00    -0.372 C  
ENDROOT
BRANCH   2   4
HETATM    4  O   UNL     1      -8.586   6.214  70.978  1.00  0.00    -0.129 OA 
BRANCH   4   5
HETATM    5  C   UNL     1      -7.379   6.841  70.884  1.00  0.00    -0.082 C  
HETATM    6  O   UNL     1      -6.827   7.440  71.797  1.00  0.00    -0.057 OA 
BRANCH   5   7
HETATM    7  C   UNL     1      -6.848   6.743  69.479  1.00  0.00    -0.054 C  
BRANCH   7   8
HETATM    8  C   UNL     1      -6.568   8.143  68.932  1.00  0.00    -0.049 C  
BRANCH   8   9
HETATM    9  C   UNL     1      -7.754   8.758  68.195  1.00  0.00    -0.101 C  
BRANCH   9  10
HETATM   10  C   UNL     1      -8.039  10.171  68.627  1.00  0.00    -0.109 C  
HETATM   11  C   UNL     1      -8.920  10.543  69.569  1.00  0.00    -0.054 C  
BRANCH  11  12
HETATM   12  C   UNL     1      -9.847   9.625  70.317  1.00  0.00    -0.321 C  
BRANCH  12  13
HETATM   13  C   UNL     1     -11.329   9.902  70.031  1.00  0.00    -0.303 C  
HETATM   14  C   UNL     1     -12.309   8.837  70.536  1.00  0.00     0.275 C  
HETATM   15  O   UNL     1     -11.915   8.316  71.801  1.00  0.00    -0.283 OA 
HETATM   16  C   UNL     1     -13.620   9.595  70.710  1.00  0.00     0.033 C  
HETATM   17  C   UNL     1     -13.187  10.939  71.288  1.00  0.00    -0.193 C  
HETATM   18  H   UNL     1     -12.523   7.656  72.114  1.00  0.00     0.000 HD 
HETATM   19  O   UNL     1     -13.083  10.839  72.713  1.00  0.00    -0.114 OA 
HETATM   20  C   UNL     1     -11.792  11.235  70.685  1.00  0.00    -0.368 C  
HETATM   21  H   UNL     1     -12.813  11.676  73.073  1.00  0.00     0.000 HD 
BRANCH  20  22
HETATM   22  C   UNL     1     -11.704  12.356  69.665  1.00  0.00    -0.377 C  
HETATM   23  C   UNL     1     -11.678  13.676  69.927  1.00  0.00    -0.346 C  
BRANCH  23  24
HETATM   24  C   UNL     1     -11.648  14.806  68.921  1.00  0.00    -0.313 C  
HETATM   25  H   UNL     1     -10.285  15.949  68.097  1.00  0.00     0.000 HD 
HETATM   26  O   UNL     1     -10.304  15.239  68.729  1.00  0.00    -0.219 OA 
BRANCH  24  27
HETATM   27  C   UNL     1     -12.254  14.347  67.580  1.00  0.00    -0.165 C  
BRANCH  27  28
HETATM   28  O   UNL     1     -11.370  14.635  66.484  1.00  0.00    -0.341 OA 
BRANCH  28  29
HETATM   29  C   UNL     1     -11.362  13.678  65.501  1.00  0.00    -0.298 A  
HETATM   30  C   UNL     1     -12.088  13.768  64.311  1.00  0.00    -0.481 A  
HETATM   31  C   UNL     1     -12.009  12.750  63.358  1.00  0.00    -0.613 A  
HETATM   32  C   UNL     1     -11.197  11.641  63.586  1.00  0.00    -0.497 A  
HETATM   33  C   UNL     1     -10.450  11.539  64.766  1.00  0.00    -0.354 A  
HETATM   34  C   UNL     1      -9.571  10.338  65.015  1.00  0.00    -0.285 C  
HETATM   35  C   UNL     1     -10.530  12.574  65.715  1.00  0.00    -0.296 A  
HETATM   36  F   UNL     1      -9.637   9.404  64.023  1.00  0.00    -0.173 F  
HETATM   37  F   UNL     1      -9.898   9.680  66.162  1.00  0.00    -0.245 F  
HETATM   38  F   UNL     1      -8.255  10.663  65.129  1.00  0.00    -0.161 F  
ENDBRANCH  28  29
ENDBRANCH  27  28
ENDBRANCH  24  27
ENDBRANCH  23  24
ENDBRANCH  20  22
ENDBRANCH  12  13
ENDBRANCH  11  12
ENDBRANCH   9  10
ENDBRANCH   8   9
ENDBRANCH   7   8
ENDBRANCH   5   7
ENDBRANCH   4   5
ENDBRANCH   2   4
TORSDOF 13
ENDMDL
MODEL      263
REMARK 921   NORMALIZED FREE ENERGY PREDICTED BY IDOCK:   -4.65 KCAL/MOL
REMARK 922        TOTAL FREE ENERGY PREDICTED BY IDOCK:  -10.41 KCAL/MOL
REMARK 923 INTER-LIGAND FREE ENERGY PREDICTED BY IDOCK:   -7.54 KCAL/MOL
REMARK 924 INTRA-LIGAND FREE ENERGY PREDICTED BY IDOCK:   -2.87 KCAL/MOL
REMARK 927      BINDING AFFINITY PREDICTED BY RF-SCORE:    0.00 PKD
ROOT
HETATM    1  C   UNL     1     -10.758   9.669  66.581  1.00  0.00    -0.102 C  
HETATM    2  C   UNL     1     -10.075   9.748  67.942  1.00  0.00    -0.173 C  
HETATM    3  C   UNL     1      -9.032  10.861  67.960  1.00  0.00    -0.145 C  
ENDROOT
BRANCH   2   4
HETATM    4  O   UNL     1     -11.056  10.057  68.949  1.00  0.00    -0.225 OA 
BRANCH   4   5
HETATM    5  C   UNL     1     -10.957   9.321  70.092  1.00  0.00    -0.246 C  
HETATM    6  O   UNL     1     -10.811   9.785  71.215  1.00  0.00    -0.334 OA 
BRANCH   5   7
HETATM    7  C   UNL     1     -10.991   7.851  69.772  1.00  0.00    -0.148 C  
BRANCH   7   8
HETATM    8  C   UNL     1     -10.443   7.049  70.952  1.00  0.00    -0.233 C  
BRANCH   8   9
HETATM    9  C   UNL     1      -9.201   6.232  70.610  1.00  0.00    -0.164 C  
BRANCH   9  10
HETATM   10  C   UNL     1      -8.089   7.072  70.041  1.00  0.00    -0.128 C  
HETATM   11  C   UNL     1      -7.508   6.902  68.844  1.00  0.00    -0.096 C  
BRANCH  11  12
HETATM   12  C   UNL     1      -7.803   5.792  67.873  1.00  0.00    -0.097 C  
BRANCH  12  13
HETATM   13  C   UNL     1      -7.065   5.947  66.537  1.00  0.00    -0.069 C  
HETATM   14  C   UNL     1      -6.313   4.703  66.049  1.00  0.00    -0.036 C  
HETATM   15  O   UNL     1      -7.036   3.508  66.326  1.00  0.00    -0.060 OA 
HETATM   16  C   UNL     1      -6.239   4.887  64.538  1.00  0.00    -0.030 C  
HETATM   17  C   UNL     1      -7.605   5.460  64.175  1.00  0.00    -0.076 C  
HETATM   18  H   UNL     1      -6.570   2.737  66.023  1.00  0.00     0.000 HD 
HETATM   19  O   UNL     1      -8.538   4.393  63.976  1.00  0.00    -0.110 OA 
HETATM   20  C   UNL     1      -8.045   6.316  65.388  1.00  0.00    -0.131 C  
HETATM   21  H   UNL     1      -9.389   4.750  63.750  1.00  0.00     0.000 HD 
BRANCH  20  22
HETATM   22  C   UNL     1      -8.063   7.822  65.202  1.00  0.00    -0.137 C  
HETATM   23  C   UNL     1      -8.295   8.483  64.052  1.00  0.00    -0.099 C  
BRANCH  23  24
HETATM   24  C   UNL     1      -8.261   9.981  63.838  1.00  0.00    -0.159 C  
HETATM   25  H   UNL     1      -7.038  11.281  63.026  1.00  0.00     0.000 HD 
HETATM   26  O   UNL     1      -7.060  10.340  63.161  1.00  0.00    -0.137 OA 
BRANCH  24  27
HETATM   27  C   UNL     1      -9.486  10.434  63.019  1.00  0.00    -0.330 C  
BRANCH  27  28
HETATM   28  O   UNL     1      -9.593  11.867  62.992  1.00  0.00    -0.376 OA 
BRANCH  28  29
HETATM   29  C   UNL     1     -10.598  12.372  63.779  1.00  0.00    -0.452 A  
HETATM   30  C   UNL     1     -11.949  12.045  63.634  1.00  0.00    -0.612 A  
HETATM   31  C   UNL     1     -12.903  12.598  64.491  1.00  0.00    -0.356 A  
HETATM   32  C   UNL     1     -12.511  13.474  65.501  1.00  0.00    -0.538 A  
HETATM   33  C   UNL     1     -11.161  13.802  65.672  1.00  0.00    -0.297 A  
HETATM   34  C   UNL     1     -10.735  14.752  66.764  1.00  0.00    -0.309 C  
HETATM   35  C   UNL     1     -10.207  13.233  64.809  1.00  0.00    -0.323 A  
HETATM   36  F   UNL     1     -11.781  15.251  67.485  1.00  0.00    -0.346 F  
HETATM   37  F   UNL     1     -10.068  15.837  66.284  1.00  0.00    -0.252 F  
HETATM   38  F   UNL     1      -9.905  14.171  67.673  1.00  0.00    -0.217 F  
ENDBRANCH  28  29
ENDBRANCH  27  28
ENDBRANCH  24  27
ENDBRANCH  23  24
ENDBRANCH  20  22
ENDBRANCH  12  13
ENDBRANCH  11  12
ENDBRANCH   9  10
ENDBRANCH   8   9
ENDBRANCH   7   8
ENDBRANCH   5   7
ENDBRANCH   4   5
ENDBRANCH   2   4
TORSDOF 13
ENDMDL
MODEL      264
REMARK 921   NORMALIZED FREE ENERGY PREDICTED BY IDOCK:   -4.63 KCAL/MOL
REMARK 922        TOTAL FREE ENERGY PREDICTED BY IDOCK:  -10.36 KCAL/MOL
REMARK 923 INTER-LIGAND FREE ENERGY PREDICTED BY IDOCK:   -8.77 KCAL/MOL
REMARK 924 INTRA-LIGAND FREE ENERGY PREDICTED BY IDOCK:   -1.60 KCAL/MOL
REMARK 927      BINDING AFFINITY PREDICTED BY RF-SCORE:    0.00 PKD
ROOT
HETATM    1  C   UNL     1      -9.868   3.932  64.119  1.00  0.00    -0.181 C  
HETATM    2  C   UNL     1      -9.392   4.363  65.502  1.00  0.00    -0.162 C  
HETATM    3  C   UNL     1     -10.446   5.223  66.192  1.00  0.00    -0.259 C  
ENDROOT
BRANCH   2   4
HETATM    4  O   UNL     1      -9.184   3.195  66.317  1.00  0.00    -0.152 OA 
BRANCH   4   5
HETATM    5  C   UNL     1      -7.887   2.965  66.669  1.00  0.00    -0.076 C  
HETATM    6  O   UNL     1      -6.916   3.201  65.963  1.00  0.00    -0.054 OA 
BRANCH   5   7
HETATM    7  C   UNL     1      -7.822   2.321  68.029  1.00  0.00    -0.058 C  
BRANCH   7   8
HETATM    8  C   UNL     1      -7.515   3.379  69.089  1.00  0.00    -0.049 C  
BRANCH   8   9
HETATM    9  C   UNL     1      -8.574   3.469  70.184  1.00  0.00    -0.107 C  
BRANCH   9  10
HETATM   10  C   UNL     1      -9.901   3.961  69.673  1.00  0.00    -0.106 C  
HETATM   11  C   UNL     1     -10.322   5.236  69.676  1.00  0.00    -0.348 C  
BRANCH  11  12
HETATM   12  C   UNL     1      -9.580   6.405  70.261  1.00  0.00    -0.177 C  
BRANCH  12  13
HETATM   13  C   UNL     1     -10.092   6.809  71.650  1.00  0.00    -0.197 C  
HETATM   14  C   UNL     1      -9.511   6.013  72.825  1.00  0.00    -0.151 C  
HETATM   15  O   UNL     1      -8.130   5.723  72.634  1.00  0.00    -0.105 OA 
HETATM   16  C   UNL     1      -9.648   6.957  74.013  1.00  0.00    -0.299 C  
HETATM   17  C   UNL     1      -9.295   8.324  73.433  1.00  0.00    -0.116 C  
HETATM   18  H   UNL     1      -7.770   5.230  73.362  1.00  0.00     0.000 HD 
HETATM   19  O   UNL     1      -7.877   8.513  73.477  1.00  0.00    -0.357 OA 
HETATM   20  C   UNL     1      -9.771   8.298  71.961  1.00  0.00    -0.322 C  
HETATM   21  H   UNL     1      -7.656   9.364  73.115  1.00  0.00     0.000 HD 
BRANCH  20  22
HETATM   22  C   UNL     1     -10.972   9.158  71.608  1.00  0.00    -0.445 C  
HETATM   23  C   UNL     1     -11.110   9.928  70.512  1.00  0.00    -0.398 C  
BRANCH  23  24
HETATM   24  C   UNL     1     -12.275  10.834  70.174  1.00  0.00    -0.346 C  
HETATM   25  H   UNL     1     -13.452  12.068  71.139  1.00  0.00     0.000 HD 
HETATM   26  O   UNL     1     -12.721  11.500  71.351  1.00  0.00    -0.397 OA 
BRANCH  24  27
HETATM   27  C   UNL     1     -11.859  11.865  69.106  1.00  0.00    -0.311 C  
BRANCH  27  28
HETATM   28  O   UNL     1     -12.410  13.161  69.393  1.00  0.00    -0.187 OA 
BRANCH  28  29
HETATM   29  C   UNL     1     -11.759  14.199  68.775  1.00  0.00    -0.345 A  
HETATM   30  C   UNL     1     -11.109  15.233  69.453  1.00  0.00    -0.283 A  
HETATM   31  C   UNL     1     -10.459  16.244  68.741  1.00  0.00    -0.282 A  
HETATM   32  C   UNL     1     -10.449  16.221  67.348  1.00  0.00    -0.304 A  
HETATM   33  C   UNL     1     -11.082  15.186  66.650  1.00  0.00    -0.308 A  
HETATM   34  C   UNL     1     -11.073  15.161  65.142  1.00  0.00    -0.403 C  
HETATM   35  C   UNL     1     -11.726  14.168  67.377  1.00  0.00    -0.422 A  
HETATM   36  F   UNL     1     -10.447  16.239  64.586  1.00  0.00    -0.284 F  
HETATM   37  F   UNL     1     -12.327  15.150  64.611  1.00  0.00    -0.376 F  
HETATM   38  F   UNL     1     -10.441  14.067  64.637  1.00  0.00    -0.399 F  
ENDBRANCH  28  29
ENDBRANCH  27  28
ENDBRANCH  24  27
ENDBRANCH  23  24
ENDBRANCH  20  22
ENDBRANCH  12  13
ENDBRANCH  11  12
ENDBRANCH   9  10
ENDBRANCH   8   9
ENDBRANCH   7   8
ENDBRANCH   5   7
ENDBRANCH   4   5
ENDBRANCH   2   4
TORSDOF 13
ENDMDL
MODEL      265
REMARK 921   NORMALIZED FREE ENERGY PREDICTED BY IDOCK:   -4.61 KCAL/MOL
REMARK 922        TOTAL FREE ENERGY PREDICTED BY IDOCK:  -10.34 KCAL/MOL
REMARK 923 INTER-LIGAND FREE ENERGY PREDICTED BY IDOCK:   -8.70 KCAL/MOL
REMARK 924 INTRA-LIGAND FREE ENERGY PREDICTED BY IDOCK:   -1.64 KCAL/MOL
REMARK 927      BINDING AFFINITY PREDICTED BY RF-SCORE:    0.00 PKD
ROOT
HETATM    1  C   UNL     1     -13.971   7.521  71.423  1.00  0.00    -0.468 C  
HETATM    2  C   UNL     1     -12.557   7.059  71.760  1.00  0.00    -0.350 C  
HETATM    3  C   UNL     1     -11.745   6.835  70.488  1.00  0.00    -0.430 C  
ENDROOT
BRANCH   2   4
HETATM    4  O   UNL     1     -11.893   8.081  72.524  1.00  0.00    -0.367 OA 
BRANCH   4   5
HETATM    5  C   UNL     1     -10.678   7.723  73.029  1.00  0.00    -0.384 C  
HETATM    6  O   UNL     1     -10.482   6.778  73.781  1.00  0.00    -0.325 OA 
BRANCH   5   7
HETATM    7  C   UNL     1      -9.618   8.691  72.577  1.00  0.00    -0.257 C  
BRANCH   7   8
HETATM    8  C   UNL     1      -8.305   8.400  73.303  1.00  0.00    -0.183 C  
BRANCH   8   9
HETATM    9  C   UNL     1      -7.264   7.709  72.428  1.00  0.00    -0.082 C  
BRANCH   9  10
HETATM   10  C   UNL     1      -6.853   8.541  71.244  1.00  0.00    -0.068 C  
HETATM   11  C   UNL     1      -7.316   8.411  69.990  1.00  0.00    -0.059 C  
BRANCH  11  12
HETATM   12  C   UNL     1      -8.277   7.357  69.514  1.00  0.00    -0.131 C  
BRANCH  12  13
HETATM   13  C   UNL     1      -8.272   7.182  67.990  1.00  0.00    -0.120 C  
HETATM   14  C   UNL     1      -7.549   5.933  67.471  1.00  0.00    -0.093 C  
HETATM   15  O   UNL     1      -7.771   4.808  68.314  1.00  0.00    -0.080 OA 
HETATM   16  C   UNL     1      -8.203   5.664  66.121  1.00  0.00    -0.110 C  
HETATM   17  C   UNL     1      -9.679   5.959  66.367  1.00  0.00    -0.134 C  
HETATM   18  H   UNL     1      -7.323   4.034  67.992  1.00  0.00     0.000 HD 
HETATM   19  O   UNL     1     -10.324   4.791  66.885  1.00  0.00    -0.216 OA 
HETATM   20  C   UNL     1      -9.718   7.088  67.426  1.00  0.00    -0.177 C  
HETATM   21  H   UNL     1     -11.243   4.975  67.039  1.00  0.00     0.000 HD 
BRANCH  20  22
HETATM   22  C   UNL     1     -10.169   8.460  66.958  1.00  0.00    -0.377 C  
HETATM   23  C   UNL     1     -10.530   9.493  67.741  1.00  0.00    -0.309 C  
BRANCH  23  24
HETATM   24  C   UNL     1     -11.035  10.847  67.290  1.00  0.00    -0.294 C  
HETATM   25  H   UNL     1     -12.429  12.110  67.844  1.00  0.00     0.000 HD 
HETATM   26  O   UNL     1     -12.111  11.260  68.127  1.00  0.00    -0.635 OA 
BRANCH  24  27
HETATM   27  C   UNL     1      -9.898  11.887  67.338  1.00  0.00    -0.183 C  
BRANCH  27  28
HETATM   28  O   UNL     1     -10.227  13.054  66.567  1.00  0.00    -0.258 OA 
BRANCH  28  29
HETATM   29  C   UNL     1     -10.487  14.171  67.319  1.00  0.00    -0.272 A  
HETATM   30  C   UNL     1     -11.708  14.429  67.948  1.00  0.00    -0.388 A  
HETATM   31  C   UNL     1     -11.880  15.589  68.707  1.00  0.00    -0.335 A  
HETATM   32  C   UNL     1     -10.829  16.493  68.848  1.00  0.00    -0.336 A  
HETATM   33  C   UNL     1      -9.593  16.246  68.238  1.00  0.00    -0.218 A  
HETATM   34  C   UNL     1      -8.455  17.225  68.389  1.00  0.00    -0.254 C  
HETATM   35  C   UNL     1      -9.428  15.071  67.483  1.00  0.00    -0.203 A  
HETATM   36  F   UNL     1      -8.787  18.334  69.112  1.00  0.00    -0.219 F  
HETATM   37  F   UNL     1      -8.002  17.689  67.191  1.00  0.00    -0.200 F  
HETATM   38  F   UNL     1      -7.375  16.685  69.016  1.00  0.00    -0.185 F  
ENDBRANCH  28  29
ENDBRANCH  27  28
ENDBRANCH  24  27
ENDBRANCH  23  24
ENDBRANCH  20  22
ENDBRANCH  12  13
ENDBRANCH  11  12
ENDBRANCH   9  10
ENDBRANCH   8   9
ENDBRANCH   7   8
ENDBRANCH   5   7
ENDBRANCH   4   5
ENDBRANCH   2   4
TORSDOF 13
ENDMDL
MODEL      266
REMARK 921   NORMALIZED FREE ENERGY PREDICTED BY IDOCK:   -4.61 KCAL/MOL
REMARK 922        TOTAL FREE ENERGY PREDICTED BY IDOCK:  -10.34 KCAL/MOL
REMARK 923 INTER-LIGAND FREE ENERGY PREDICTED BY IDOCK:   -9.61 KCAL/MOL
REMARK 924 INTRA-LIGAND FREE ENERGY PREDICTED BY IDOCK:   -0.73 KCAL/MOL
REMARK 927      BINDING AFFINITY PREDICTED BY RF-SCORE:    0.00 PKD
ROOT
HETATM    1  C   UNL     1     -10.480  19.393  66.100  1.00  0.00    -0.600 C  
HETATM    2  C   UNL     1      -9.039  19.213  66.564  1.00  0.00    -0.341 C  
HETATM    3  C   UNL     1      -8.597  20.391  67.426  1.00  0.00    -0.403 C  
ENDROOT
BRANCH   2   4
HETATM    4  O   UNL     1      -8.945  18.025  67.372  1.00  0.00    -0.243 OA 
BRANCH   4   5
HETATM    5  C   UNL     1     -10.136  17.422  67.646  1.00  0.00    -0.327 C  
HETATM    6  O   UNL     1     -10.930  17.791  68.500  1.00  0.00    -0.120 OA 
BRANCH   5   7
HETATM    7  C   UNL     1     -10.311  16.197  66.787  1.00  0.00    -0.291 C  
BRANCH   7   8
HETATM    8  C   UNL     1     -11.513  15.389  67.274  1.00  0.00    -0.166 C  
BRANCH   8   9
HETATM    9  C   UNL     1     -11.220  14.543  68.509  1.00  0.00    -0.285 C  
BRANCH   9  10
HETATM   10  C   UNL     1     -11.961  13.234  68.508  1.00  0.00    -0.340 C  
HETATM   11  C   UNL     1     -11.540  12.091  67.944  1.00  0.00    -0.405 C  
BRANCH  11  12
HETATM   12  C   UNL     1     -10.282  11.921  67.138  1.00  0.00    -0.230 C  
BRANCH  12  13
HETATM   13  C   UNL     1     -10.491  11.092  65.864  1.00  0.00    -0.310 C  
HETATM   14  C   UNL     1     -10.633  11.899  64.568  1.00  0.00    -0.311 C  
HETATM   15  O   UNL     1      -9.760  13.023  64.548  1.00  0.00    -0.574 OA 
HETATM   16  C   UNL     1     -10.196  10.926  63.479  1.00  0.00    -0.379 C  
HETATM   17  C   UNL     1      -9.009  10.196  64.100  1.00  0.00    -0.238 C  
HETATM   18  H   UNL     1      -9.849  13.523  63.745  1.00  0.00     0.000 HD 
HETATM   19  O   UNL     1      -7.811  10.947  63.877  1.00  0.00    -0.349 OA 
HETATM   20  C   UNL     1      -9.301  10.121  65.619  1.00  0.00    -0.250 C  
HETATM   21  H   UNL     1      -7.072  10.493  64.265  1.00  0.00     0.000 HD 
BRANCH  20  22
HETATM   22  C   UNL     1      -9.637   8.755  66.192  1.00  0.00    -0.323 C  
HETATM   23  C   UNL     1     -10.785   8.403  66.798  1.00  0.00    -0.071 C  
BRANCH  23  24
HETATM   24  C   UNL     1     -11.113   7.064  67.424  1.00  0.00    -0.195 C  
HETATM   25  H   UNL     1     -10.778   5.176  67.018  1.00  0.00     0.000 HD 
HETATM   26  O   UNL     1     -10.572   6.016  66.625  1.00  0.00    -0.256 OA 
BRANCH  24  27
HETATM   27  C   UNL     1     -10.544   6.988  68.855  1.00  0.00    -0.215 C  
BRANCH  27  28
HETATM   28  O   UNL     1     -11.397   6.213  69.713  1.00  0.00    -0.411 OA 
BRANCH  28  29
HETATM   29  C   UNL     1     -10.986   6.165  71.022  1.00  0.00    -0.293 A  
HETATM   30  C   UNL     1     -11.198   7.187  71.951  1.00  0.00    -0.282 A  
HETATM   31  C   UNL     1     -10.755   7.045  73.268  1.00  0.00    -0.373 A  
HETATM   32  C   UNL     1     -10.105   5.879  73.664  1.00  0.00    -0.213 A  
HETATM   33  C   UNL     1      -9.896   4.837  72.753  1.00  0.00    -0.184 A  
HETATM   34  C   UNL     1      -9.190   3.574  73.180  1.00  0.00    -0.098 C  
HETATM   35  C   UNL     1     -10.353   4.986  71.431  1.00  0.00    -0.251 A  
HETATM   36  F   UNL     1      -8.769   3.602  74.478  1.00  0.00    -0.088 F  
HETATM   37  F   UNL     1      -8.077   3.319  72.438  1.00  0.00    -0.059 F  
HETATM   38  F   UNL     1      -9.977   2.469  73.072  1.00  0.00    -0.134 F  
ENDBRANCH  28  29
ENDBRANCH  27  28
ENDBRANCH  24  27
ENDBRANCH  23  24
ENDBRANCH  20  22
ENDBRANCH  12  13
ENDBRANCH  11  12
ENDBRANCH   9  10
ENDBRANCH   8   9
ENDBRANCH   7   8
ENDBRANCH   5   7
ENDBRANCH   4   5
ENDBRANCH   2   4
TORSDOF 13
ENDMDL
MODEL      267
REMARK 921   NORMALIZED FREE ENERGY PREDICTED BY IDOCK:   -4.61 KCAL/MOL
REMARK 922        TOTAL FREE ENERGY PREDICTED BY IDOCK:  -10.33 KCAL/MOL
REMARK 923 INTER-LIGAND FREE ENERGY PREDICTED BY IDOCK:   -8.09 KCAL/MOL
REMARK 924 INTRA-LIGAND FREE ENERGY PREDICTED BY IDOCK:   -2.24 KCAL/MOL
REMARK 927      BINDING AFFINITY PREDICTED BY RF-SCORE:    0.00 PKD
ROOT
HETATM    1  C   UNL     1      -8.836   5.775  65.792  1.00  0.00    -0.151 C  
HETATM    2  C   UNL     1      -9.507   5.309  67.080  1.00  0.00    -0.134 C  
HETATM    3  C   UNL     1     -10.818   6.056  67.306  1.00  0.00    -0.403 C  
ENDROOT
BRANCH   2   4
HETATM    4  O   UNL     1      -9.819   3.908  66.973  1.00  0.00    -0.201 OA 
BRANCH   4   5
HETATM    5  C   UNL     1      -9.102   3.096  67.801  1.00  0.00    -0.178 C  
HETATM    6  O   UNL     1      -8.363   2.193  67.431  1.00  0.00    -0.073 OA 
BRANCH   5   7
HETATM    7  C   UNL     1      -9.395   3.428  69.240  1.00  0.00    -0.240 C  
BRANCH   7   8
HETATM    8  C   UNL     1      -8.357   2.768  70.146  1.00  0.00    -0.077 C  
BRANCH   8   9
HETATM    9  C   UNL     1      -7.715   3.731  71.141  1.00  0.00    -0.058 C  
BRANCH   9  10
HETATM   10  C   UNL     1      -8.344   3.665  72.505  1.00  0.00    -0.085 C  
HETATM   11  C   UNL     1      -8.893   4.693  73.170  1.00  0.00    -0.111 C  
BRANCH  11  12
HETATM   12  C   UNL     1      -8.915   6.125  72.710  1.00  0.00    -0.126 C  
BRANCH  12  13
HETATM   13  C   UNL     1      -9.871   6.364  71.534  1.00  0.00    -0.186 C  
HETATM   14  C   UNL     1     -11.308   5.868  71.740  1.00  0.00    -0.227 C  
HETATM   15  O   UNL     1     -11.755   6.085  73.074  1.00  0.00    -0.497 OA 
HETATM   16  C   UNL     1     -12.136   6.740  70.803  1.00  0.00    -0.402 C  
HETATM   17  C   UNL     1     -11.505   8.122  70.941  1.00  0.00    -0.271 C  
HETATM   18  H   UNL     1     -12.645   5.778  73.201  1.00  0.00     0.000 HD 
HETATM   19  O   UNL     1     -12.087   8.808  72.055  1.00  0.00    -0.331 OA 
HETATM   20  C   UNL     1      -9.999   7.879  71.209  1.00  0.00    -0.206 C  
HETATM   21  H   UNL     1     -11.694   9.668  72.141  1.00  0.00     0.000 HD 
BRANCH  20  22
HETATM   22  C   UNL     1      -9.032   8.241  70.095  1.00  0.00    -0.142 C  
HETATM   23  C   UNL     1      -9.319   8.942  68.983  1.00  0.00    -0.144 C  
BRANCH  23  24
HETATM   24  C   UNL     1      -8.382   9.262  67.838  1.00  0.00    -0.116 C  
HETATM   25  H   UNL     1      -6.742   8.503  67.079  1.00  0.00     0.000 HD 
HETATM   26  O   UNL     1      -7.331   8.302  67.798  1.00  0.00    -0.089 OA 
BRANCH  24  27
HETATM   27  C   UNL     1      -9.150   9.264  66.501  1.00  0.00    -0.154 C  
BRANCH  27  28
HETATM   28  O   UNL     1      -8.633  10.262  65.606  1.00  0.00    -0.148 OA 
BRANCH  28  29
HETATM   29  C   UNL     1      -9.598  10.999  64.967  1.00  0.00    -0.247 A  
HETATM   30  C   UNL     1     -10.005  10.785  63.647  1.00  0.00    -0.405 A  
HETATM   31  C   UNL     1     -11.006  11.577  63.081  1.00  0.00    -0.195 A  
HETATM   32  C   UNL     1     -11.611  12.582  63.833  1.00  0.00    -0.516 A  
HETATM   33  C   UNL     1     -11.229  12.802  65.161  1.00  0.00    -0.327 A  
HETATM   34  C   UNL     1     -11.882  13.891  65.977  1.00  0.00    -0.393 C  
HETATM   35  C   UNL     1     -10.225  11.994  65.725  1.00  0.00    -0.274 A  
HETATM   36  F   UNL     1     -12.802  14.614  65.275  1.00  0.00    -0.361 F  
HETATM   37  F   UNL     1     -10.985  14.799  66.452  1.00  0.00    -0.306 F  
HETATM   38  F   UNL     1     -12.543  13.409  67.064  1.00  0.00    -0.312 F  
ENDBRANCH  28  29
ENDBRANCH  27  28
ENDBRANCH  24  27
ENDBRANCH  23  24
ENDBRANCH  20  22
ENDBRANCH  12  13
ENDBRANCH  11  12
ENDBRANCH   9  10
ENDBRANCH   8   9
ENDBRANCH   7   8
ENDBRANCH   5   7
ENDBRANCH   4   5
ENDBRANCH   2   4
TORSDOF 13
ENDMDL
MODEL      268
REMARK 921   NORMALIZED FREE ENERGY PREDICTED BY IDOCK:   -4.60 KCAL/MOL
REMARK 922        TOTAL FREE ENERGY PREDICTED BY IDOCK:  -10.32 KCAL/MOL
REMARK 923 INTER-LIGAND FREE ENERGY PREDICTED BY IDOCK:   -8.52 KCAL/MOL
REMARK 924 INTRA-LIGAND FREE ENERGY PREDICTED BY IDOCK:   -1.80 KCAL/MOL
REMARK 927      BINDING AFFINITY PREDICTED BY RF-SCORE:    0.00 PKD
ROOT
HETATM    1  C   UNL     1     -14.083  15.356  71.726  1.00  0.00    -0.630 C  
HETATM    2  C   UNL     1     -12.625  15.202  72.146  1.00  0.00    -0.332 C  
HETATM    3  C   UNL     1     -12.379  15.863  73.498  1.00  0.00    -0.660 C  
ENDROOT
BRANCH   2   4
HETATM    4  O   UNL     1     -12.315  13.803  72.283  1.00  0.00    -0.037 OA 
BRANCH   4   5
HETATM    5  C   UNL     1     -12.421  13.076  71.135  1.00  0.00    -0.271 C  
HETATM    6  O   UNL     1     -12.048  13.449  70.031  1.00  0.00    -0.326 OA 
BRANCH   5   7
HETATM    7  C   UNL     1     -13.118  11.770  71.407  1.00  0.00    -0.322 C  
BRANCH   7   8
HETATM    8  C   UNL     1     -12.218  10.605  70.991  1.00  0.00    -0.498 C  
BRANCH   8   9
HETATM    9  C   UNL     1     -12.117  10.422  69.480  1.00  0.00    -0.125 C  
BRANCH   9  10
HETATM   10  C   UNL     1     -10.753   9.969  69.038  1.00  0.00    -0.244 C  
HETATM   11  C   UNL     1      -9.925  10.641  68.222  1.00  0.00    -0.173 C  
BRANCH  11  12
HETATM   12  C   UNL     1     -10.237  11.941  67.532  1.00  0.00    -0.212 C  
BRANCH  12  13
HETATM   13  C   UNL     1     -11.112  11.765  66.284  1.00  0.00    -0.364 C  
HETATM   14  C   UNL     1     -12.392  12.608  66.251  1.00  0.00     0.040 C  
HETATM   15  O   UNL     1     -12.182  13.907  66.793  1.00  0.00    -0.429 OA 
HETATM   16  C   UNL     1     -12.704  12.746  64.766  1.00  0.00    -0.469 C  
HETATM   17  C   UNL     1     -11.334  12.948  64.125  1.00  0.00    -0.393 C  
HETATM   18  H   UNL     1     -12.975  14.430  66.773  1.00  0.00     0.000 HD 
HETATM   19  O   UNL     1     -10.986  14.336  64.158  1.00  0.00    -0.579 OA 
HETATM   20  C   UNL     1     -10.335  12.141  64.991  1.00  0.00    -0.320 C  
HETATM   21  H   UNL     1     -10.133  14.462  63.759  1.00  0.00     0.000 HD 
BRANCH  20  22
HETATM   22  C   UNL     1      -9.742  10.887  64.374  1.00  0.00    -0.342 C  
HETATM   23  C   UNL     1      -8.435  10.573  64.301  1.00  0.00    -0.128 C  
BRANCH  23  24
HETATM   24  C   UNL     1      -7.825   9.355  63.640  1.00  0.00    -0.131 C  
HETATM   25  H   UNL     1      -6.579   9.001  62.169  1.00  0.00     0.000 HD 
HETATM   26  O   UNL     1      -6.962   9.766  62.584  1.00  0.00    -0.104 OA 
BRANCH  24  27
HETATM   27  C   UNL     1      -7.039   8.523  64.673  1.00  0.00    -0.080 C  
BRANCH  27  28
HETATM   28  O   UNL     1      -6.687   7.234  64.143  1.00  0.00    -0.046 OA 
BRANCH  28  29
HETATM   29  C   UNL     1      -7.493   6.210  64.572  1.00  0.00    -0.083 A  
HETATM   30  C   UNL     1      -7.456   4.912  64.055  1.00  0.00    -0.060 A  
HETATM   31  C   UNL     1      -8.307   3.927  64.563  1.00  0.00    -0.098 A  
HETATM   32  C   UNL     1      -9.191   4.232  65.596  1.00  0.00    -0.148 A  
HETATM   33  C   UNL     1      -9.232   5.522  66.138  1.00  0.00    -0.166 A  
HETATM   34  C   UNL     1     -10.190   5.855  67.255  1.00  0.00    -0.200 C  
HETATM   35  C   UNL     1      -8.365   6.505  65.625  1.00  0.00    -0.144 A  
HETATM   36  F   UNL     1     -10.991   4.809  67.610  1.00  0.00     0.066 F  
HETATM   37  F   UNL     1     -11.035   6.873  66.934  1.00  0.00    -0.389 F  
HETATM   38  F   UNL     1      -9.555   6.236  68.397  1.00  0.00    -0.123 F  
ENDBRANCH  28  29
ENDBRANCH  27  28
ENDBRANCH  24  27
ENDBRANCH  23  24
ENDBRANCH  20  22
ENDBRANCH  12  13
ENDBRANCH  11  12
ENDBRANCH   9  10
ENDBRANCH   8   9
ENDBRANCH   7   8
ENDBRANCH   5   7
ENDBRANCH   4   5
ENDBRANCH   2   4
TORSDOF 13
ENDMDL
MODEL      269
REMARK 921   NORMALIZED FREE ENERGY PREDICTED BY IDOCK:   -4.60 KCAL/MOL
REMARK 922        TOTAL FREE ENERGY PREDICTED BY IDOCK:  -10.31 KCAL/MOL
REMARK 923 INTER-LIGAND FREE ENERGY PREDICTED BY IDOCK:   -9.02 KCAL/MOL
REMARK 924 INTRA-LIGAND FREE ENERGY PREDICTED BY IDOCK:   -1.29 KCAL/MOL
REMARK 927      BINDING AFFINITY PREDICTED BY RF-SCORE:    0.00 PKD
ROOT
HETATM    1  C   UNL     1      -7.592  18.608  67.993  1.00  0.00    -0.279 C  
HETATM    2  C   UNL     1      -7.339  17.137  67.684  1.00  0.00    -0.164 C  
HETATM    3  C   UNL     1      -6.504  16.490  68.785  1.00  0.00    -0.152 C  
ENDROOT
BRANCH   2   4
HETATM    4  O   UNL     1      -8.597  16.440  67.628  1.00  0.00    -0.172 OA 
BRANCH   4   5
HETATM    5  C   UNL     1      -9.391  16.599  68.725  1.00  0.00    -0.256 C  
HETATM    6  O   UNL     1     -10.025  17.610  68.992  1.00  0.00    -0.318 OA 
BRANCH   5   7
HETATM    7  C   UNL     1      -9.330  15.372  69.596  1.00  0.00    -0.208 C  
BRANCH   7   8
HETATM    8  C   UNL     1      -9.403  14.115  68.728  1.00  0.00    -0.092 C  
BRANCH   8   9
HETATM    9  C   UNL     1     -10.671  13.295  68.948  1.00  0.00    -0.215 C  
BRANCH   9  10
HETATM   10  C   UNL     1     -11.925  14.073  68.658  1.00  0.00    -0.389 C  
HETATM   11  C   UNL     1     -12.350  14.459  67.445  1.00  0.00    -0.067 C  
BRANCH  11  12
HETATM   12  C   UNL     1     -11.613  14.256  66.151  1.00  0.00    -0.374 C  
BRANCH  12  13
HETATM   13  C   UNL     1     -11.862  12.877  65.526  1.00  0.00    -0.455 C  
HETATM   14  C   UNL     1     -12.775  12.865  64.294  1.00  0.00    -0.205 C  
HETATM   15  O   UNL     1     -12.544  13.992  63.456  1.00  0.00    -0.989 OA 
HETATM   16  C   UNL     1     -12.359  11.607  63.540  1.00  0.00    -0.349 C  
HETATM   17  C   UNL     1     -10.841  11.583  63.684  1.00  0.00    -0.415 C  
HETATM   18  H   UNL     1     -13.110  13.985  62.693  1.00  0.00     0.000 HD 
HETATM   19  O   UNL     1     -10.246  12.372  62.648  1.00  0.00    -0.158 OA 
HETATM   20  C   UNL     1     -10.532  12.217  65.063  1.00  0.00    -0.322 C  
HETATM   21  H   UNL     1      -9.300  12.357  62.738  1.00  0.00     0.000 HD 
BRANCH  20  22
HETATM   22  C   UNL     1     -10.021  11.291  66.151  1.00  0.00    -0.268 C  
HETATM   23  C   UNL     1      -8.785  10.765  66.239  1.00  0.00    -0.175 C  
BRANCH  23  24
HETATM   24  C   UNL     1      -8.277   9.797  67.285  1.00  0.00    -0.117 C  
HETATM   25  H   UNL     1      -7.171   9.889  68.901  1.00  0.00     0.000 HD 
HETATM   26  O   UNL     1      -7.491  10.497  68.245  1.00  0.00    -0.086 OA 
BRANCH  24  27
HETATM   27  C   UNL     1      -9.459   9.092  67.982  1.00  0.00    -0.142 C  
BRANCH  27  28
HETATM   28  O   UNL     1      -9.396   7.668  67.798  1.00  0.00    -0.141 OA 
BRANCH  28  29
HETATM   29  C   UNL     1      -9.837   6.941  68.875  1.00  0.00    -0.147 A  
HETATM   30  C   UNL     1      -9.992   5.552  68.876  1.00  0.00    -0.236 A  
HETATM   31  C   UNL     1     -10.435   4.893  70.025  1.00  0.00    -0.119 A  
HETATM   32  C   UNL     1     -10.718   5.618  71.180  1.00  0.00    -0.310 A  
HETATM   33  C   UNL     1     -10.555   7.008  71.205  1.00  0.00    -0.237 A  
HETATM   34  C   UNL     1     -10.862   7.795  72.455  1.00  0.00    -0.328 C  
HETATM   35  C   UNL     1     -10.100   7.661  70.045  1.00  0.00    -0.204 A  
HETATM   36  F   UNL     1     -11.335   7.023  73.477  1.00  0.00    -0.215 F  
HETATM   37  F   UNL     1     -11.807   8.754  72.251  1.00  0.00    -0.390 F  
HETATM   38  F   UNL     1      -9.772   8.439  72.954  1.00  0.00    -0.323 F  
ENDBRANCH  28  29
ENDBRANCH  27  28
ENDBRANCH  24  27
ENDBRANCH  23  24
ENDBRANCH  20  22
ENDBRANCH  12  13
ENDBRANCH  11  12
ENDBRANCH   9  10
ENDBRANCH   8   9
ENDBRANCH   7   8
ENDBRANCH   5   7
ENDBRANCH   4   5
ENDBRANCH   2   4
TORSDOF 13
ENDMDL
MODEL      270
REMARK 921   NORMALIZED FREE ENERGY PREDICTED BY IDOCK:   -4.57 KCAL/MOL
REMARK 922        TOTAL FREE ENERGY PREDICTED BY IDOCK:  -10.26 KCAL/MOL
REMARK 923 INTER-LIGAND FREE ENERGY PREDICTED BY IDOCK:   -8.39 KCAL/MOL
REMARK 924 INTRA-LIGAND FREE ENERGY PREDICTED BY IDOCK:   -1.87 KCAL/MOL
REMARK 927      BINDING AFFINITY PREDICTED BY RF-SCORE:    0.00 PKD
ROOT
HETATM    1  C   UNL     1      -9.809   3.664  71.481  1.00  0.00    -0.227 C  
HETATM    2  C   UNL     1      -9.784   5.184  71.359  1.00  0.00    -0.168 C  
HETATM    3  C   UNL     1      -8.425   5.663  70.858  1.00  0.00    -0.125 C  
ENDROOT
BRANCH   2   4
HETATM    4  O   UNL     1     -10.772   5.600  70.400  1.00  0.00    -0.282 OA 
BRANCH   4   5
HETATM    5  C   UNL     1     -11.579   6.618  70.813  1.00  0.00    -0.376 C  
HETATM    6  O   UNL     1     -12.509   6.502  71.599  1.00  0.00    -0.336 OA 
BRANCH   5   7
HETATM    7  C   UNL     1     -11.202   7.898  70.116  1.00  0.00    -0.157 C  
BRANCH   7   8
HETATM    8  C   UNL     1     -11.266   9.064  71.103  1.00  0.00    -0.375 C  
BRANCH   8   9
HETATM    9  C   UNL     1     -11.379  10.428  70.429  1.00  0.00    -0.417 C  
BRANCH   9  10
HETATM   10  C   UNL     1     -10.357  10.629  69.344  1.00  0.00    -0.234 C  
HETATM   11  C   UNL     1     -10.508  11.394  68.251  1.00  0.00    -0.221 C  
BRANCH  11  12
HETATM   12  C   UNL     1     -11.757  12.136  67.864  1.00  0.00    -0.403 C  
BRANCH  12  13
HETATM   13  C   UNL     1     -11.852  12.411  66.357  1.00  0.00    -0.421 C  
HETATM   14  C   UNL     1     -12.511  13.739  65.969  1.00  0.00    -0.445 C  
HETATM   15  O   UNL     1     -12.148  14.788  66.860  1.00  0.00    -0.367 OA 
HETATM   16  C   UNL     1     -11.931  14.049  64.594  1.00  0.00    -0.449 C  
HETATM   17  C   UNL     1     -10.468  13.634  64.715  1.00  0.00    -0.418 C  
HETATM   18  H   UNL     1     -12.556  15.612  66.619  1.00  0.00     0.000 HD 
HETATM   19  O   UNL     1      -9.703  14.716  65.255  1.00  0.00    -0.496 OA 
HETATM   20  C   UNL     1     -10.444  12.438  65.698  1.00  0.00    -0.290 C  
HETATM   21  H   UNL     1      -8.792  14.458  65.331  1.00  0.00     0.000 HD 
BRANCH  20  22
HETATM   22  C   UNL     1     -10.131  11.071  65.116  1.00  0.00    -0.346 C  
HETATM   23  C   UNL     1      -9.025  10.727  64.431  1.00  0.00    -0.176 C  
BRANCH  23  24
HETATM   24  C   UNL     1      -8.724   9.387  63.796  1.00  0.00    -0.201 C  
HETATM   25  H   UNL     1      -8.036   8.740  62.078  1.00  0.00     0.000 HD 
HETATM   26  O   UNL     1      -8.225   9.582  62.477  1.00  0.00    -0.127 OA 
BRANCH  24  27
HETATM   27  C   UNL     1      -7.693   8.613  64.643  1.00  0.00    -0.121 C  
BRANCH  27  28
HETATM   28  O   UNL     1      -8.337   7.852  65.678  1.00  0.00    -0.129 OA 
BRANCH  28  29
HETATM   29  C   UNL     1      -8.376   6.501  65.442  1.00  0.00    -0.140 A  
HETATM   30  C   UNL     1      -8.177   5.916  64.188  1.00  0.00    -0.075 A  
HETATM   31  C   UNL     1      -8.223   4.527  64.043  1.00  0.00    -0.106 A  
HETATM   32  C   UNL     1      -8.460   3.717  65.150  1.00  0.00    -0.105 A  
HETATM   33  C   UNL     1      -8.647   4.282  66.418  1.00  0.00    -0.112 A  
HETATM   34  C   UNL     1      -8.904   3.405  67.618  1.00  0.00    -0.129 C  
HETATM   35  C   UNL     1      -8.590   5.681  66.555  1.00  0.00    -0.119 A  
HETATM   36  F   UNL     1      -8.974   2.077  67.313  1.00  0.00    -0.121 F  
HETATM   37  F   UNL     1     -10.079   3.701  68.240  1.00  0.00    -0.107 F  
HETATM   38  F   UNL     1      -7.937   3.515  68.568  1.00  0.00    -0.064 F  
ENDBRANCH  28  29
ENDBRANCH  27  28
ENDBRANCH  24  27
ENDBRANCH  23  24
ENDBRANCH  20  22
ENDBRANCH  12  13
ENDBRANCH  11  12
ENDBRANCH   9  10
ENDBRANCH   8   9
ENDBRANCH   7   8
ENDBRANCH   5   7
ENDBRANCH   4   5
ENDBRANCH   2   4
TORSDOF 13
ENDMDL
MODEL      271
REMARK 921   NORMALIZED FREE ENERGY PREDICTED BY IDOCK:   -4.55 KCAL/MOL
REMARK 922        TOTAL FREE ENERGY PREDICTED BY IDOCK:  -10.23 KCAL/MOL
REMARK 923 INTER-LIGAND FREE ENERGY PREDICTED BY IDOCK:   -8.25 KCAL/MOL
REMARK 924 INTRA-LIGAND FREE ENERGY PREDICTED BY IDOCK:   -1.98 KCAL/MOL
REMARK 927      BINDING AFFINITY PREDICTED BY RF-SCORE:    0.00 PKD
ROOT
HETATM    1  C   UNL     1      -6.495   7.046  69.844  1.00  0.00    -0.039 C  
HETATM    2  C   UNL     1      -6.837   6.104  70.993  1.00  0.00    -0.066 C  
HETATM    3  C   UNL     1      -5.866   4.928  71.034  1.00  0.00    -0.017 C  
ENDROOT
BRANCH   2   4
HETATM    4  O   UNL     1      -6.713   6.812  72.240  1.00  0.00    -0.058 OA 
BRANCH   4   5
HETATM    5  C   UNL     1      -7.749   7.649  72.530  1.00  0.00    -0.096 C  
HETATM    6  O   UNL     1      -7.719   8.867  72.418  1.00  0.00    -0.360 OA 
BRANCH   5   7
HETATM    7  C   UNL     1      -8.919   6.867  73.064  1.00  0.00    -0.146 C  
BRANCH   7   8
HETATM    8  C   UNL     1     -10.227   7.521  72.620  1.00  0.00    -0.297 C  
BRANCH   8   9
HETATM    9  C   UNL     1     -11.287   6.521  72.169  1.00  0.00    -0.321 C  
BRANCH   9  10
HETATM   10  C   UNL     1     -11.744   6.754  70.755  1.00  0.00    -0.439 C  
HETATM   11  C   UNL     1     -11.314   6.094  69.668  1.00  0.00    -0.442 C  
BRANCH  11  12
HETATM   12  C   UNL     1     -10.236   5.046  69.648  1.00  0.00    -0.306 C  
BRANCH  12  13
HETATM   13  C   UNL     1      -9.312   5.157  68.427  1.00  0.00    -0.155 C  
HETATM   14  C   UNL     1      -8.410   3.944  68.170  1.00  0.00    -0.091 C  
HETATM   15  O   UNL     1      -9.082   2.719  68.443  1.00  0.00    -0.129 OA 
HETATM   16  C   UNL     1      -8.116   4.014  66.676  1.00  0.00    -0.097 C  
HETATM   17  C   UNL     1      -9.446   4.442  66.065  1.00  0.00    -0.173 C  
HETATM   18  H   UNL     1      -8.523   1.968  68.283  1.00  0.00     0.000 HD 
HETATM   19  O   UNL     1     -10.261   3.290  65.827  1.00  0.00    -0.280 OA 
HETATM   20  C   UNL     1     -10.127   5.352  67.117  1.00  0.00    -0.231 C  
HETATM   21  H   UNL     1     -11.090   3.557  65.446  1.00  0.00     0.000 HD 
BRANCH  20  22
HETATM   22  C   UNL     1     -10.219   6.833  66.795  1.00  0.00    -0.273 C  
HETATM   23  C   UNL     1      -9.220   7.731  66.867  1.00  0.00    -0.187 C  
BRANCH  23  24
HETATM   24  C   UNL     1      -9.309   9.219  66.604  1.00  0.00    -0.170 C  
HETATM   25  H   UNL     1      -8.881  10.869  67.572  1.00  0.00     0.000 HD 
HETATM   26  O   UNL     1      -8.824   9.935  67.736  1.00  0.00    -0.128 OA 
BRANCH  24  27
HETATM   27  C   UNL     1      -8.491   9.592  65.352  1.00  0.00    -0.148 C  
BRANCH  27  28
HETATM   28  O   UNL     1      -8.436  11.016  65.172  1.00  0.00    -0.100 OA 
BRANCH  28  29
HETATM   29  C   UNL     1      -9.616  11.576  64.750  1.00  0.00    -0.174 A  
HETATM   30  C   UNL     1     -10.216  11.309  63.516  1.00  0.00    -0.456 A  
HETATM   31  C   UNL     1     -11.427  11.915  63.175  1.00  0.00    -0.230 A  
HETATM   32  C   UNL     1     -12.048  12.785  64.068  1.00  0.00    -0.533 A  
HETATM   33  C   UNL     1     -11.471  13.055  65.315  1.00  0.00    -0.340 A  
HETATM   34  C   UNL     1     -12.142  13.998  66.283  1.00  0.00    -0.456 C  
HETATM   35  C   UNL     1     -10.255  12.432  65.652  1.00  0.00    -0.285 A  
HETATM   36  F   UNL     1     -13.287  14.553  65.791  1.00  0.00    -0.365 F  
HETATM   37  F   UNL     1     -11.345  15.046  66.630  1.00  0.00    -0.338 F  
HETATM   38  F   UNL     1     -12.497  13.392  67.448  1.00  0.00    -0.323 F  
ENDBRANCH  28  29
ENDBRANCH  27  28
ENDBRANCH  24  27
ENDBRANCH  23  24
ENDBRANCH  20  22
ENDBRANCH  12  13
ENDBRANCH  11  12
ENDBRANCH   9  10
ENDBRANCH   8   9
ENDBRANCH   7   8
ENDBRANCH   5   7
ENDBRANCH   4   5
ENDBRANCH   2   4
TORSDOF 13
ENDMDL
MODEL      272
REMARK 921   NORMALIZED FREE ENERGY PREDICTED BY IDOCK:   -4.54 KCAL/MOL
REMARK 922        TOTAL FREE ENERGY PREDICTED BY IDOCK:  -10.21 KCAL/MOL
REMARK 923 INTER-LIGAND FREE ENERGY PREDICTED BY IDOCK:   -8.59 KCAL/MOL
REMARK 924 INTRA-LIGAND FREE ENERGY PREDICTED BY IDOCK:   -1.62 KCAL/MOL
REMARK 927      BINDING AFFINITY PREDICTED BY RF-SCORE:    0.00 PKD
ROOT
HETATM    1  C   UNL     1      -8.186   8.449  64.504  1.00  0.00    -0.149 C  
HETATM    2  C   UNL     1      -8.811   7.872  65.770  1.00  0.00    -0.119 C  
HETATM    3  C   UNL     1      -8.756   6.348  65.753  1.00  0.00    -0.135 C  
ENDROOT
BRANCH   2   4
HETATM    4  O   UNL     1      -8.064   8.320  66.915  1.00  0.00    -0.101 OA 
BRANCH   4   5
HETATM    5  C   UNL     1      -6.709   8.274  66.771  1.00  0.00    -0.064 C  
HETATM    6  O   UNL     1      -6.044   7.249  66.714  1.00  0.00    -0.039 OA 
BRANCH   5   7
HETATM    7  C   UNL     1      -6.138   9.667  66.752  1.00  0.00    -0.063 C  
BRANCH   7   8
HETATM    8  C   UNL     1      -7.141  10.648  67.359  1.00  0.00    -0.090 C  
BRANCH   8   9
HETATM    9  C   UNL     1      -7.180  10.613  68.884  1.00  0.00    -0.090 C  
BRANCH   9  10
HETATM   10  C   UNL     1      -8.580  10.682  69.433  1.00  0.00    -0.046 C  
HETATM   11  C   UNL     1      -9.212   9.706  70.103  1.00  0.00    -0.287 C  
BRANCH  11  12
HETATM   12  C   UNL     1      -8.670   8.329  70.367  1.00  0.00    -0.139 C  
BRANCH  12  13
HETATM   13  C   UNL     1      -9.762   7.307  70.710  1.00  0.00    -0.171 C  
HETATM   14  C   UNL     1      -9.430   5.848  70.377  1.00  0.00    -0.163 C  
HETATM   15  O   UNL     1      -8.065   5.544  70.644  1.00  0.00    -0.109 OA 
HETATM   16  C   UNL     1     -10.302   5.044  71.334  1.00  0.00    -0.251 C  
HETATM   17  C   UNL     1     -10.233   5.834  72.638  1.00  0.00    -0.184 C  
HETATM   18  H   UNL     1      -7.859   4.639  70.438  1.00  0.00     0.000 HD 
HETATM   19  O   UNL     1      -9.081   5.429  73.385  1.00  0.00    -0.129 OA 
HETATM   20  C   UNL     1     -10.092   7.320  72.230  1.00  0.00    -0.219 C  
HETATM   21  H   UNL     1      -9.037   5.921  74.197  1.00  0.00     0.000 HD 
BRANCH  20  22
HETATM   22  C   UNL     1     -11.288   8.222  72.480  1.00  0.00    -0.455 C  
HETATM   23  C   UNL     1     -12.328   8.420  71.649  1.00  0.00    -0.359 C  
BRANCH  23  24
HETATM   24  C   UNL     1     -13.498   9.357  71.859  1.00  0.00    -0.426 C  
HETATM   25  H   UNL     1     -14.755   9.773  73.304  1.00  0.00     0.000 HD 
HETATM   26  O   UNL     1     -14.020   9.185  73.173  1.00  0.00    -0.295 OA 
BRANCH  24  27
HETATM   27  C   UNL     1     -13.057  10.820  71.651  1.00  0.00    -0.446 C  
BRANCH  27  28
HETATM   28  O   UNL     1     -12.687  11.062  70.283  1.00  0.00    -0.270 OA 
BRANCH  28  29
HETATM   29  C   UNL     1     -12.108  12.287  70.065  1.00  0.00    -0.273 A  
HETATM   30  C   UNL     1     -11.335  12.602  68.945  1.00  0.00    -0.345 A  
HETATM   31  C   UNL     1     -10.794  13.882  68.799  1.00  0.00    -0.282 A  
HETATM   32  C   UNL     1     -11.030  14.854  69.768  1.00  0.00    -0.280 A  
HETATM   33  C   UNL     1     -11.814  14.563  70.891  1.00  0.00    -0.362 A  
HETATM   34  C   UNL     1     -12.069  15.615  71.942  1.00  0.00    -0.432 C  
HETATM   35  C   UNL     1     -12.361  13.274  71.024  1.00  0.00    -0.379 A  
HETATM   36  F   UNL     1     -11.434  16.796  71.690  1.00  0.00    -0.420 F  
HETATM   37  F   UNL     1     -11.653  15.229  73.180  1.00  0.00    -0.513 F  
HETATM   38  F   UNL     1     -13.388  15.925  72.068  1.00  0.00    -0.501 F  
ENDBRANCH  28  29
ENDBRANCH  27  28
ENDBRANCH  24  27
ENDBRANCH  23  24
ENDBRANCH  20  22
ENDBRANCH  12  13
ENDBRANCH  11  12
ENDBRANCH   9  10
ENDBRANCH   8   9
ENDBRANCH   7   8
ENDBRANCH   5   7
ENDBRANCH   4   5
ENDBRANCH   2   4
TORSDOF 13
ENDMDL
MODEL      273
REMARK 921   NORMALIZED FREE ENERGY PREDICTED BY IDOCK:   -4.54 KCAL/MOL
REMARK 922        TOTAL FREE ENERGY PREDICTED BY IDOCK:  -10.20 KCAL/MOL
REMARK 923 INTER-LIGAND FREE ENERGY PREDICTED BY IDOCK:   -6.94 KCAL/MOL
REMARK 924 INTRA-LIGAND FREE ENERGY PREDICTED BY IDOCK:   -3.26 KCAL/MOL
REMARK 927      BINDING AFFINITY PREDICTED BY RF-SCORE:    0.00 PKD
ROOT
HETATM    1  C   UNL     1      -9.639   7.533  66.631  1.00  0.00    -0.263 C  
HETATM    2  C   UNL     1      -9.263   9.001  66.795  1.00  0.00    -0.157 C  
HETATM    3  C   UNL     1     -10.119   9.882  65.891  1.00  0.00    -0.316 C  
ENDROOT
BRANCH   2   4
HETATM    4  O   UNL     1      -9.509   9.406  68.154  1.00  0.00    -0.134 OA 
BRANCH   4   5
HETATM    5  C   UNL     1      -8.393   9.535  68.926  1.00  0.00    -0.121 C  
HETATM    6  O   UNL     1      -8.385   9.899  70.094  1.00  0.00    -0.192 OA 
BRANCH   5   7
HETATM    7  C   UNL     1      -7.161   9.222  68.118  1.00  0.00    -0.077 C  
BRANCH   7   8
HETATM    8  C   UNL     1      -6.287  10.471  68.000  1.00  0.00    -0.058 C  
BRANCH   8   9
HETATM    9  C   UNL     1      -6.887  11.553  67.107  1.00  0.00    -0.139 C  
BRANCH   9  10
HETATM   10  C   UNL     1      -6.429  12.936  67.479  1.00  0.00    -0.162 C  
HETATM   11  C   UNL     1      -6.944  13.701  68.455  1.00  0.00    -0.104 C  
BRANCH  11  12
HETATM   12  C   UNL     1      -8.131  13.352  69.310  1.00  0.00     0.572 C  
BRANCH  12  13
HETATM   13  C   UNL     1      -9.459  13.860  68.734  1.00  0.00    -0.045 C  
HETATM   14  C   UNL     1     -10.536  12.791  68.517  1.00  0.00    -0.252 C  
HETATM   15  O   UNL     1     -10.539  11.826  69.563  1.00  0.00    -0.444 OA 
HETATM   16  C   UNL     1     -11.845  13.571  68.572  1.00  0.00    -0.398 C  
HETATM   17  C   UNL     1     -11.620  14.578  69.696  1.00  0.00    -0.299 C  
HETATM   18  H   UNL     1     -11.207  11.163  69.428  1.00  0.00     0.000 HD 
HETATM   19  O   UNL     1     -11.951  13.979  70.953  1.00  0.00    -0.400 OA 
HETATM   20  C   UNL     1     -10.111  14.922  69.665  1.00  0.00    -0.070 C  
HETATM   21  H   UNL     1     -11.810  14.606  71.653  1.00  0.00     0.000 HD 
BRANCH  20  22
HETATM   22  C   UNL     1      -9.728  16.313  69.191  1.00  0.00    -0.265 C  
HETATM   23  C   UNL     1     -10.553  17.367  69.058  1.00  0.00    -0.207 C  
BRANCH  23  24
HETATM   24  C   UNL     1     -10.200  18.743  68.535  1.00  0.00    -0.344 C  
HETATM   25  H   UNL     1      -8.561  19.747  68.150  1.00  0.00     0.000 HD 
HETATM   26  O   UNL     1      -8.783  18.884  68.478  1.00  0.00    -0.328 OA 
BRANCH  24  27
HETATM   27  C   UNL     1     -10.810  18.957  67.135  1.00  0.00    -0.348 C  
BRANCH  27  28
HETATM   28  O   UNL     1      -9.889  18.571  66.102  1.00  0.00    -0.437 OA 
BRANCH  28  29
HETATM   29  C   UNL     1      -9.818  17.218  65.888  1.00  0.00    -0.126 A  
HETATM   30  C   UNL     1      -8.670  16.449  66.097  1.00  0.00    -0.347 A  
HETATM   31  C   UNL     1      -8.692  15.071  65.865  1.00  0.00     0.517 A  
HETATM   32  C   UNL     1      -9.864  14.455  65.432  1.00  0.00    -0.265 A  
HETATM   33  C   UNL     1     -11.029  15.205  65.231  1.00  0.00    -0.405 A  
HETATM   34  C   UNL     1     -12.299  14.539  64.761  1.00  0.00    -0.391 C  
HETATM   35  C   UNL     1     -10.998  16.590  65.476  1.00  0.00    -0.096 A  
HETATM   36  F   UNL     1     -12.154  13.203  64.527  1.00  0.00    -0.376 F  
HETATM   37  F   UNL     1     -12.766  15.068  63.597  1.00  0.00    -0.175 F  
HETATM   38  F   UNL     1     -13.315  14.648  65.660  1.00  0.00    -0.287 F  
ENDBRANCH  28  29
ENDBRANCH  27  28
ENDBRANCH  24  27
ENDBRANCH  23  24
ENDBRANCH  20  22
ENDBRANCH  12  13
ENDBRANCH  11  12
ENDBRANCH   9  10
ENDBRANCH   8   9
ENDBRANCH   7   8
ENDBRANCH   5   7
ENDBRANCH   4   5
ENDBRANCH   2   4
TORSDOF 13
ENDMDL
MODEL      274
REMARK 921   NORMALIZED FREE ENERGY PREDICTED BY IDOCK:   -4.52 KCAL/MOL
REMARK 922        TOTAL FREE ENERGY PREDICTED BY IDOCK:  -10.18 KCAL/MOL
REMARK 923 INTER-LIGAND FREE ENERGY PREDICTED BY IDOCK:   -8.76 KCAL/MOL
REMARK 924 INTRA-LIGAND FREE ENERGY PREDICTED BY IDOCK:   -1.43 KCAL/MOL
REMARK 927      BINDING AFFINITY PREDICTED BY RF-SCORE:    0.00 PKD
ROOT
HETATM    1  C   UNL     1      -6.011  10.906  66.174  1.00  0.00    -0.141 C  
HETATM    2  C   UNL     1      -7.237  10.003  66.257  1.00  0.00    -0.106 C  
HETATM    3  C   UNL     1      -6.869   8.560  65.928  1.00  0.00    -0.064 C  
ENDROOT
BRANCH   2   4
HETATM    4  O   UNL     1      -7.751  10.024  67.601  1.00  0.00    -0.091 OA 
BRANCH   4   5
HETATM    5  C   UNL     1      -7.727  11.245  68.206  1.00  0.00    -0.122 C  
HETATM    6  O   UNL     1      -6.926  11.587  69.066  1.00  0.00    -0.096 OA 
BRANCH   5   7
HETATM    7  C   UNL     1      -8.865  12.097  67.710  1.00  0.00    -0.172 C  
BRANCH   7   8
HETATM    8  C   UNL     1      -8.633  13.555  68.107  1.00  0.00    -0.173 C  
BRANCH   8   9
HETATM    9  C   UNL     1      -9.002  14.551  67.011  1.00  0.00    -0.258 C  
BRANCH   9  10
HETATM   10  C   UNL     1     -10.431  15.013  67.101  1.00  0.00    -0.277 C  
HETATM   11  C   UNL     1     -11.035  15.499  68.198  1.00  0.00    -0.312 C  
BRANCH  11  12
HETATM   12  C   UNL     1     -10.419  15.602  69.566  1.00  0.00    -0.270 C  
BRANCH  12  13
HETATM   13  C   UNL     1     -11.179  14.798  70.630  1.00  0.00    -0.173 C  
HETATM   14  C   UNL     1     -11.504  15.556  71.922  1.00  0.00    -0.423 C  
HETATM   15  O   UNL     1     -11.864  16.909  71.664  1.00  0.00    -0.452 OA 
HETATM   16  C   UNL     1     -12.722  14.828  72.479  1.00  0.00    -0.455 C  
HETATM   17  C   UNL     1     -13.558  14.519  71.241  1.00  0.00    -0.357 C  
HETATM   18  H   UNL     1     -12.065  17.378  72.466  1.00  0.00     0.000 HD 
HETATM   19  O   UNL     1     -14.396  15.638  70.934  1.00  0.00    -0.801 OA 
HETATM   20  C   UNL     1     -12.547  14.295  70.089  1.00  0.00    -0.338 C  
HETATM   21  H   UNL     1     -14.916  15.446  70.163  1.00  0.00     0.000 HD 
BRANCH  20  22
HETATM   22  C   UNL     1     -12.396  12.877  69.569  1.00  0.00    -0.040 C  
HETATM   23  C   UNL     1     -11.826  11.844  70.217  1.00  0.00    -0.368 C  
BRANCH  23  24
HETATM   24  C   UNL     1     -11.617  10.440  69.691  1.00  0.00    -0.239 C  
HETATM   25  H   UNL     1     -11.412   9.586  67.939  1.00  0.00     0.000 HD 
HETATM   26  O   UNL     1     -11.544  10.468  68.269  1.00  0.00    -0.367 OA 
BRANCH  24  27
HETATM   27  C   UNL     1     -10.325   9.836  70.277  1.00  0.00    -0.291 C  
BRANCH  27  28
HETATM   28  O   UNL     1     -10.347   8.400  70.214  1.00  0.00    -0.197 OA 
BRANCH  28  29
HETATM   29  C   UNL     1      -9.866   7.780  71.339  1.00  0.00    -0.167 A  
HETATM   30  C   UNL     1      -8.896   8.326  72.184  1.00  0.00    -0.265 A  
HETATM   31  C   UNL     1      -8.474   7.627  73.318  1.00  0.00    -0.208 A  
HETATM   32  C   UNL     1      -9.026   6.383  73.616  1.00  0.00    -0.134 A  
HETATM   33  C   UNL     1     -10.009   5.825  72.791  1.00  0.00    -0.196 A  
HETATM   34  C   UNL     1     -10.606   4.477  73.113  1.00  0.00    -0.216 C  
HETATM   35  C   UNL     1     -10.433   6.541  71.656  1.00  0.00    -0.241 A  
HETATM   36  F   UNL     1     -10.059   3.893  74.217  1.00  0.00    -0.143 F  
HETATM   37  F   UNL     1     -10.443   3.578  72.103  1.00  0.00    -0.230 F  
HETATM   38  F   UNL     1     -11.944   4.538  73.352  1.00  0.00    -0.375 F  
ENDBRANCH  28  29
ENDBRANCH  27  28
ENDBRANCH  24  27
ENDBRANCH  23  24
ENDBRANCH  20  22
ENDBRANCH  12  13
ENDBRANCH  11  12
ENDBRANCH   9  10
ENDBRANCH   8   9
ENDBRANCH   7   8
ENDBRANCH   5   7
ENDBRANCH   4   5
ENDBRANCH   2   4
TORSDOF 13
ENDMDL
MODEL      275
REMARK 921   NORMALIZED FREE ENERGY PREDICTED BY IDOCK:   -4.52 KCAL/MOL
REMARK 922        TOTAL FREE ENERGY PREDICTED BY IDOCK:  -10.17 KCAL/MOL
REMARK 923 INTER-LIGAND FREE ENERGY PREDICTED BY IDOCK:   -8.11 KCAL/MOL
REMARK 924 INTRA-LIGAND FREE ENERGY PREDICTED BY IDOCK:   -2.06 KCAL/MOL
REMARK 927      BINDING AFFINITY PREDICTED BY RF-SCORE:    0.00 PKD
ROOT
HETATM    1  C   UNL     1     -11.336  10.955  69.007  1.00  0.00    -0.348 C  
HETATM    2  C   UNL     1     -11.392   9.759  69.951  1.00  0.00    -0.192 C  
HETATM    3  C   UNL     1     -10.124   9.677  70.794  1.00  0.00    -0.293 C  
ENDROOT
BRANCH   2   4
HETATM    4  O   UNL     1     -12.503   9.916  70.852  1.00  0.00    -0.308 OA 
BRANCH   4   5
HETATM    5  C   UNL     1     -12.830   8.798  71.559  1.00  0.00    -0.325 C  
HETATM    6  O   UNL     1     -13.178   8.787  72.733  1.00  0.00    -0.355 OA 
BRANCH   5   7
HETATM    7  C   UNL     1     -12.647   7.570  70.709  1.00  0.00    -0.032 C  
BRANCH   7   8
HETATM    8  C   UNL     1     -11.828   6.528  71.471  1.00  0.00    -0.386 C  
BRANCH   8   9
HETATM    9  C   UNL     1     -10.927   5.685  70.574  1.00  0.00    -0.267 C  
BRANCH   9  10
HETATM   10  C   UNL     1      -9.494   6.142  70.593  1.00  0.00    -0.185 C  
HETATM   11  C   UNL     1      -8.866   6.806  69.609  1.00  0.00    -0.144 C  
BRANCH  11  12
HETATM   12  C   UNL     1      -9.454   7.151  68.268  1.00  0.00    -0.133 C  
BRANCH  12  13
HETATM   13  C   UNL     1      -8.427   7.748  67.297  1.00  0.00    -0.118 C  
HETATM   14  C   UNL     1      -7.199   6.874  67.015  1.00  0.00    -0.084 C  
HETATM   15  O   UNL     1      -7.543   5.495  66.925  1.00  0.00    -0.090 OA 
HETATM   16  C   UNL     1      -6.719   7.344  65.646  1.00  0.00    -0.048 C  
HETATM   17  C   UNL     1      -8.012   7.569  64.867  1.00  0.00    -0.132 C  
HETATM   18  H   UNL     1      -6.781   4.954  66.750  1.00  0.00     0.000 HD 
HETATM   19  O   UNL     1      -8.435   6.339  64.270  1.00  0.00    -0.331 OA 
HETATM   20  C   UNL     1      -9.062   8.031  65.906  1.00  0.00    -0.159 C  
HETATM   21  H   UNL     1      -9.239   6.479  63.785  1.00  0.00     0.000 HD 
BRANCH  20  22
HETATM   22  C   UNL     1      -9.509   9.481  65.840  1.00  0.00    -0.307 C  
HETATM   23  C   UNL     1      -9.871  10.157  64.734  1.00  0.00    -0.382 C  
BRANCH  23  24
HETATM   24  C   UNL     1     -10.265  11.615  64.643  1.00  0.00    -0.281 C  
HETATM   25  H   UNL     1     -10.818  12.861  63.234  1.00  0.00     0.000 HD 
HETATM   26  O   UNL     1     -10.571  11.945  63.292  1.00  0.00    -0.403 OA 
BRANCH  24  27
HETATM   27  C   UNL     1     -11.482  11.900  65.546  1.00  0.00    -0.252 C  
BRANCH  27  28
HETATM   28  O   UNL     1     -11.735  13.310  65.649  1.00  0.00    -0.329 OA 
BRANCH  28  29
HETATM   29  C   UNL     1     -11.207  13.897  66.772  1.00  0.00    -0.318 A  
HETATM   30  C   UNL     1     -11.962  14.570  67.736  1.00  0.00    -0.345 A  
HETATM   31  C   UNL     1     -11.341  15.126  68.857  1.00  0.00    -0.314 A  
HETATM   32  C   UNL     1      -9.963  15.005  69.023  1.00  0.00    -0.246 A  
HETATM   33  C   UNL     1      -9.190  14.322  68.076  1.00  0.00    -0.192 A  
HETATM   34  C   UNL     1      -7.698  14.191  68.254  1.00  0.00    -0.139 C  
HETATM   35  C   UNL     1      -9.827  13.758  66.955  1.00  0.00    -0.251 A  
HETATM   36  F   UNL     1      -7.228  14.829  69.365  1.00  0.00    -0.131 F  
HETATM   37  F   UNL     1      -6.998  14.712  67.208  1.00  0.00    -0.204 F  
HETATM   38  F   UNL     1      -7.293  12.898  68.372  1.00  0.00    -0.090 F  
ENDBRANCH  28  29
ENDBRANCH  27  28
ENDBRANCH  24  27
ENDBRANCH  23  24
ENDBRANCH  20  22
ENDBRANCH  12  13
ENDBRANCH  11  12
ENDBRANCH   9  10
ENDBRANCH   8   9
ENDBRANCH   7   8
ENDBRANCH   5   7
ENDBRANCH   4   5
ENDBRANCH   2   4
TORSDOF 13
ENDMDL
MODEL      276
REMARK 921   NORMALIZED FREE ENERGY PREDICTED BY IDOCK:   -4.50 KCAL/MOL
REMARK 922        TOTAL FREE ENERGY PREDICTED BY IDOCK:  -10.13 KCAL/MOL
REMARK 923 INTER-LIGAND FREE ENERGY PREDICTED BY IDOCK:   -9.01 KCAL/MOL
REMARK 924 INTRA-LIGAND FREE ENERGY PREDICTED BY IDOCK:   -1.13 KCAL/MOL
REMARK 927      BINDING AFFINITY PREDICTED BY RF-SCORE:    0.00 PKD
ROOT
HETATM    1  C   UNL     1     -12.055  15.605  72.674  1.00  0.00    -0.565 C  
HETATM    2  C   UNL     1     -13.077  15.627  71.543  1.00  0.00    -0.485 C  
HETATM    3  C   UNL     1     -12.381  15.716  70.189  1.00  0.00    -0.366 C  
ENDROOT
BRANCH   2   4
HETATM    4  O   UNL     1     -13.834  14.404  71.562  1.00  0.00    -0.381 OA 
BRANCH   4   5
HETATM    5  C   UNL     1     -13.099  13.271  71.370  1.00  0.00    -0.277 C  
HETATM    6  O   UNL     1     -12.102  13.192  70.666  1.00  0.00    -0.348 OA 
BRANCH   5   7
HETATM    7  C   UNL     1     -13.724  12.113  72.102  1.00  0.00    -0.145 C  
BRANCH   7   8
HETATM    8  C   UNL     1     -13.041  10.809  71.690  1.00  0.00    -0.551 C  
BRANCH   8   9
HETATM    9  C   UNL     1     -13.569   9.584  72.430  1.00  0.00    -0.459 C  
BRANCH   9  10
HETATM   10  C   UNL     1     -13.244   8.294  71.728  1.00  0.00    -0.368 C  
HETATM   11  C   UNL     1     -12.139   7.554  71.910  1.00  0.00    -0.338 C  
BRANCH  11  12
HETATM   12  C   UNL     1     -10.978   7.913  72.796  1.00  0.00    -0.456 C  
BRANCH  12  13
HETATM   13  C   UNL     1      -9.802   8.530  72.027  1.00  0.00    -0.383 C  
HETATM   14  C   UNL     1      -8.458   8.529  72.764  1.00  0.00    -0.087 C  
HETATM   15  O   UNL     1      -8.267   7.332  73.511  1.00  0.00    -0.109 OA 
HETATM   16  C   UNL     1      -7.424   8.572  71.644  1.00  0.00    -0.128 C  
HETATM   17  C   UNL     1      -8.005   7.646  70.580  1.00  0.00    -0.100 C  
HETATM   18  H   UNL     1      -7.434   7.331  73.967  1.00  0.00     0.000 HD 
HETATM   19  O   UNL     1      -7.618   6.295  70.853  1.00  0.00    -0.092 OA 
HETATM   20  C   UNL     1      -9.543   7.778  70.691  1.00  0.00    -0.166 C  
HETATM   21  H   UNL     1      -7.979   5.718  70.190  1.00  0.00     0.000 HD 
BRANCH  20  22
HETATM   22  C   UNL     1     -10.259   8.496  69.560  1.00  0.00    -0.206 C  
HETATM   23  C   UNL     1     -10.001   9.738  69.111  1.00  0.00    -0.195 C  
BRANCH  23  24
HETATM   24  C   UNL     1     -10.741  10.487  68.024  1.00  0.00    -0.245 C  
HETATM   25  H   UNL     1     -12.502  11.322  67.808  1.00  0.00     0.000 HD 
HETATM   26  O   UNL     1     -12.037  10.852  68.490  1.00  0.00    -0.545 OA 
BRANCH  24  27
HETATM   27  C   UNL     1      -9.954  11.747  67.610  1.00  0.00    -0.194 C  
BRANCH  27  28
HETATM   28  O   UNL     1      -8.541  11.562  67.801  1.00  0.00    -0.130 OA 
BRANCH  28  29
HETATM   29  C   UNL     1      -7.837  12.730  67.952  1.00  0.00    -0.156 A  
HETATM   30  C   UNL     1      -6.500  12.795  68.354  1.00  0.00    -0.080 A  
HETATM   31  C   UNL     1      -5.857  14.030  68.468  1.00  0.00    -0.093 A  
HETATM   32  C   UNL     1      -6.545  15.205  68.174  1.00  0.00    -0.132 A  
HETATM   33  C   UNL     1      -7.880  15.161  67.755  1.00  0.00    -0.161 A  
HETATM   34  C   UNL     1      -8.627  16.433  67.437  1.00  0.00    -0.178 C  
HETATM   35  C   UNL     1      -8.516  13.911  67.635  1.00  0.00    -0.193 A  
HETATM   36  F   UNL     1      -7.888  17.561  67.645  1.00  0.00    -0.190 F  
HETATM   37  F   UNL     1      -9.749  16.584  68.193  1.00  0.00    -0.220 F  
HETATM   38  F   UNL     1      -9.035  16.493  66.140  1.00  0.00    -0.283 F  
ENDBRANCH  28  29
ENDBRANCH  27  28
ENDBRANCH  24  27
ENDBRANCH  23  24
ENDBRANCH  20  22
ENDBRANCH  12  13
ENDBRANCH  11  12
ENDBRANCH   9  10
ENDBRANCH   8   9
ENDBRANCH   7   8
ENDBRANCH   5   7
ENDBRANCH   4   5
ENDBRANCH   2   4
TORSDOF 13
ENDMDL
MODEL      277
REMARK 921   NORMALIZED FREE ENERGY PREDICTED BY IDOCK:   -4.48 KCAL/MOL
REMARK 922        TOTAL FREE ENERGY PREDICTED BY IDOCK:  -10.11 KCAL/MOL
REMARK 923 INTER-LIGAND FREE ENERGY PREDICTED BY IDOCK:   -8.72 KCAL/MOL
REMARK 924 INTRA-LIGAND FREE ENERGY PREDICTED BY IDOCK:   -1.39 KCAL/MOL
REMARK 927      BINDING AFFINITY PREDICTED BY RF-SCORE:    0.00 PKD
ROOT
HETATM    1  C   UNL     1     -10.730  10.189  69.722  1.00  0.00    -0.317 C  
HETATM    2  C   UNL     1     -10.410   8.727  70.013  1.00  0.00    -0.203 C  
HETATM    3  C   UNL     1      -9.020   8.589  70.625  1.00  0.00    -0.182 C  
ENDROOT
BRANCH   2   4
HETATM    4  O   UNL     1     -11.357   8.215  70.969  1.00  0.00    -0.262 OA 
BRANCH   4   5
HETATM    5  C   UNL     1     -11.374   6.857  71.089  1.00  0.00    -0.290 C  
HETATM    6  O   UNL     1     -11.326   6.246  72.148  1.00  0.00    -0.267 OA 
BRANCH   5   7
HETATM    7  C   UNL     1     -11.398   6.212  69.729  1.00  0.00    -0.452 C  
BRANCH   7   8
HETATM    8  C   UNL     1     -10.142   5.363  69.535  1.00  0.00    -0.310 C  
BRANCH   8   9
HETATM    9  C   UNL     1      -9.497   5.533  68.162  1.00  0.00    -0.133 C  
BRANCH   9  10
HETATM   10  C   UNL     1      -8.269   6.401  68.199  1.00  0.00    -0.116 C  
HETATM   11  C   UNL     1      -8.122   7.585  67.585  1.00  0.00    -0.118 C  
BRANCH  11  12
HETATM   12  C   UNL     1      -9.130   8.235  66.678  1.00  0.00    -0.204 C  
BRANCH  12  13
HETATM   13  C   UNL     1      -8.503   9.245  65.707  1.00  0.00    -0.144 C  
HETATM   14  C   UNL     1      -7.384   8.696  64.815  1.00  0.00    -0.091 C  
HETATM   15  O   UNL     1      -7.660   7.369  64.378  1.00  0.00    -0.099 OA 
HETATM   16  C   UNL     1      -7.394   9.618  63.602  1.00  0.00    -0.115 C  
HETATM   17  C   UNL     1      -8.879   9.860  63.343  1.00  0.00    -0.238 C  
HETATM   18  H   UNL     1      -6.966   7.030  63.825  1.00  0.00     0.000 HD 
HETATM   19  O   UNL     1      -9.401   8.811  62.521  1.00  0.00    -0.471 OA 
HETATM   20  C   UNL     1      -9.565   9.824  64.730  1.00  0.00    -0.284 C  
HETATM   21  H   UNL     1     -10.326   8.961  62.360  1.00  0.00     0.000 HD 
BRANCH  20  22
HETATM   22  C   UNL     1     -10.090  11.140  65.276  1.00  0.00    -0.329 C  
HETATM   23  C   UNL     1     -10.854  12.032  64.617  1.00  0.00    -0.357 C  
BRANCH  23  24
HETATM   24  C   UNL     1     -11.338  13.372  65.127  1.00  0.00    -0.299 C  
HETATM   25  H   UNL     1     -13.052  14.172  65.640  1.00  0.00     0.000 HD 
HETATM   26  O   UNL     1     -12.748  13.330  65.321  1.00  0.00    -0.563 OA 
BRANCH  24  27
HETATM   27  C   UNL     1     -10.632  13.728  66.451  1.00  0.00    -0.284 C  
BRANCH  27  28
HETATM   28  O   UNL     1     -11.411  14.658  67.221  1.00  0.00    -0.327 OA 
BRANCH  28  29
HETATM   29  C   UNL     1     -10.702  15.738  67.686  1.00  0.00    -0.310 A  
HETATM   30  C   UNL     1     -11.116  16.556  68.740  1.00  0.00    -0.309 A  
HETATM   31  C   UNL     1     -10.322  17.627  69.155  1.00  0.00    -0.202 A  
HETATM   32  C   UNL     1      -9.106  17.881  68.524  1.00  0.00    -0.289 A  
HETATM   33  C   UNL     1      -8.666  17.064  67.476  1.00  0.00    -0.215 A  
HETATM   34  C   UNL     1      -7.350  17.339  66.791  1.00  0.00    -0.213 C  
HETATM   35  C   UNL     1      -9.469  15.983  67.071  1.00  0.00    -0.230 A  
HETATM   36  F   UNL     1      -6.712  18.447  67.268  1.00  0.00    -0.187 F  
HETATM   37  F   UNL     1      -7.490  17.543  65.452  1.00  0.00    -0.103 F  
HETATM   38  F   UNL     1      -6.463  16.316  66.925  1.00  0.00    -0.201 F  
ENDBRANCH  28  29
ENDBRANCH  27  28
ENDBRANCH  24  27
ENDBRANCH  23  24
ENDBRANCH  20  22
ENDBRANCH  12  13
ENDBRANCH  11  12
ENDBRANCH   9  10
ENDBRANCH   8   9
ENDBRANCH   7   8
ENDBRANCH   5   7
ENDBRANCH   4   5
ENDBRANCH   2   4
TORSDOF 13
ENDMDL
MODEL      278
REMARK 921   NORMALIZED FREE ENERGY PREDICTED BY IDOCK:   -4.47 KCAL/MOL
REMARK 922        TOTAL FREE ENERGY PREDICTED BY IDOCK:  -10.09 KCAL/MOL
REMARK 923 INTER-LIGAND FREE ENERGY PREDICTED BY IDOCK:   -7.06 KCAL/MOL
REMARK 924 INTRA-LIGAND FREE ENERGY PREDICTED BY IDOCK:   -3.02 KCAL/MOL
REMARK 927      BINDING AFFINITY PREDICTED BY RF-SCORE:    0.00 PKD
ROOT
HETATM    1  C   UNL     1      -8.104   8.906  71.245  1.00  0.00    -0.185 C  
HETATM    2  C   UNL     1      -8.815   7.735  70.576  1.00  0.00    -0.145 C  
HETATM    3  C   UNL     1      -7.861   6.559  70.390  1.00  0.00    -0.110 C  
ENDROOT
BRANCH   2   4
HETATM    4  O   UNL     1      -9.893   7.290  71.418  1.00  0.00    -0.185 OA 
BRANCH   4   5
HETATM    5  C   UNL     1     -11.039   6.961  70.757  1.00  0.00    -0.275 C  
HETATM    6  O   UNL     1     -11.111   6.697  69.564  1.00  0.00    -0.286 OA 
BRANCH   5   7
HETATM    7  C   UNL     1     -12.218   7.026  71.691  1.00  0.00    -0.395 C  
BRANCH   7   8
HETATM    8  C   UNL     1     -12.544   8.484  72.015  1.00  0.00    -0.414 C  
BRANCH   8   9
HETATM    9  C   UNL     1     -12.545   9.395  70.791  1.00  0.00    -0.109 C  
BRANCH   9  10
HETATM   10  C   UNL     1     -11.582  10.544  70.919  1.00  0.00    -0.385 C  
HETATM   11  C   UNL     1     -11.857  11.833  70.666  1.00  0.00    -0.185 C  
BRANCH  11  12
HETATM   12  C   UNL     1     -13.157  12.366  70.131  1.00  0.00     0.844 C  
BRANCH  12  13
HETATM   13  C   UNL     1     -13.360  13.859  70.420  1.00  0.00     0.352 C  
HETATM   14  C   UNL     1     -14.299  14.184  71.588  1.00  0.00    -0.294 C  
HETATM   15  O   UNL     1     -14.136  13.268  72.666  1.00  0.00    -0.744 OA 
HETATM   16  C   UNL     1     -13.847  15.564  72.051  1.00  0.00    -0.602 C  
HETATM   17  C   UNL     1     -12.326  15.498  71.954  1.00  0.00    -0.395 C  
HETATM   18  H   UNL     1     -14.718  13.470  73.390  1.00  0.00     0.000 HD 
HETATM   19  O   UNL     1     -11.789  14.944  73.159  1.00  0.00    -0.269 OA 
HETATM   20  C   UNL     1     -12.014  14.557  70.764  1.00  0.00    -0.388 C  
HETATM   21  H   UNL     1     -10.841  14.902  73.098  1.00  0.00     0.000 HD 
BRANCH  20  22
HETATM   22  C   UNL     1     -11.439  15.193  69.511  1.00  0.00    -0.314 C  
HETATM   23  C   UNL     1     -11.844  14.976  68.246  1.00  0.00    -0.295 C  
BRANCH  23  24
HETATM   24  C   UNL     1     -11.245  15.558  66.984  1.00  0.00    -0.177 C  
HETATM   25  H   UNL     1     -10.195  17.140  66.498  1.00  0.00     0.000 HD 
HETATM   26  O   UNL     1     -10.571  16.774  67.291  1.00  0.00    -0.320 OA 
BRANCH  24  27
HETATM   27  C   UNL     1     -10.264  14.555  66.344  1.00  0.00    -0.287 C  
BRANCH  27  28
HETATM   28  O   UNL     1     -10.808  13.225  66.344  1.00  0.00    -0.285 OA 
BRANCH  28  29
HETATM   29  C   UNL     1     -10.016  12.293  66.968  1.00  0.00    -0.211 A  
HETATM   30  C   UNL     1     -10.274  10.920  66.974  1.00  0.00    -0.256 A  
HETATM   31  C   UNL     1      -9.404  10.042  67.625  1.00  0.00    -0.159 A  
HETATM   32  C   UNL     1      -8.268  10.532  68.266  1.00  0.00    -0.117 A  
HETATM   33  C   UNL     1      -7.984  11.903  68.259  1.00  0.00    -0.148 A  
HETATM   34  C   UNL     1      -6.755  12.435  68.954  1.00  0.00    -0.098 C  
HETATM   35  C   UNL     1      -8.862  12.777  67.593  1.00  0.00    -0.189 A  
HETATM   36  F   UNL     1      -6.031  11.468  69.589  1.00  0.00    -0.062 F  
HETATM   37  F   UNL     1      -7.052  13.359  69.909  1.00  0.00     0.086 F  
HETATM   38  F   UNL     1      -5.888  13.043  68.099  1.00  0.00    -0.062 F  
ENDBRANCH  28  29
ENDBRANCH  27  28
ENDBRANCH  24  27
ENDBRANCH  23  24
ENDBRANCH  20  22
ENDBRANCH  12  13
ENDBRANCH  11  12
ENDBRANCH   9  10
ENDBRANCH   8   9
ENDBRANCH   7   8
ENDBRANCH   5   7
ENDBRANCH   4   5
ENDBRANCH   2   4
TORSDOF 13
ENDMDL
MODEL      279
REMARK 921   NORMALIZED FREE ENERGY PREDICTED BY IDOCK:   -4.46 KCAL/MOL
REMARK 922        TOTAL FREE ENERGY PREDICTED BY IDOCK:  -10.06 KCAL/MOL
REMARK 923 INTER-LIGAND FREE ENERGY PREDICTED BY IDOCK:   -8.01 KCAL/MOL
REMARK 924 INTRA-LIGAND FREE ENERGY PREDICTED BY IDOCK:   -2.05 KCAL/MOL
REMARK 927      BINDING AFFINITY PREDICTED BY RF-SCORE:    0.00 PKD
ROOT
HETATM    1  C   UNL     1      -8.323  18.976  67.382  1.00  0.00    -0.299 C  
HETATM    2  C   UNL     1      -9.556  18.101  67.181  1.00  0.00    -0.277 C  
HETATM    3  C   UNL     1     -10.586  18.810  66.308  1.00  0.00    -0.429 C  
ENDROOT
BRANCH   2   4
HETATM    4  O   UNL     1      -9.173  16.890  66.503  1.00  0.00    -0.243 OA 
BRANCH   4   5
HETATM    5  C   UNL     1      -8.929  15.827  67.321  1.00  0.00    -0.196 C  
HETATM    6  O   UNL     1      -7.910  15.666  67.978  1.00  0.00    -0.124 OA 
BRANCH   5   7
HETATM    7  C   UNL     1     -10.069  14.845  67.256  1.00  0.00    -0.235 C  
BRANCH   7   8
HETATM    8  C   UNL     1     -10.578  14.546  68.666  1.00  0.00    -0.255 C  
BRANCH   8   9
HETATM    9  C   UNL     1     -12.042  14.119  68.708  1.00  0.00    -0.326 C  
BRANCH   9  10
HETATM   10  C   UNL     1     -12.509  13.774  70.096  1.00  0.00    -0.332 C  
HETATM   11  C   UNL     1     -12.555  12.543  70.629  1.00  0.00    -0.237 C  
BRANCH  11  12
HETATM   12  C   UNL     1     -12.221  11.263  69.912  1.00  0.00    -0.358 C  
BRANCH  12  13
HETATM   13  C   UNL     1     -11.593  10.206  70.830  1.00  0.00    -0.459 C  
HETATM   14  C   UNL     1     -12.542   9.571  71.853  1.00  0.00    -0.396 C  
HETATM   15  O   UNL     1     -13.839   9.355  71.306  1.00  0.00    -0.433 OA 
HETATM   16  C   UNL     1     -11.910   8.216  72.151  1.00  0.00    -0.417 C  
HETATM   17  C   UNL     1     -11.413   7.741  70.789  1.00  0.00    -0.272 C  
HETATM   18  H   UNL     1     -14.427   8.962  71.940  1.00  0.00     0.000 HD 
HETATM   19  O   UNL     1     -12.470   7.069  70.097  1.00  0.00    -0.572 OA 
HETATM   20  C   UNL     1     -11.012   9.019  70.011  1.00  0.00    -0.230 C  
HETATM   21  H   UNL     1     -12.161   6.773  69.249  1.00  0.00     0.000 HD 
BRANCH  20  22
HETATM   22  C   UNL     1      -9.530   9.246  69.771  1.00  0.00    -0.203 C  
HETATM   23  C   UNL     1      -8.557   9.227  70.701  1.00  0.00    -0.270 C  
BRANCH  23  24
HETATM   24  C   UNL     1      -7.085   9.507  70.488  1.00  0.00    -0.127 C  
HETATM   25  H   UNL     1      -5.396   8.547  70.747  1.00  0.00     0.000 HD 
HETATM   26  O   UNL     1      -6.320   8.371  70.881  1.00  0.00    -0.036 OA 
BRANCH  24  27
HETATM   27  C   UNL     1      -6.812   9.843  69.008  1.00  0.00    -0.054 C  
BRANCH  27  28
HETATM   28  O   UNL     1      -6.105   8.777  68.355  1.00  0.00    -0.048 OA 
BRANCH  28  29
HETATM   29  C   UNL     1      -6.775   8.226  67.291  1.00  0.00    -0.063 A  
HETATM   30  C   UNL     1      -6.454   8.463  65.952  1.00  0.00    -0.053 A  
HETATM   31  C   UNL     1      -7.184   7.847  64.932  1.00  0.00    -0.066 A  
HETATM   32  C   UNL     1      -8.233   6.986  65.247  1.00  0.00    -0.128 A  
HETATM   33  C   UNL     1      -8.561   6.723  66.582  1.00  0.00    -0.123 A  
HETATM   34  C   UNL     1      -9.698   5.792  66.924  1.00  0.00    -0.148 C  
HETATM   35  C   UNL     1      -7.814   7.342  67.601  1.00  0.00    -0.113 A  
HETATM   36  F   UNL     1     -10.350   5.309  65.827  1.00  0.00    -0.183 F  
HETATM   37  F   UNL     1     -10.654   6.391  67.687  1.00  0.00    -0.183 F  
HETATM   38  F   UNL     1      -9.290   4.697  67.622  1.00  0.00    -0.127 F  
ENDBRANCH  28  29
ENDBRANCH  27  28
ENDBRANCH  24  27
ENDBRANCH  23  24
ENDBRANCH  20  22
ENDBRANCH  12  13
ENDBRANCH  11  12
ENDBRANCH   9  10
ENDBRANCH   8   9
ENDBRANCH   7   8
ENDBRANCH   5   7
ENDBRANCH   4   5
ENDBRANCH   2   4
TORSDOF 13
ENDMDL
MODEL      280
REMARK 921   NORMALIZED FREE ENERGY PREDICTED BY IDOCK:   -4.45 KCAL/MOL
REMARK 922        TOTAL FREE ENERGY PREDICTED BY IDOCK:  -10.05 KCAL/MOL
REMARK 923 INTER-LIGAND FREE ENERGY PREDICTED BY IDOCK:   -8.49 KCAL/MOL
REMARK 924 INTRA-LIGAND FREE ENERGY PREDICTED BY IDOCK:   -1.56 KCAL/MOL
REMARK 927      BINDING AFFINITY PREDICTED BY RF-SCORE:    0.00 PKD
ROOT
HETATM    1  C   UNL     1     -12.734  11.876  63.428  1.00  0.00    -0.496 C  
HETATM    2  C   UNL     1     -11.456  12.266  64.162  1.00  0.00    -0.383 C  
HETATM    3  C   UNL     1     -10.226  11.805  63.386  1.00  0.00    -0.482 C  
ENDROOT
BRANCH   2   4
HETATM    4  O   UNL     1     -11.389  13.699  64.271  1.00  0.00    -0.379 OA 
BRANCH   4   5
HETATM    5  C   UNL     1     -10.936  14.163  65.470  1.00  0.00    -0.310 C  
HETATM    6  O   UNL     1     -10.941  15.337  65.816  1.00  0.00    -0.338 OA 
BRANCH   5   7
HETATM    7  C   UNL     1     -10.372  13.032  66.288  1.00  0.00    -0.291 C  
BRANCH   7   8
HETATM    8  C   UNL     1     -11.312  12.714  67.452  1.00  0.00    -0.367 C  
BRANCH   8   9
HETATM    9  C   UNL     1     -10.980  11.406  68.164  1.00  0.00    -0.284 C  
BRANCH   9  10
HETATM   10  C   UNL     1     -12.091  10.933  69.061  1.00  0.00    -0.240 C  
HETATM   11  C   UNL     1     -11.943  10.394  70.281  1.00  0.00    -0.387 C  
BRANCH  11  12
HETATM   12  C   UNL     1     -10.633  10.088  70.953  1.00  0.00    -0.125 C  
BRANCH  12  13
HETATM   13  C   UNL     1     -10.458   8.600  71.282  1.00  0.00    -0.311 C  
HETATM   14  C   UNL     1     -11.071   8.141  72.611  1.00  0.00    -0.380 C  
HETATM   15  O   UNL     1     -12.316   8.783  72.867  1.00  0.00    -0.374 OA 
HETATM   16  C   UNL     1     -11.327   6.653  72.404  1.00  0.00    -0.309 C  
HETATM   17  C   UNL     1     -11.830   6.568  70.966  1.00  0.00    -0.330 C  
HETATM   18  H   UNL     1     -12.695   8.499  73.690  1.00  0.00     0.000 HD 
HETATM   19  O   UNL     1     -13.243   6.791  70.936  1.00  0.00    -0.328 OA 
HETATM   20  C   UNL     1     -11.108   7.699  70.194  1.00  0.00    -0.229 C  
HETATM   21  H   UNL     1     -13.556   6.738  70.040  1.00  0.00     0.000 HD 
BRANCH  20  22
HETATM   22  C   UNL     1     -10.052   7.283  69.185  1.00  0.00    -0.183 C  
HETATM   23  C   UNL     1     -10.157   7.349  67.845  1.00  0.00    -0.220 C  
BRANCH  23  24
HETATM   24  C   UNL     1      -9.137   6.887  66.826  1.00  0.00    -0.145 C  
HETATM   25  H   UNL     1      -7.213   6.512  66.798  1.00  0.00     0.000 HD 
HETATM   26  O   UNL     1      -7.854   6.802  67.438  1.00  0.00    -0.107 OA 
BRANCH  24  27
HETATM   27  C   UNL     1      -9.541   5.515  66.248  1.00  0.00    -0.156 C  
BRANCH  27  28
HETATM   28  O   UNL     1     -10.356   4.780  67.176  1.00  0.00    -0.173 OA 
BRANCH  28  29
HETATM   29  C   UNL     1      -9.714   3.727  67.777  1.00  0.00    -0.073 A  
HETATM   30  C   UNL     1      -9.051   2.711  67.084  1.00  0.00    -0.181 A  
HETATM   31  C   UNL     1      -8.413   1.682  67.781  1.00  0.00    -0.088 A  
HETATM   32  C   UNL     1      -8.426   1.670  69.174  1.00  0.00    -0.078 A  
HETATM   33  C   UNL     1      -9.072   2.687  69.888  1.00  0.00    -0.181 A  
HETATM   34  C   UNL     1      -9.089   2.673  71.396  1.00  0.00    -0.102 C  
HETATM   35  C   UNL     1      -9.705   3.722  69.176  1.00  0.00    -0.107 A  
HETATM   36  F   UNL     1      -8.471   1.582  71.935  1.00  0.00    -0.044 F  
HETATM   37  F   UNL     1     -10.352   2.670  71.906  1.00  0.00    -0.230 F  
HETATM   38  F   UNL     1      -8.466   3.755  71.939  1.00  0.00    -0.082 F  
ENDBRANCH  28  29
ENDBRANCH  27  28
ENDBRANCH  24  27
ENDBRANCH  23  24
ENDBRANCH  20  22
ENDBRANCH  12  13
ENDBRANCH  11  12
ENDBRANCH   9  10
ENDBRANCH   8   9
ENDBRANCH   7   8
ENDBRANCH   5   7
ENDBRANCH   4   5
ENDBRANCH   2   4
TORSDOF 13
ENDMDL
MODEL      281
REMARK 921   NORMALIZED FREE ENERGY PREDICTED BY IDOCK:   -4.43 KCAL/MOL
REMARK 922        TOTAL FREE ENERGY PREDICTED BY IDOCK:  -10.01 KCAL/MOL
REMARK 923 INTER-LIGAND FREE ENERGY PREDICTED BY IDOCK:   -8.69 KCAL/MOL
REMARK 924 INTRA-LIGAND FREE ENERGY PREDICTED BY IDOCK:   -1.32 KCAL/MOL
REMARK 927      BINDING AFFINITY PREDICTED BY RF-SCORE:    0.00 PKD
ROOT
HETATM    1  C   UNL     1     -10.475   4.467  72.544  1.00  0.00    -0.235 C  
HETATM    2  C   UNL     1      -9.806   3.681  71.422  1.00  0.00    -0.149 C  
HETATM    3  C   UNL     1      -9.653   4.544  70.174  1.00  0.00    -0.264 C  
ENDROOT
BRANCH   2   4
HETATM    4  O   UNL     1      -8.487   3.286  71.840  1.00  0.00    -0.071 OA 
BRANCH   4   5
HETATM    5  C   UNL     1      -7.991   3.977  72.904  1.00  0.00    -0.084 C  
HETATM    6  O   UNL     1      -8.296   3.781  74.073  1.00  0.00    -0.088 OA 
BRANCH   5   7
HETATM    7  C   UNL     1      -7.057   5.061  72.434  1.00  0.00    -0.084 C  
BRANCH   7   8
HETATM    8  C   UNL     1      -7.280   6.331  73.254  1.00  0.00    -0.087 C  
BRANCH   8   9
HETATM    9  C   UNL     1      -8.189   7.347  72.569  1.00  0.00    -0.123 C  
BRANCH   9  10
HETATM   10  C   UNL     1      -9.313   7.814  73.454  1.00  0.00    -0.346 C  
HETATM   11  C   UNL     1     -10.554   8.129  73.051  1.00  0.00    -0.215 C  
BRANCH  11  12
HETATM   12  C   UNL     1     -11.036   8.150  71.627  1.00  0.00    -0.310 C  
BRANCH  12  13
HETATM   13  C   UNL     1     -10.651   9.433  70.880  1.00  0.00    -0.390 C  
HETATM   14  C   UNL     1      -9.337   9.369  70.092  1.00  0.00    -0.241 C  
HETATM   15  O   UNL     1      -9.159   8.102  69.466  1.00  0.00    -0.150 OA 
HETATM   16  C   UNL     1      -9.506  10.426  69.007  1.00  0.00    -0.205 C  
HETATM   17  C   UNL     1     -10.962  10.274  68.576  1.00  0.00    -0.247 C  
HETATM   18  H   UNL     1      -8.345   8.063  68.978  1.00  0.00     0.000 HD 
HETATM   19  O   UNL     1     -11.063   9.260  67.571  1.00  0.00    -0.455 OA 
HETATM   20  C   UNL     1     -11.737   9.832  69.842  1.00  0.00    -0.073 C  
HETATM   21  H   UNL     1     -11.970   9.165  67.303  1.00  0.00     0.000 HD 
BRANCH  20  22
HETATM   22  C   UNL     1     -12.683  10.844  70.462  1.00  0.00    -0.363 C  
HETATM   23  C   UNL     1     -12.342  12.024  71.013  1.00  0.00    -0.340 C  
BRANCH  23  24
HETATM   24  C   UNL     1     -13.265  13.018  71.685  1.00  0.00    -0.336 C  
HETATM   25  H   UNL     1     -13.515  13.742  73.490  1.00  0.00     0.000 HD 
HETATM   26  O   UNL     1     -12.935  13.118  73.068  1.00  0.00    -0.096 OA 
BRANCH  24  27
HETATM   27  C   UNL     1     -13.147  14.400  71.011  1.00  0.00    -0.353 C  
BRANCH  27  28
HETATM   28  O   UNL     1     -11.792  14.671  70.616  1.00  0.00    -0.277 OA 
BRANCH  28  29
HETATM   29  C   UNL     1     -11.629  14.880  69.270  1.00  0.00    -0.306 A  
HETATM   30  C   UNL     1     -11.939  13.939  68.285  1.00  0.00    -0.392 A  
HETATM   31  C   UNL     1     -11.753  14.244  66.934  1.00  0.00    -0.430 A  
HETATM   32  C   UNL     1     -11.265  15.494  66.562  1.00  0.00    -0.104 A  
HETATM   33  C   UNL     1     -10.963  16.457  67.532  1.00  0.00    -0.184 A  
HETATM   34  C   UNL     1     -10.433  17.812  67.130  1.00  0.00    -0.335 C  
HETATM   35  C   UNL     1     -11.162  16.143  68.889  1.00  0.00    -0.351 A  
HETATM   36  F   UNL     1     -10.254  17.945  65.784  1.00  0.00    -0.321 F  
HETATM   37  F   UNL     1      -9.223  18.088  67.691  1.00  0.00    -0.251 F  
HETATM   38  F   UNL     1     -11.259  18.830  67.495  1.00  0.00    -0.437 F  
ENDBRANCH  28  29
ENDBRANCH  27  28
ENDBRANCH  24  27
ENDBRANCH  23  24
ENDBRANCH  20  22
ENDBRANCH  12  13
ENDBRANCH  11  12
ENDBRANCH   9  10
ENDBRANCH   8   9
ENDBRANCH   7   8
ENDBRANCH   5   7
ENDBRANCH   4   5
ENDBRANCH   2   4
TORSDOF 13
ENDMDL
MODEL      282
REMARK 921   NORMALIZED FREE ENERGY PREDICTED BY IDOCK:   -4.42 KCAL/MOL
REMARK 922        TOTAL FREE ENERGY PREDICTED BY IDOCK:  -10.00 KCAL/MOL
REMARK 923 INTER-LIGAND FREE ENERGY PREDICTED BY IDOCK:   -7.21 KCAL/MOL
REMARK 924 INTRA-LIGAND FREE ENERGY PREDICTED BY IDOCK:   -2.80 KCAL/MOL
REMARK 927      BINDING AFFINITY PREDICTED BY RF-SCORE:    0.00 PKD
ROOT
HETATM    1  C   UNL     1      -9.930   4.661  70.133  1.00  0.00    -0.304 C  
HETATM    2  C   UNL     1     -10.045   5.997  70.859  1.00  0.00    -0.196 C  
HETATM    3  C   UNL     1      -8.814   6.860  70.600  1.00  0.00    -0.150 C  
ENDROOT
BRANCH   2   4
HETATM    4  O   UNL     1     -11.189   6.712  70.358  1.00  0.00    -0.291 OA 
BRANCH   4   5
HETATM    5  C   UNL     1     -12.039   7.178  71.317  1.00  0.00    -0.348 C  
HETATM    6  O   UNL     1     -12.962   6.541  71.807  1.00  0.00    -0.262 OA 
BRANCH   5   7
HETATM    7  C   UNL     1     -11.718   8.612  71.647  1.00  0.00    -0.380 C  
BRANCH   7   8
HETATM    8  C   UNL     1     -12.940   9.287  72.270  1.00  0.00    -0.488 C  
BRANCH   8   9
HETATM    9  C   UNL     1     -13.402  10.529  71.514  1.00  0.00    -0.387 C  
BRANCH   9  10
HETATM   10  C   UNL     1     -12.315  11.559  71.366  1.00  0.00    -0.236 C  
HETATM   11  C   UNL     1     -11.854  12.056  70.207  1.00  0.00    -0.356 C  
BRANCH  11  12
HETATM   12  C   UNL     1     -12.283  11.622  68.833  1.00  0.00    -0.112 C  
BRANCH  12  13
HETATM   13  C   UNL     1     -11.149  11.681  67.802  1.00  0.00    -0.309 C  
HETATM   14  C   UNL     1     -10.926  13.048  67.143  1.00  0.00    -0.269 C  
HETATM   15  O   UNL     1     -11.099  14.114  68.071  1.00  0.00    -0.253 OA 
HETATM   16  C   UNL     1      -9.465  13.014  66.710  1.00  0.00    -0.250 C  
HETATM   17  C   UNL     1      -8.760  12.313  67.867  1.00  0.00    -0.177 C  
HETATM   18  H   UNL     1     -10.960  14.961  67.662  1.00  0.00     0.000 HD 
HETATM   19  O   UNL     1      -8.415  13.270  68.873  1.00  0.00    -0.360 OA 
HETATM   20  C   UNL     1      -9.783  11.302  68.440  1.00  0.00    -0.194 C  
HETATM   21  H   UNL     1      -7.976  12.834  69.594  1.00  0.00     0.000 HD 
BRANCH  20  22
HETATM   22  C   UNL     1      -9.506   9.828  68.203  1.00  0.00    -0.146 C  
HETATM   23  C   UNL     1     -10.224   8.994  67.429  1.00  0.00    -0.308 C  
BRANCH  23  24
HETATM   24  C   UNL     1      -9.994   7.511  67.227  1.00  0.00    -0.210 C  
HETATM   25  H   UNL     1     -11.091   5.937  66.827  1.00  0.00     0.000 HD 
HETATM   26  O   UNL     1     -11.235   6.868  66.953  1.00  0.00    -0.353 OA 
BRANCH  24  27
HETATM   27  C   UNL     1      -9.008   7.275  66.065  1.00  0.00    -0.116 C  
BRANCH  27  28
HETATM   28  O   UNL     1      -7.647   7.428  66.500  1.00  0.00    -0.089 OA 
BRANCH  28  29
HETATM   29  C   UNL     1      -7.159   6.359  67.211  1.00  0.00    -0.073 A  
HETATM   30  C   UNL     1      -6.197   6.459  68.219  1.00  0.00    -0.036 A  
HETATM   31  C   UNL     1      -5.769   5.317  68.900  1.00  0.00    -0.015 A  
HETATM   32  C   UNL     1      -6.306   4.072  68.582  1.00  0.00    -0.033 A  
HETATM   33  C   UNL     1      -7.282   3.953  67.586  1.00  0.00    -0.066 A  
HETATM   34  C   UNL     1      -7.863   2.604  67.239  1.00  0.00    -0.069 C  
HETATM   35  C   UNL     1      -7.712   5.110  66.912  1.00  0.00    -0.092 A  
HETATM   36  F   UNL     1      -7.310   1.578  67.949  1.00  0.00    -0.044 F  
HETATM   37  F   UNL     1      -7.689   2.280  65.928  1.00  0.00    -0.067 F  
HETATM   38  F   UNL     1      -9.202   2.533  67.470  1.00  0.00    -0.162 F  
ENDBRANCH  28  29
ENDBRANCH  27  28
ENDBRANCH  24  27
ENDBRANCH  23  24
ENDBRANCH  20  22
ENDBRANCH  12  13
ENDBRANCH  11  12
ENDBRANCH   9  10
ENDBRANCH   8   9
ENDBRANCH   7   8
ENDBRANCH   5   7
ENDBRANCH   4   5
ENDBRANCH   2   4
TORSDOF 13
ENDMDL
MODEL      283
REMARK 921   NORMALIZED FREE ENERGY PREDICTED BY IDOCK:   -4.42 KCAL/MOL
REMARK 922        TOTAL FREE ENERGY PREDICTED BY IDOCK:  -10.00 KCAL/MOL
REMARK 923 INTER-LIGAND FREE ENERGY PREDICTED BY IDOCK:   -7.89 KCAL/MOL
REMARK 924 INTRA-LIGAND FREE ENERGY PREDICTED BY IDOCK:   -2.11 KCAL/MOL
REMARK 927      BINDING AFFINITY PREDICTED BY RF-SCORE:    0.00 PKD
ROOT
HETATM    1  C   UNL     1      -5.798   8.483  68.719  1.00  0.00    -0.044 C  
HETATM    2  C   UNL     1      -6.463   7.336  69.471  1.00  0.00    -0.036 C  
HETATM    3  C   UNL     1      -5.905   5.993  69.012  1.00  0.00    -0.019 C  
ENDROOT
BRANCH   2   4
HETATM    4  O   UNL     1      -6.183   7.464  70.877  1.00  0.00    -0.035 OA 
BRANCH   4   5
HETATM    5  C   UNL     1      -7.162   8.073  71.604  1.00  0.00    -0.074 C  
HETATM    6  O   UNL     1      -7.128   9.232  71.995  1.00  0.00    -0.317 OA 
BRANCH   5   7
HETATM    7  C   UNL     1      -8.268   7.099  71.910  1.00  0.00    -0.104 C  
BRANCH   7   8
HETATM    8  C   UNL     1      -9.587   7.850  72.089  1.00  0.00    -0.255 C  
BRANCH   8   9
HETATM    9  C   UNL     1     -10.801   6.932  72.206  1.00  0.00    -0.262 C  
BRANCH   9  10
HETATM   10  C   UNL     1     -11.674   6.962  70.982  1.00  0.00    -0.392 C  
HETATM   11  C   UNL     1     -11.465   6.276  69.848  1.00  0.00    -0.459 C  
BRANCH  11  12
HETATM   12  C   UNL     1     -10.274   5.405  69.556  1.00  0.00    -0.336 C  
BRANCH  12  13
HETATM   13  C   UNL     1      -9.605   5.730  68.213  1.00  0.00    -0.139 C  
HETATM   14  C   UNL     1      -9.051   4.526  67.443  1.00  0.00    -0.128 C  
HETATM   15  O   UNL     1      -9.903   3.391  67.555  1.00  0.00    -0.265 OA 
HETATM   16  C   UNL     1      -9.046   4.988  65.991  1.00  0.00    -0.146 C  
HETATM   17  C   UNL     1     -10.348   5.773  65.856  1.00  0.00     0.263 C  
HETATM   18  H   UNL     1      -9.558   2.645  67.077  1.00  0.00     0.000 HD 
HETATM   19  O   UNL     1     -11.420   4.878  65.544  1.00  0.00    -0.914 OA 
HETATM   20  C   UNL     1     -10.599   6.423  67.239  1.00  0.00    -0.382 C  
HETATM   21  H   UNL     1     -12.231   5.367  65.460  1.00  0.00     0.000 HD 
BRANCH  20  22
HETATM   22  C   UNL     1     -10.435   7.929  67.335  1.00  0.00    -0.360 C  
HETATM   23  C   UNL     1      -9.317   8.591  67.687  1.00  0.00    -0.157 C  
BRANCH  23  24
HETATM   24  C   UNL     1      -9.153  10.088  67.842  1.00  0.00    -0.131 C  
HETATM   25  H   UNL     1      -8.117  11.301  68.980  1.00  0.00     0.000 HD 
HETATM   26  O   UNL     1      -8.219  10.362  68.883  1.00  0.00    -0.114 OA 
BRANCH  24  27
HETATM   27  C   UNL     1      -8.669  10.714  66.518  1.00  0.00    -0.146 C  
BRANCH  27  28
HETATM   28  O   UNL     1      -8.452  12.127  66.660  1.00  0.00    -0.169 OA 
BRANCH  28  29
HETATM   29  C   UNL     1      -9.604  12.873  66.686  1.00  0.00    -0.257 A  
HETATM   30  C   UNL     1     -10.776  12.533  66.005  1.00  0.00    -0.292 A  
HETATM   31  C   UNL     1     -11.907  13.347  66.099  1.00  0.00    -0.427 A  
HETATM   32  C   UNL     1     -11.875  14.500  66.881  1.00  0.00    -0.399 A  
HETATM   33  C   UNL     1     -10.716  14.850  67.584  1.00  0.00    -0.270 A  
HETATM   34  C   UNL     1     -10.679  16.098  68.430  1.00  0.00    -0.298 C  
HETATM   35  C   UNL     1      -9.584  14.019  67.488  1.00  0.00    -0.228 A  
HETATM   36  F   UNL     1     -11.837  16.818  68.383  1.00  0.00    -0.128 F  
HETATM   37  F   UNL     1      -9.695  16.960  68.050  1.00  0.00    -0.237 F  
HETATM   38  F   UNL     1     -10.462  15.835  69.747  1.00  0.00    -0.233 F  
ENDBRANCH  28  29
ENDBRANCH  27  28
ENDBRANCH  24  27
ENDBRANCH  23  24
ENDBRANCH  20  22
ENDBRANCH  12  13
ENDBRANCH  11  12
ENDBRANCH   9  10
ENDBRANCH   8   9
ENDBRANCH   7   8
ENDBRANCH   5   7
ENDBRANCH   4   5
ENDBRANCH   2   4
TORSDOF 13
ENDMDL
MODEL      284
REMARK 921   NORMALIZED FREE ENERGY PREDICTED BY IDOCK:   -4.41 KCAL/MOL
REMARK 922        TOTAL FREE ENERGY PREDICTED BY IDOCK:   -9.99 KCAL/MOL
REMARK 923 INTER-LIGAND FREE ENERGY PREDICTED BY IDOCK:   -7.22 KCAL/MOL
REMARK 924 INTRA-LIGAND FREE ENERGY PREDICTED BY IDOCK:   -2.77 KCAL/MOL
REMARK 927      BINDING AFFINITY PREDICTED BY RF-SCORE:    0.00 PKD
ROOT
HETATM    1  C   UNL     1     -13.078  10.080  70.958  1.00  0.00    -0.435 C  
HETATM    2  C   UNL     1     -11.590  10.086  70.623  1.00  0.00    -0.340 C  
HETATM    3  C   UNL     1     -10.795   9.328  71.681  1.00  0.00    -0.418 C  
ENDROOT
BRANCH   2   4
HETATM    4  O   UNL     1     -11.384   9.419  69.364  1.00  0.00    -0.065 OA 
BRANCH   4   5
HETATM    5  C   UNL     1     -11.449  10.227  68.269  1.00  0.00    -0.075 C  
HETATM    6  O   UNL     1     -11.913  11.359  68.258  1.00  0.00    -0.566 OA 
BRANCH   5   7
HETATM    7  C   UNL     1     -10.922   9.507  67.056  1.00  0.00     0.014 C  
BRANCH   7   8
HETATM    8  C   UNL     1     -10.201   8.228  67.485  1.00  0.00    -0.309 C  
BRANCH   8   9
HETATM    9  C   UNL     1     -10.855   6.954  66.960  1.00  0.00    -0.436 C  
BRANCH   9  10
HETATM   10  C   UNL     1     -10.185   5.705  67.464  1.00  0.00    -0.246 C  
HETATM   11  C   UNL     1     -10.185   5.268  68.733  1.00  0.00    -0.231 C  
BRANCH  11  12
HETATM   12  C   UNL     1     -10.789   5.986  69.909  1.00  0.00    -0.434 C  
BRANCH  12  13
HETATM   13  C   UNL     1      -9.765   6.316  71.003  1.00  0.00    -0.196 C  
HETATM   14  C   UNL     1     -10.027   5.669  72.369  1.00  0.00    -0.170 C  
HETATM   15  O   UNL     1     -10.523   4.341  72.236  1.00  0.00    -0.170 OA 
HETATM   16  C   UNL     1      -8.650   5.611  73.019  1.00  0.00    -0.121 C  
HETATM   17  C   UNL     1      -7.723   5.226  71.870  1.00  0.00    -0.110 C  
HETATM   18  H   UNL     1     -10.685   3.940  73.083  1.00  0.00     0.000 HD 
HETATM   19  O   UNL     1      -7.692   3.802  71.732  1.00  0.00    -0.059 OA 
HETATM   20  C   UNL     1      -8.335   5.859  70.597  1.00  0.00    -0.124 C  
HETATM   21  H   UNL     1      -7.115   3.562  71.016  1.00  0.00     0.000 HD 
BRANCH  20  22
HETATM   22  C   UNL     1      -7.588   7.027  69.978  1.00  0.00    -0.099 C  
HETATM   23  C   UNL     1      -7.785   8.332  70.240  1.00  0.00    -0.084 C  
BRANCH  23  24
HETATM   24  C   UNL     1      -7.089   9.509  69.591  1.00  0.00    -0.072 C  
HETATM   25  H   UNL     1      -5.943   9.808  68.030  1.00  0.00     0.000 HD 
HETATM   26  O   UNL     1      -6.380   9.069  68.437  1.00  0.00    -0.053 OA 
BRANCH  24  27
HETATM   27  C   UNL     1      -8.117  10.590  69.201  1.00  0.00    -0.152 C  
BRANCH  27  28
HETATM   28  O   UNL     1      -7.551  11.537  68.279  1.00  0.00    -0.100 OA 
BRANCH  28  29
HETATM   29  C   UNL     1      -8.472  12.357  67.678  1.00  0.00    -0.169 A  
HETATM   30  C   UNL     1      -8.943  12.187  66.374  1.00  0.00    -0.138 A  
HETATM   31  C   UNL     1      -9.893  13.066  65.847  1.00  0.00    -0.243 A  
HETATM   32  C   UNL     1     -10.382  14.113  66.624  1.00  0.00    -0.277 A  
HETATM   33  C   UNL     1      -9.934  14.292  67.939  1.00  0.00    -0.230 A  
HETATM   34  C   UNL     1     -10.461  15.427  68.781  1.00  0.00    -0.231 C  
HETATM   35  C   UNL     1      -8.983  13.397  68.462  1.00  0.00    -0.071 A  
HETATM   36  F   UNL     1     -11.341  16.231  68.116  1.00  0.00    -0.347 F  
HETATM   37  F   UNL     1      -9.473  16.252  69.226  1.00  0.00    -0.224 F  
HETATM   38  F   UNL     1     -11.121  14.997  69.891  1.00  0.00    -0.240 F  
ENDBRANCH  28  29
ENDBRANCH  27  28
ENDBRANCH  24  27
ENDBRANCH  23  24
ENDBRANCH  20  22
ENDBRANCH  12  13
ENDBRANCH  11  12
ENDBRANCH   9  10
ENDBRANCH   8   9
ENDBRANCH   7   8
ENDBRANCH   5   7
ENDBRANCH   4   5
ENDBRANCH   2   4
TORSDOF 13
ENDMDL
MODEL      285
REMARK 921   NORMALIZED FREE ENERGY PREDICTED BY IDOCK:   -4.41 KCAL/MOL
REMARK 922        TOTAL FREE ENERGY PREDICTED BY IDOCK:   -9.99 KCAL/MOL
REMARK 923 INTER-LIGAND FREE ENERGY PREDICTED BY IDOCK:   -7.04 KCAL/MOL
REMARK 924 INTRA-LIGAND FREE ENERGY PREDICTED BY IDOCK:   -2.95 KCAL/MOL
REMARK 927      BINDING AFFINITY PREDICTED BY RF-SCORE:    0.00 PKD
ROOT
HETATM    1  C   UNL     1     -10.922   9.922  70.942  1.00  0.00    -0.392 C  
HETATM    2  C   UNL     1     -12.098  10.824  70.586  1.00  0.00    -0.370 C  
HETATM    3  C   UNL     1     -12.983  11.063  71.806  1.00  0.00    -0.544 C  
ENDROOT
BRANCH   2   4
HETATM    4  O   UNL     1     -11.602  12.103  70.153  1.00  0.00    -0.248 OA 
BRANCH   4   5
HETATM    5  C   UNL     1     -11.456  12.235  68.804  1.00  0.00    -0.311 C  
HETATM    6  O   UNL     1     -12.128  11.651  67.965  1.00  0.00    -0.597 OA 
BRANCH   5   7
HETATM    7  C   UNL     1     -10.309  13.158  68.491  1.00  0.00    -0.245 C  
BRANCH   7   8
HETATM    8  C   UNL     1     -10.017  13.134  66.991  1.00  0.00    -0.244 C  
BRANCH   8   9
HETATM    9  C   UNL     1      -8.887  12.183  66.605  1.00  0.00    -0.182 C  
BRANCH   9  10
HETATM   10  C   UNL     1      -9.387  10.893  66.014  1.00  0.00    -0.215 C  
HETATM   11  C   UNL     1      -8.906   9.668  66.277  1.00  0.00    -0.172 C  
BRANCH  11  12
HETATM   12  C   UNL     1      -7.725   9.358  67.154  1.00  0.00    -0.091 C  
BRANCH  12  13
HETATM   13  C   UNL     1      -8.096   9.219  68.637  1.00  0.00    -0.105 C  
HETATM   14  C   UNL     1      -8.412   7.795  69.108  1.00  0.00    -0.138 C  
HETATM   15  O   UNL     1      -7.554   6.835  68.498  1.00  0.00    -0.099 OA 
HETATM   16  C   UNL     1      -8.117   7.828  70.603  1.00  0.00    -0.103 C  
HETATM   17  C   UNL     1      -6.856   8.679  70.705  1.00  0.00    -0.049 C  
HETATM   18  H   UNL     1      -7.750   5.953  68.791  1.00  0.00     0.000 HD 
HETATM   19  O   UNL     1      -5.701   7.853  70.520  1.00  0.00    -0.029 OA 
HETATM   20  C   UNL     1      -6.945   9.714  69.557  1.00  0.00    -0.059 C  
HETATM   21  H   UNL     1      -4.915   8.384  70.583  1.00  0.00     0.000 HD 
BRANCH  20  22
HETATM   22  C   UNL     1      -7.195  11.160  69.947  1.00  0.00     0.170 C  
HETATM   23  C   UNL     1      -6.422  12.217  69.638  1.00  0.00    -0.073 C  
BRANCH  23  24
HETATM   24  C   UNL     1      -6.627  13.654  70.066  1.00  0.00     0.081 C  
HETATM   25  H   UNL     1      -6.050  14.800  71.548  1.00  0.00     0.000 HD 
HETATM   26  O   UNL     1      -5.921  13.898  71.279  1.00  0.00    -0.214 OA 
BRANCH  24  27
HETATM   27  C   UNL     1      -6.136  14.617  68.966  1.00  0.00    -0.090 C  
BRANCH  27  28
HETATM   28  O   UNL     1      -6.384  15.986  69.324  1.00  0.00    -0.138 OA 
BRANCH  28  29
HETATM   29  C   UNL     1      -6.908  16.748  68.310  1.00  0.00    -0.155 A  
HETATM   30  C   UNL     1      -6.151  17.576  67.478  1.00  0.00    -0.159 A  
HETATM   31  C   UNL     1      -6.769  18.307  66.460  1.00  0.00    -0.241 A  
HETATM   32  C   UNL     1      -8.145  18.207  66.265  1.00  0.00    -0.254 A  
HETATM   33  C   UNL     1      -8.919  17.371  67.079  1.00  0.00    -0.253 A  
HETATM   34  C   UNL     1     -10.409  17.262  66.870  1.00  0.00    -0.310 C  
HETATM   35  C   UNL     1      -8.286  16.632  68.095  1.00  0.00    -0.192 A  
HETATM   36  F   UNL     1     -10.877  18.072  65.876  1.00  0.00    -0.351 F  
HETATM   37  F   UNL     1     -11.120  17.597  67.982  1.00  0.00    -0.357 F  
HETATM   38  F   UNL     1     -10.804  16.003  66.535  1.00  0.00    -0.312 F  
ENDBRANCH  28  29
ENDBRANCH  27  28
ENDBRANCH  24  27
ENDBRANCH  23  24
ENDBRANCH  20  22
ENDBRANCH  12  13
ENDBRANCH  11  12
ENDBRANCH   9  10
ENDBRANCH   8   9
ENDBRANCH   7   8
ENDBRANCH   5   7
ENDBRANCH   4   5
ENDBRANCH   2   4
TORSDOF 13
ENDMDL
MODEL      286
REMARK 921   NORMALIZED FREE ENERGY PREDICTED BY IDOCK:   -4.40 KCAL/MOL
REMARK 922        TOTAL FREE ENERGY PREDICTED BY IDOCK:   -9.97 KCAL/MOL
REMARK 923 INTER-LIGAND FREE ENERGY PREDICTED BY IDOCK:   -8.17 KCAL/MOL
REMARK 924 INTRA-LIGAND FREE ENERGY PREDICTED BY IDOCK:   -1.79 KCAL/MOL
REMARK 927      BINDING AFFINITY PREDICTED BY RF-SCORE:    0.00 PKD
ROOT
HETATM    1  C   UNL     1      -6.615   7.532  62.411  1.00  0.00    -0.071 C  
HETATM    2  C   UNL     1      -6.825   7.521  63.921  1.00  0.00    -0.054 C  
HETATM    3  C   UNL     1      -5.900   8.524  64.602  1.00  0.00    -0.063 C  
ENDROOT
BRANCH   2   4
HETATM    4  O   UNL     1      -8.179   7.910  64.215  1.00  0.00    -0.125 OA 
BRANCH   4   5
HETATM    5  C   UNL     1      -8.366   9.249  64.388  1.00  0.00    -0.171 C  
HETATM    6  O   UNL     1      -8.296  10.088  63.500  1.00  0.00    -0.150 OA 
BRANCH   5   7
HETATM    7  C   UNL     1      -8.615   9.558  65.840  1.00  0.00    -0.144 C  
BRANCH   7   8
HETATM    8  C   UNL     1     -10.074   9.266  66.191  1.00  0.00    -0.304 C  
BRANCH   8   9
HETATM    9  C   UNL     1     -10.265   8.727  67.606  1.00  0.00    -0.298 C  
BRANCH   9  10
HETATM   10  C   UNL     1     -11.004   7.416  67.635  1.00  0.00    -0.136 C  
HETATM   11  C   UNL     1     -10.825   6.431  68.529  1.00  0.00    -0.382 C  
BRANCH  11  12
HETATM   12  C   UNL     1      -9.797   6.417  69.627  1.00  0.00    -0.182 C  
BRANCH  12  13
HETATM   13  C   UNL     1     -10.412   6.269  71.025  1.00  0.00    -0.274 C  
HETATM   14  C   UNL     1      -9.898   5.083  71.850  1.00  0.00    -0.181 C  
HETATM   15  O   UNL     1      -8.502   4.876  71.662  1.00  0.00    -0.117 OA 
HETATM   16  C   UNL     1     -10.136   5.507  73.294  1.00  0.00    -0.202 C  
HETATM   17  C   UNL     1      -9.770   6.988  73.301  1.00  0.00    -0.198 C  
HETATM   18  H   UNL     1      -8.184   4.141  72.174  1.00  0.00     0.000 HD 
HETATM   19  O   UNL     1      -8.363   7.136  73.514  1.00  0.00    -0.115 OA 
HETATM   20  C   UNL     1     -10.143   7.527  71.898  1.00  0.00    -0.205 C  
HETATM   21  H   UNL     1      -8.135   8.059  73.518  1.00  0.00     0.000 HD 
BRANCH  20  22
HETATM   22  C   UNL     1     -11.333   8.466  71.812  1.00  0.00    -0.366 C  
HETATM   23  C   UNL     1     -11.561   9.383  70.853  1.00  0.00    -0.380 C  
BRANCH  23  24
HETATM   24  C   UNL     1     -12.711  10.364  70.783  1.00  0.00    -0.371 C  
HETATM   25  H   UNL     1     -14.013  11.132  72.031  1.00  0.00     0.000 HD 
HETATM   26  O   UNL     1     -13.290  10.516  72.075  1.00  0.00    -0.434 OA 
BRANCH  24  27
HETATM   27  C   UNL     1     -12.221  11.728  70.258  1.00  0.00    -0.299 C  
BRANCH  27  28
HETATM   28  O   UNL     1     -11.003  11.589  69.508  1.00  0.00    -0.211 OA 
BRANCH  28  29
HETATM   29  C   UNL     1     -10.963  12.334  68.356  1.00  0.00    -0.236 A  
HETATM   30  C   UNL     1     -11.892  12.227  67.318  1.00  0.00    -0.330 A  
HETATM   31  C   UNL     1     -11.780  13.037  66.185  1.00  0.00    -0.445 A  
HETATM   32  C   UNL     1     -10.745  13.963  66.089  1.00  0.00    -0.283 A  
HETATM   33  C   UNL     1      -9.812  14.097  67.125  1.00  0.00    -0.253 A  
HETATM   34  C   UNL     1      -8.689  15.099  67.021  1.00  0.00    -0.238 C  
HETATM   35  C   UNL     1      -9.939  13.282  68.264  1.00  0.00    -0.236 A  
HETATM   36  F   UNL     1      -8.678  15.779  65.838  1.00  0.00    -0.348 F  
HETATM   37  F   UNL     1      -7.461  14.521  67.124  1.00  0.00    -0.205 F  
HETATM   38  F   UNL     1      -8.741  16.051  67.992  1.00  0.00    -0.165 F  
ENDBRANCH  28  29
ENDBRANCH  27  28
ENDBRANCH  24  27
ENDBRANCH  23  24
ENDBRANCH  20  22
ENDBRANCH  12  13
ENDBRANCH  11  12
ENDBRANCH   9  10
ENDBRANCH   8   9
ENDBRANCH   7   8
ENDBRANCH   5   7
ENDBRANCH   4   5
ENDBRANCH   2   4
TORSDOF 13
ENDMDL
MODEL      287
REMARK 921   NORMALIZED FREE ENERGY PREDICTED BY IDOCK:   -4.39 KCAL/MOL
REMARK 922        TOTAL FREE ENERGY PREDICTED BY IDOCK:   -9.95 KCAL/MOL
REMARK 923 INTER-LIGAND FREE ENERGY PREDICTED BY IDOCK:   -8.10 KCAL/MOL
REMARK 924 INTRA-LIGAND FREE ENERGY PREDICTED BY IDOCK:   -1.85 KCAL/MOL
REMARK 927      BINDING AFFINITY PREDICTED BY RF-SCORE:    0.00 PKD
ROOT
HETATM    1  C   UNL     1     -10.617  17.054  67.704  1.00  0.00    -0.333 C  
HETATM    2  C   UNL     1     -10.275  16.839  66.233  1.00  0.00    -0.332 C  
HETATM    3  C   UNL     1      -8.765  16.876  66.019  1.00  0.00    -0.193 C  
ENDROOT
BRANCH   2   4
HETATM    4  O   UNL     1     -10.740  15.541  65.822  1.00  0.00    -0.326 OA 
BRANCH   4   5
HETATM    5  C   UNL     1     -11.408  15.521  64.633  1.00  0.00    -0.357 C  
HETATM    6  O   UNL     1     -11.683  16.509  63.966  1.00  0.00    -1.111 OA 
BRANCH   5   7
HETATM    7  C   UNL     1     -11.814  14.113  64.286  1.00  0.00    -0.420 C  
BRANCH   7   8
HETATM    8  C   UNL     1     -12.300  13.389  65.542  1.00  0.00    -0.528 C  
BRANCH   8   9
HETATM    9  C   UNL     1     -11.520  12.114  65.851  1.00  0.00    -0.418 C  
BRANCH   9  10
HETATM   10  C   UNL     1     -11.760  11.609  67.247  1.00  0.00    -0.255 C  
HETATM   11  C   UNL     1     -11.220  12.109  68.370  1.00  0.00    -0.314 C  
BRANCH  11  12
HETATM   12  C   UNL     1     -10.212  13.223  68.439  1.00  0.00    -0.249 C  
BRANCH  12  13
HETATM   13  C   UNL     1      -8.812  12.797  67.978  1.00  0.00    -0.195 C  
HETATM   14  C   UNL     1      -7.775  13.922  67.890  1.00  0.00    -0.160 C  
HETATM   15  O   UNL     1      -7.918  14.855  68.956  1.00  0.00    -0.154 OA 
HETATM   16  C   UNL     1      -6.439  13.205  68.048  1.00  0.00    -0.126 C  
HETATM   17  C   UNL     1      -6.716  12.156  69.120  1.00  0.00    -0.100 C  
HETATM   18  H   UNL     1      -7.274  15.553  68.901  1.00  0.00     0.000 HD 
HETATM   19  O   UNL     1      -6.534  12.732  70.417  1.00  0.00    -0.414 OA 
HETATM   20  C   UNL     1      -8.197  11.741  68.939  1.00  0.00     0.054 C  
HETATM   21  H   UNL     1      -6.706  12.078  71.085  1.00  0.00     0.000 HD 
BRANCH  20  22
HETATM   22  C   UNL     1      -8.463  10.347  68.396  1.00  0.00    -0.124 C  
HETATM   23  C   UNL     1      -9.049   9.331  69.056  1.00  0.00    -0.147 C  
BRANCH  23  24
HETATM   24  C   UNL     1      -9.271   7.922  68.550  1.00  0.00    -0.138 C  
HETATM   25  H   UNL     1     -10.302   7.062  67.122  1.00  0.00     0.000 HD 
HETATM   26  O   UNL     1     -10.163   7.947  67.439  1.00  0.00    -0.203 OA 
BRANCH  24  27
HETATM   27  C   UNL     1      -7.929   7.284  68.137  1.00  0.00    -0.123 C  
BRANCH  27  28
HETATM   28  O   UNL     1      -7.896   7.008  66.727  1.00  0.00    -0.103 OA 
BRANCH  28  29
HETATM   29  C   UNL     1      -8.007   5.677  66.411  1.00  0.00    -0.101 A  
HETATM   30  C   UNL     1      -7.219   4.668  66.971  1.00  0.00    -0.076 A  
HETATM   31  C   UNL     1      -7.410   3.336  66.598  1.00  0.00    -0.075 A  
HETATM   32  C   UNL     1      -8.396   3.005  65.671  1.00  0.00    -0.098 A  
HETATM   33  C   UNL     1      -9.206   3.999  65.110  1.00  0.00    -0.151 A  
HETATM   34  C   UNL     1     -10.273   3.642  64.104  1.00  0.00    -0.231 C  
HETATM   35  C   UNL     1      -9.010   5.337  65.498  1.00  0.00    -0.158 A  
HETATM   36  F   UNL     1     -10.307   2.313  63.800  1.00  0.00    -0.142 F  
HETATM   37  F   UNL     1     -10.109   4.287  62.916  1.00  0.00    -0.161 F  
HETATM   38  F   UNL     1     -11.526   3.955  64.533  1.00  0.00    -0.141 F  
ENDBRANCH  28  29
ENDBRANCH  27  28
ENDBRANCH  24  27
ENDBRANCH  23  24
ENDBRANCH  20  22
ENDBRANCH  12  13
ENDBRANCH  11  12
ENDBRANCH   9  10
ENDBRANCH   8   9
ENDBRANCH   7   8
ENDBRANCH   5   7
ENDBRANCH   4   5
ENDBRANCH   2   4
TORSDOF 13
ENDMDL
MODEL      288
REMARK 921   NORMALIZED FREE ENERGY PREDICTED BY IDOCK:   -4.39 KCAL/MOL
REMARK 922        TOTAL FREE ENERGY PREDICTED BY IDOCK:   -9.94 KCAL/MOL
REMARK 923 INTER-LIGAND FREE ENERGY PREDICTED BY IDOCK:   -8.83 KCAL/MOL
REMARK 924 INTRA-LIGAND FREE ENERGY PREDICTED BY IDOCK:   -1.12 KCAL/MOL
REMARK 927      BINDING AFFINITY PREDICTED BY RF-SCORE:    0.00 PKD
ROOT
HETATM    1  C   UNL     1     -13.877  14.798  71.677  1.00  0.00    -0.535 C  
HETATM    2  C   UNL     1     -12.747  15.268  70.768  1.00  0.00    -0.433 C  
HETATM    3  C   UNL     1     -11.411  15.231  71.505  1.00  0.00    -0.457 C  
ENDROOT
BRANCH   2   4
HETATM    4  O   UNL     1     -12.644  14.382  69.639  1.00  0.00    -0.255 OA 
BRANCH   4   5
HETATM    5  C   UNL     1     -12.179  13.134  69.930  1.00  0.00    -0.225 C  
HETATM    6  O   UNL     1     -12.562  12.441  70.862  1.00  0.00    -0.340 OA 
BRANCH   5   7
HETATM    7  C   UNL     1     -11.080  12.751  68.974  1.00  0.00    -0.285 C  
BRANCH   7   8
HETATM    8  C   UNL     1     -11.676  12.064  67.746  1.00  0.00    -0.379 C  
BRANCH   8   9
HETATM    9  C   UNL     1     -11.753  12.968  66.519  1.00  0.00    -0.437 C  
BRANCH   9  10
HETATM   10  C   UNL     1     -10.402  13.268  65.930  1.00  0.00    -0.293 C  
HETATM   11  C   UNL     1      -9.695  12.458  65.127  1.00  0.00    -0.070 C  
BRANCH  11  12
HETATM   12  C   UNL     1     -10.084  11.063  64.723  1.00  0.00    -0.367 C  
BRANCH  12  13
HETATM   13  C   UNL     1      -9.065  10.003  65.162  1.00  0.00    -0.247 C  
HETATM   14  C   UNL     1      -8.089   9.536  64.076  1.00  0.00    -0.152 C  
HETATM   15  O   UNL     1      -7.678  10.613  63.239  1.00  0.00    -0.324 OA 
HETATM   16  C   UNL     1      -6.878   9.041  64.858  1.00  0.00    -0.076 C  
HETATM   17  C   UNL     1      -6.737  10.055  65.989  1.00  0.00    -0.100 C  
HETATM   18  H   UNL     1      -7.072  10.324  62.566  1.00  0.00     0.000 HD 
HETATM   19  O   UNL     1      -5.961  11.171  65.541  1.00  0.00    -0.357 OA 
HETATM   20  C   UNL     1      -8.174  10.522  66.326  1.00  0.00    -0.147 C  
HETATM   21  H   UNL     1      -5.873  11.803  66.246  1.00  0.00     0.000 HD 
BRANCH  20  22
HETATM   22  C   UNL     1      -8.757  10.066  67.651  1.00  0.00    -0.121 C  
HETATM   23  C   UNL     1      -8.529   8.889  68.263  1.00  0.00    -0.130 C  
BRANCH  23  24
HETATM   24  C   UNL     1      -9.145   8.397  69.555  1.00  0.00    -0.153 C  
HETATM   25  H   UNL     1      -9.908   9.201  71.171  1.00  0.00     0.000 HD 
HETATM   26  O   UNL     1      -9.521   9.510  70.360  1.00  0.00    -0.242 OA 
BRANCH  24  27
HETATM   27  C   UNL     1     -10.375   7.515  69.260  1.00  0.00    -0.209 C  
BRANCH  27  28
HETATM   28  O   UNL     1     -11.202   7.370  70.427  1.00  0.00    -0.266 OA 
BRANCH  28  29
HETATM   29  C   UNL     1     -10.951   6.235  71.156  1.00  0.00    -0.280 A  
HETATM   30  C   UNL     1     -11.441   6.005  72.444  1.00  0.00    -0.357 A  
HETATM   31  C   UNL     1     -11.146   4.811  73.108  1.00  0.00    -0.388 A  
HETATM   32  C   UNL     1     -10.366   3.840  72.484  1.00  0.00    -0.204 A  
HETATM   33  C   UNL     1      -9.878   4.045  71.188  1.00  0.00    -0.236 A  
HETATM   34  C   UNL     1      -9.032   2.995  70.512  1.00  0.00    -0.102 C  
HETATM   35  C   UNL     1     -10.188   5.247  70.526  1.00  0.00    -0.334 A  
HETATM   36  F   UNL     1      -8.784   1.910  71.301  1.00  0.00    -0.068 F  
HETATM   37  F   UNL     1      -7.810   3.466  70.141  1.00  0.00    -0.046 F  
HETATM   38  F   UNL     1      -9.607   2.504  69.381  1.00  0.00    -0.212 F  
ENDBRANCH  28  29
ENDBRANCH  27  28
ENDBRANCH  24  27
ENDBRANCH  23  24
ENDBRANCH  20  22
ENDBRANCH  12  13
ENDBRANCH  11  12
ENDBRANCH   9  10
ENDBRANCH   8   9
ENDBRANCH   7   8
ENDBRANCH   5   7
ENDBRANCH   4   5
ENDBRANCH   2   4
TORSDOF 13
ENDMDL
MODEL      289
REMARK 921   NORMALIZED FREE ENERGY PREDICTED BY IDOCK:   -4.38 KCAL/MOL
REMARK 922        TOTAL FREE ENERGY PREDICTED BY IDOCK:   -9.94 KCAL/MOL
REMARK 923 INTER-LIGAND FREE ENERGY PREDICTED BY IDOCK:   -8.20 KCAL/MOL
REMARK 924 INTRA-LIGAND FREE ENERGY PREDICTED BY IDOCK:   -1.74 KCAL/MOL
REMARK 927      BINDING AFFINITY PREDICTED BY RF-SCORE:    0.00 PKD
ROOT
HETATM    1  C   UNL     1     -12.798  14.162  65.484  1.00  0.00    -0.404 C  
HETATM    2  C   UNL     1     -11.909  13.491  64.443  1.00  0.00    -0.414 C  
HETATM    3  C   UNL     1     -10.459  13.936  64.604  1.00  0.00    -0.419 C  
ENDROOT
BRANCH   2   4
HETATM    4  O   UNL     1     -11.949  12.065  64.631  1.00  0.00    -0.323 OA 
BRANCH   4   5
HETATM    5  C   UNL     1     -11.518  11.635  65.851  1.00  0.00    -0.121 C  
HETATM    6  O   UNL     1     -12.055  11.899  66.918  1.00  0.00    -0.599 OA 
BRANCH   5   7
HETATM    7  C   UNL     1     -10.249  10.837  65.705  1.00  0.00    -0.319 C  
BRANCH   7   8
HETATM    8  C   UNL     1     -10.031   9.977  66.950  1.00  0.00    -0.263 C  
BRANCH   8   9
HETATM    9  C   UNL     1      -9.547   8.564  66.637  1.00  0.00    -0.292 C  
BRANCH   9  10
HETATM   10  C   UNL     1     -10.635   7.533  66.768  1.00  0.00    -0.269 C  
HETATM   11  C   UNL     1     -10.872   6.770  67.847  1.00  0.00    -0.320 C  
BRANCH  11  12
HETATM   12  C   UNL     1     -10.046   6.747  69.104  1.00  0.00    -0.180 C  
BRANCH  12  13
HETATM   13  C   UNL     1     -10.335   7.931  70.036  1.00  0.00    -0.221 C  
HETATM   14  C   UNL     1     -11.629   7.829  70.852  1.00  0.00    -0.274 C  
HETATM   15  O   UNL     1     -11.865   6.498  71.300  1.00  0.00    -0.326 OA 
HETATM   16  C   UNL     1     -11.368   8.711  72.067  1.00  0.00    -0.432 C  
HETATM   17  C   UNL     1      -9.913   8.419  72.422  1.00  0.00    -0.310 C  
HETATM   18  H   UNL     1     -12.667   6.435  71.806  1.00  0.00     0.000 HD 
HETATM   19  O   UNL     1      -9.846   7.269  73.272  1.00  0.00    -0.203 OA 
HETATM   20  C   UNL     1      -9.199   8.118  71.082  1.00  0.00    -0.185 C  
HETATM   21  H   UNL     1      -8.940   7.087  73.493  1.00  0.00     0.000 HD 
BRANCH  20  22
HETATM   22  C   UNL     1      -8.211   9.155  70.577  1.00  0.00    -0.203 C  
HETATM   23  C   UNL     1      -7.302   8.983  69.599  1.00  0.00    -0.064 C  
BRANCH  23  24
HETATM   24  C   UNL     1      -6.274   9.987  69.123  1.00  0.00    -0.040 C  
HETATM   25  H   UNL     1      -5.591  10.624  67.400  1.00  0.00     0.000 HD 
HETATM   26  O   UNL     1      -6.237   9.995  67.699  1.00  0.00    -0.057 OA 
BRANCH  24  27
HETATM   27  C   UNL     1      -6.615  11.395  69.652  1.00  0.00    -0.128 C  
BRANCH  27  28
HETATM   28  O   UNL     1      -5.904  12.409  68.923  1.00  0.00    -0.061 OA 
BRANCH  28  29
HETATM   29  C   UNL     1      -6.445  13.665  69.034  1.00  0.00    -0.106 A  
HETATM   30  C   UNL     1      -5.704  14.820  69.297  1.00  0.00    -0.097 A  
HETATM   31  C   UNL     1      -6.338  16.062  69.380  1.00  0.00    -0.169 A  
HETATM   32  C   UNL     1      -7.716  16.156  69.193  1.00  0.00    -0.230 A  
HETATM   33  C   UNL     1      -8.474  15.013  68.913  1.00  0.00    -0.192 A  
HETATM   34  C   UNL     1      -9.966  15.114  68.711  1.00  0.00    -0.229 C  
HETATM   35  C   UNL     1      -7.824  13.769  68.823  1.00  0.00    -0.059 A  
HETATM   36  F   UNL     1     -10.450  16.379  68.874  1.00  0.00    -0.221 F  
HETATM   37  F   UNL     1     -10.666  14.337  69.583  1.00  0.00    -0.234 F  
HETATM   38  F   UNL     1     -10.356  14.728  67.466  1.00  0.00    -0.234 F  
ENDBRANCH  28  29
ENDBRANCH  27  28
ENDBRANCH  24  27
ENDBRANCH  23  24
ENDBRANCH  20  22
ENDBRANCH  12  13
ENDBRANCH  11  12
ENDBRANCH   9  10
ENDBRANCH   8   9
ENDBRANCH   7   8
ENDBRANCH   5   7
ENDBRANCH   4   5
ENDBRANCH   2   4
TORSDOF 13
ENDMDL
MODEL      290
REMARK 921   NORMALIZED FREE ENERGY PREDICTED BY IDOCK:   -4.38 KCAL/MOL
REMARK 922        TOTAL FREE ENERGY PREDICTED BY IDOCK:   -9.93 KCAL/MOL
REMARK 923 INTER-LIGAND FREE ENERGY PREDICTED BY IDOCK:   -8.63 KCAL/MOL
REMARK 924 INTRA-LIGAND FREE ENERGY PREDICTED BY IDOCK:   -1.29 KCAL/MOL
REMARK 927      BINDING AFFINITY PREDICTED BY RF-SCORE:    0.00 PKD
ROOT
HETATM    1  C   UNL     1      -9.537  20.770  67.367  1.00  0.00    -0.484 C  
HETATM    2  C   UNL     1      -9.762  19.464  66.614  1.00  0.00    -0.359 C  
HETATM    3  C   UNL     1     -10.723  19.672  65.448  1.00  0.00    -0.159 C  
ENDROOT
BRANCH   2   4
HETATM    4  O   UNL     1      -8.511  19.009  66.068  1.00  0.00    -0.455 OA 
BRANCH   4   5
HETATM    5  C   UNL     1      -7.598  18.596  66.992  1.00  0.00    -0.226 C  
HETATM    6  O   UNL     1      -6.434  18.969  67.045  1.00  0.00    -0.193 OA 
BRANCH   5   7
HETATM    7  C   UNL     1      -8.209  17.568  67.907  1.00  0.00    -0.231 C  
BRANCH   7   8
HETATM    8  C   UNL     1      -7.836  16.163  67.432  1.00  0.00    -0.180 C  
BRANCH   8   9
HETATM    9  C   UNL     1      -8.191  15.067  68.432  1.00  0.00    -0.151 C  
BRANCH   9  10
HETATM   10  C   UNL     1      -8.162  13.691  67.823  1.00  0.00    -0.179 C  
HETATM   11  C   UNL     1      -9.148  13.125  67.108  1.00  0.00    -0.230 C  
BRANCH  11  12
HETATM   12  C   UNL     1     -10.500  13.729  66.845  1.00  0.00    -0.272 C  
BRANCH  12  13
HETATM   13  C   UNL     1     -11.394  12.842  65.967  1.00  0.00    -0.354 C  
HETATM   14  C   UNL     1     -11.970  13.518  64.717  1.00  0.00    -0.390 C  
HETATM   15  O   UNL     1     -11.028  14.397  64.112  1.00  0.00    -0.575 OA 
HETATM   16  C   UNL     1     -12.237  12.361  63.763  1.00  0.00    -0.626 C  
HETATM   17  C   UNL     1     -11.036  11.442  63.962  1.00  0.00    -0.355 C  
HETATM   18  H   UNL     1     -11.386  14.816  63.337  1.00  0.00     0.000 HD 
HETATM   19  O   UNL     1      -9.962  11.862  63.115  1.00  0.00    -0.465 OA 
HETATM   20  C   UNL     1     -10.620  11.599  65.445  1.00  0.00    -0.331 C  
HETATM   21  H   UNL     1      -9.213  11.290  63.239  1.00  0.00     0.000 HD 
BRANCH  20  22
HETATM   22  C   UNL     1     -10.880  10.419  66.365  1.00  0.00    -0.057 C  
HETATM   23  C   UNL     1      -9.962   9.555  66.837  1.00  0.00    -0.278 C  
BRANCH  23  24
HETATM   24  C   UNL     1     -10.213   8.342  67.708  1.00  0.00    -0.224 C  
HETATM   25  H   UNL     1      -9.983   6.402  67.555  1.00  0.00     0.000 HD 
HETATM   26  O   UNL     1      -9.826   7.163  67.009  1.00  0.00    -0.171 OA 
BRANCH  24  27
HETATM   27  C   UNL     1      -9.424   8.459  69.028  1.00  0.00    -0.151 C  
BRANCH  27  28
HETATM   28  O   UNL     1     -10.280   8.255  70.164  1.00  0.00    -0.193 OA 
BRANCH  28  29
HETATM   29  C   UNL     1     -10.069   7.070  70.823  1.00  0.00    -0.194 A  
HETATM   30  C   UNL     1     -11.089   6.240  71.295  1.00  0.00    -0.345 A  
HETATM   31  C   UNL     1     -10.780   5.043  71.945  1.00  0.00    -0.181 A  
HETATM   32  C   UNL     1      -9.450   4.666  72.119  1.00  0.00    -0.185 A  
HETATM   33  C   UNL     1      -8.413   5.476  71.641  1.00  0.00    -0.131 A  
HETATM   34  C   UNL     1      -6.973   5.070  71.831  1.00  0.00    -0.065 C  
HETATM   35  C   UNL     1      -8.736   6.676  70.980  1.00  0.00    -0.138 A  
HETATM   36  F   UNL     1      -6.826   3.907  72.528  1.00  0.00    -0.037 F  
HETATM   37  F   UNL     1      -6.252   6.002  72.514  1.00  0.00    -0.046 F  
HETATM   38  F   UNL     1      -6.320   4.879  70.652  1.00  0.00    -0.022 F  
ENDBRANCH  28  29
ENDBRANCH  27  28
ENDBRANCH  24  27
ENDBRANCH  23  24
ENDBRANCH  20  22
ENDBRANCH  12  13
ENDBRANCH  11  12
ENDBRANCH   9  10
ENDBRANCH   8   9
ENDBRANCH   7   8
ENDBRANCH   5   7
ENDBRANCH   4   5
ENDBRANCH   2   4
TORSDOF 13
ENDMDL
MODEL      291
REMARK 921   NORMALIZED FREE ENERGY PREDICTED BY IDOCK:   -4.37 KCAL/MOL
REMARK 922        TOTAL FREE ENERGY PREDICTED BY IDOCK:   -9.91 KCAL/MOL
REMARK 923 INTER-LIGAND FREE ENERGY PREDICTED BY IDOCK:   -7.65 KCAL/MOL
REMARK 924 INTRA-LIGAND FREE ENERGY PREDICTED BY IDOCK:   -2.26 KCAL/MOL
REMARK 927      BINDING AFFINITY PREDICTED BY RF-SCORE:    0.00 PKD
ROOT
HETATM    1  C   UNL     1      -8.287   2.000  68.333  1.00  0.00    -0.078 C  
HETATM    2  C   UNL     1      -8.857   3.099  67.441  1.00  0.00    -0.137 C  
HETATM    3  C   UNL     1      -9.587   4.146  68.275  1.00  0.00    -0.191 C  
ENDROOT
BRANCH   2   4
HETATM    4  O   UNL     1      -7.778   3.763  66.758  1.00  0.00    -0.083 OA 
BRANCH   4   5
HETATM    5  C   UNL     1      -7.726   5.112  66.943  1.00  0.00    -0.092 C  
HETATM    6  O   UNL     1      -8.317   5.937  66.260  1.00  0.00    -0.111 OA 
BRANCH   5   7
HETATM    7  C   UNL     1      -6.789   5.449  68.072  1.00  0.00    -0.060 C  
BRANCH   7   8
HETATM    8  C   UNL     1      -6.742   6.964  68.274  1.00  0.00    -0.068 C  
BRANCH   8   9
HETATM    9  C   UNL     1      -7.780   7.479  69.267  1.00  0.00    -0.112 C  
BRANCH   9  10
HETATM   10  C   UNL     1      -7.537   8.906  69.676  1.00  0.00    -0.072 C  
HETATM   11  C   UNL     1      -7.852   9.996  68.958  1.00  0.00    -0.101 C  
BRANCH  11  12
HETATM   12  C   UNL     1      -8.439   9.996  67.573  1.00  0.00    -0.118 C  
BRANCH  12  13
HETATM   13  C   UNL     1      -9.703  10.857  67.455  1.00  0.00    -0.187 C  
HETATM   14  C   UNL     1     -11.031  10.100  67.577  1.00  0.00    -0.255 C  
HETATM   15  O   UNL     1     -10.963   9.070  68.558  1.00  0.00    -0.444 OA 
HETATM   16  C   UNL     1     -12.016  11.161  68.055  1.00  0.00    -0.076 C  
HETATM   17  C   UNL     1     -11.211  11.976  69.063  1.00  0.00    -0.258 C  
HETATM   18  H   UNL     1     -11.786   8.602  68.634  1.00  0.00     0.000 HD 
HETATM   19  O   UNL     1     -11.286  11.359  70.352  1.00  0.00    -0.487 OA 
HETATM   20  C   UNL     1      -9.747  11.952  68.559  1.00  0.00    -0.173 C  
HETATM   21  H   UNL     1     -10.784  11.866  70.979  1.00  0.00     0.000 HD 
BRANCH  20  22
HETATM   22  C   UNL     1      -9.185  13.249  68.007  1.00  0.00    -0.217 C  
HETATM   23  C   UNL     1      -9.769  14.461  68.059  1.00  0.00    -0.221 C  
BRANCH  23  24
HETATM   24  C   UNL     1      -9.248  15.752  67.465  1.00  0.00    -0.204 C  
HETATM   25  H   UNL     1      -7.616  16.830  67.597  1.00  0.00     0.000 HD 
HETATM   26  O   UNL     1      -7.943  16.019  67.970  1.00  0.00    -0.135 OA 
BRANCH  24  27
HETATM   27  C   UNL     1      -9.211  15.657  65.926  1.00  0.00    -0.295 C  
BRANCH  27  28
HETATM   28  O   UNL     1     -10.533  15.736  65.369  1.00  0.00    -0.368 OA 
BRANCH  28  29
HETATM   29  C   UNL     1     -11.079  14.520  65.040  1.00  0.00    -0.387 A  
HETATM   30  C   UNL     1     -12.437  14.211  65.156  1.00  0.00    -0.453 A  
HETATM   31  C   UNL     1     -12.907  12.949  64.785  1.00  0.00    -0.359 A  
HETATM   32  C   UNL     1     -12.024  11.993  64.289  1.00  0.00    -0.424 A  
HETATM   33  C   UNL     1     -10.662  12.288  64.151  1.00  0.00    -0.412 A  
HETATM   34  C   UNL     1      -9.704  11.253  63.615  1.00  0.00    -0.321 C  
HETATM   35  C   UNL     1     -10.200  13.564  64.520  1.00  0.00    -0.296 A  
HETATM   36  F   UNL     1     -10.297  10.054  63.346  1.00  0.00     0.057 F  
HETATM   37  F   UNL     1      -8.693  10.976  64.484  1.00  0.00    -0.166 F  
HETATM   38  F   UNL     1      -9.108  11.638  62.454  1.00  0.00    -0.348 F  
ENDBRANCH  28  29
ENDBRANCH  27  28
ENDBRANCH  24  27
ENDBRANCH  23  24
ENDBRANCH  20  22
ENDBRANCH  12  13
ENDBRANCH  11  12
ENDBRANCH   9  10
ENDBRANCH   8   9
ENDBRANCH   7   8
ENDBRANCH   5   7
ENDBRANCH   4   5
ENDBRANCH   2   4
TORSDOF 13
ENDMDL
MODEL      292
REMARK 921   NORMALIZED FREE ENERGY PREDICTED BY IDOCK:   -4.37 KCAL/MOL
REMARK 922        TOTAL FREE ENERGY PREDICTED BY IDOCK:   -9.91 KCAL/MOL
REMARK 923 INTER-LIGAND FREE ENERGY PREDICTED BY IDOCK:   -8.95 KCAL/MOL
REMARK 924 INTRA-LIGAND FREE ENERGY PREDICTED BY IDOCK:   -0.96 KCAL/MOL
REMARK 927      BINDING AFFINITY PREDICTED BY RF-SCORE:    0.00 PKD
ROOT
HETATM    1  C   UNL     1      -6.226   3.639  72.504  1.00  0.00    -0.009 C  
HETATM    2  C   UNL     1      -7.651   3.794  71.985  1.00  0.00    -0.058 C  
HETATM    3  C   UNL     1      -8.654   3.218  72.979  1.00  0.00    -0.081 C  
ENDROOT
BRANCH   2   4
HETATM    4  O   UNL     1      -7.950   5.193  71.828  1.00  0.00    -0.106 OA 
BRANCH   4   5
HETATM    5  C   UNL     1      -8.721   5.497  70.745  1.00  0.00    -0.130 C  
HETATM    6  O   UNL     1      -9.200   4.679  69.972  1.00  0.00    -0.105 OA 
BRANCH   5   7
HETATM    7  C   UNL     1      -8.850   6.990  70.600  1.00  0.00    -0.150 C  
BRANCH   7   8
HETATM    8  C   UNL     1      -8.997   7.357  69.123  1.00  0.00    -0.135 C  
BRANCH   8   9
HETATM    9  C   UNL     1      -7.688   7.284  68.343  1.00  0.00    -0.120 C  
BRANCH   9  10
HETATM   10  C   UNL     1      -7.828   6.553  67.036  1.00  0.00    -0.108 C  
HETATM   11  C   UNL     1      -8.575   6.944  65.991  1.00  0.00    -0.150 C  
BRANCH  11  12
HETATM   12  C   UNL     1      -9.475   8.148  65.956  1.00  0.00    -0.158 C  
BRANCH  12  13
HETATM   13  C   UNL     1      -8.792   9.393  65.374  1.00  0.00    -0.220 C  
HETATM   14  C   UNL     1      -7.909   9.147  64.144  1.00  0.00    -0.128 C  
HETATM   15  O   UNL     1      -8.478   8.176  63.272  1.00  0.00    -0.384 OA 
HETATM   16  C   UNL     1      -7.893  10.493  63.428  1.00  0.00    -0.027 C  
HETATM   17  C   UNL     1      -9.326  10.996  63.570  1.00  0.00    -0.260 C  
HETATM   18  H   UNL     1      -7.930   8.025  62.510  1.00  0.00     0.000 HD 
HETATM   19  O   UNL     1     -10.130  10.467  62.509  1.00  0.00    -0.744 OA 
HETATM   20  C   UNL     1      -9.836  10.455  64.928  1.00  0.00    -0.400 C  
HETATM   21  H   UNL     1     -11.023  10.780  62.598  1.00  0.00     0.000 HD 
BRANCH  20  22
HETATM   22  C   UNL     1     -10.038  11.465  66.043  1.00  0.00    -0.275 C  
HETATM   23  C   UNL     1     -11.211  11.820  66.599  1.00  0.00    -0.383 C  
BRANCH  23  24
HETATM   24  C   UNL     1     -11.435  12.865  67.671  1.00  0.00    -0.334 C  
HETATM   25  H   UNL     1     -10.364  13.735  69.064  1.00  0.00     0.000 HD 
HETATM   26  O   UNL     1     -10.224  13.079  68.391  1.00  0.00    -0.242 OA 
BRANCH  24  27
HETATM   27  C   UNL     1     -11.916  14.186  67.039  1.00  0.00    -0.439 C  
BRANCH  27  28
HETATM   28  O   UNL     1     -11.158  14.505  65.861  1.00  0.00    -0.315 OA 
BRANCH  28  29
HETATM   29  C   UNL     1     -10.225  15.495  66.042  1.00  0.00    -0.330 A  
HETATM   30  C   UNL     1      -8.848  15.271  66.128  1.00  0.00    -0.166 A  
HETATM   31  C   UNL     1      -7.969  16.342  66.301  1.00  0.00    -0.264 A  
HETATM   32  C   UNL     1      -8.461  17.643  66.380  1.00  0.00    -0.279 A  
HETATM   33  C   UNL     1      -9.835  17.890  66.281  1.00  0.00    -0.307 A  
HETATM   34  C   UNL     1     -10.370  19.299  66.367  1.00  0.00    -0.471 C  
HETATM   35  C   UNL     1     -10.712  16.805  66.098  1.00  0.00    -0.116 A  
HETATM   36  F   UNL     1      -9.400  20.233  66.589  1.00  0.00    -0.427 F  
HETATM   37  F   UNL     1     -11.269  19.456  67.377  1.00  0.00    -0.564 F  
HETATM   38  F   UNL     1     -11.007  19.691  65.231  1.00  0.00    -0.561 F  
ENDBRANCH  28  29
ENDBRANCH  27  28
ENDBRANCH  24  27
ENDBRANCH  23  24
ENDBRANCH  20  22
ENDBRANCH  12  13
ENDBRANCH  11  12
ENDBRANCH   9  10
ENDBRANCH   8   9
ENDBRANCH   7   8
ENDBRANCH   5   7
ENDBRANCH   4   5
ENDBRANCH   2   4
TORSDOF 13
ENDMDL
MODEL      293
REMARK 921   NORMALIZED FREE ENERGY PREDICTED BY IDOCK:   -4.36 KCAL/MOL
REMARK 922        TOTAL FREE ENERGY PREDICTED BY IDOCK:   -9.89 KCAL/MOL
REMARK 923 INTER-LIGAND FREE ENERGY PREDICTED BY IDOCK:   -8.32 KCAL/MOL
REMARK 924 INTRA-LIGAND FREE ENERGY PREDICTED BY IDOCK:   -1.57 KCAL/MOL
REMARK 927      BINDING AFFINITY PREDICTED BY RF-SCORE:    0.00 PKD
ROOT
HETATM    1  C   UNL     1      -5.945  10.912  66.171  1.00  0.00    -0.141 C  
HETATM    2  C   UNL     1      -7.218  10.128  66.467  1.00  0.00    -0.104 C  
HETATM    3  C   UNL     1      -7.024   8.647  66.157  1.00  0.00    -0.080 C  
ENDROOT
BRANCH   2   4
HETATM    4  O   UNL     1      -7.532  10.241  67.866  1.00  0.00    -0.087 OA 
BRANCH   4   5
HETATM    5  C   UNL     1      -7.491  11.509  68.363  1.00  0.00    -0.109 C  
HETATM    6  O   UNL     1      -6.636  11.937  69.128  1.00  0.00    -0.088 OA 
BRANCH   5   7
HETATM    7  C   UNL     1      -8.682  12.296  67.885  1.00  0.00    -0.177 C  
BRANCH   7   8
HETATM    8  C   UNL     1      -8.492  13.777  68.213  1.00  0.00    -0.173 C  
BRANCH   8   9
HETATM    9  C   UNL     1      -8.911  14.711  67.081  1.00  0.00    -0.240 C  
BRANCH   9  10
HETATM   10  C   UNL     1     -10.356  15.121  67.170  1.00  0.00    -0.263 C  
HETATM   11  C   UNL     1     -10.991  15.532  68.279  1.00  0.00    -0.305 C  
BRANCH  11  12
HETATM   12  C   UNL     1     -10.400  15.586  69.660  1.00  0.00    -0.286 C  
BRANCH  12  13
HETATM   13  C   UNL     1     -11.177  14.743  70.680  1.00  0.00    -0.173 C  
HETATM   14  C   UNL     1     -11.525  15.452  71.994  1.00  0.00    -0.434 C  
HETATM   15  O   UNL     1     -11.882  16.814  71.780  1.00  0.00    -0.592 OA 
HETATM   16  C   UNL     1     -12.752  14.704  72.503  1.00  0.00    -0.448 C  
HETATM   17  C   UNL     1     -13.566  14.441  71.239  1.00  0.00    -0.323 C  
HETATM   18  H   UNL     1     -12.098  17.253  72.595  1.00  0.00     0.000 HD 
HETATM   19  O   UNL     1     -14.400  15.570  70.960  1.00  0.00    -0.821 OA 
HETATM   20  C   UNL     1     -12.536  14.260  70.098  1.00  0.00    -0.393 C  
HETATM   21  H   UNL     1     -14.907  15.407  70.173  1.00  0.00     0.000 HD 
BRANCH  20  22
HETATM   22  C   UNL     1     -12.373  12.862  69.528  1.00  0.00    -0.040 C  
HETATM   23  C   UNL     1     -11.823  11.804  70.151  1.00  0.00    -0.408 C  
BRANCH  23  24
HETATM   24  C   UNL     1     -11.603  10.420  69.578  1.00  0.00    -0.219 C  
HETATM   25  H   UNL     1     -11.260   9.643  67.811  1.00  0.00     0.000 HD 
HETATM   26  O   UNL     1     -11.398  10.512  68.171  1.00  0.00    -0.297 OA 
BRANCH  24  27
HETATM   27  C   UNL     1     -10.386   9.750  70.247  1.00  0.00    -0.291 C  
BRANCH  27  28
HETATM   28  O   UNL     1     -10.592   8.336  70.404  1.00  0.00    -0.215 OA 
BRANCH  28  29
HETATM   29  C   UNL     1     -10.119   7.826  71.586  1.00  0.00    -0.185 A  
HETATM   30  C   UNL     1     -10.931   7.398  72.639  1.00  0.00    -0.363 A  
HETATM   31  C   UNL     1     -10.361   6.879  73.804  1.00  0.00    -0.409 A  
HETATM   32  C   UNL     1      -8.977   6.776  73.918  1.00  0.00    -0.183 A  
HETATM   33  C   UNL     1      -8.145   7.185  72.868  1.00  0.00    -0.120 A  
HETATM   34  C   UNL     1      -6.645   7.076  72.991  1.00  0.00    -0.065 C  
HETATM   35  C   UNL     1      -8.730   7.699  71.697  1.00  0.00    -0.132 A  
HETATM   36  F   UNL     1      -6.234   6.601  74.202  1.00  0.00    -0.062 F  
HETATM   37  F   UNL     1      -6.019   8.275  72.834  1.00  0.00    -0.049 F  
HETATM   38  F   UNL     1      -6.100   6.242  72.064  1.00  0.00    -0.037 F  
ENDBRANCH  28  29
ENDBRANCH  27  28
ENDBRANCH  24  27
ENDBRANCH  23  24
ENDBRANCH  20  22
ENDBRANCH  12  13
ENDBRANCH  11  12
ENDBRANCH   9  10
ENDBRANCH   8   9
ENDBRANCH   7   8
ENDBRANCH   5   7
ENDBRANCH   4   5
ENDBRANCH   2   4
TORSDOF 13
ENDMDL
MODEL      294
REMARK 921   NORMALIZED FREE ENERGY PREDICTED BY IDOCK:   -4.35 KCAL/MOL
REMARK 922        TOTAL FREE ENERGY PREDICTED BY IDOCK:   -9.88 KCAL/MOL
REMARK 923 INTER-LIGAND FREE ENERGY PREDICTED BY IDOCK:   -7.89 KCAL/MOL
REMARK 924 INTRA-LIGAND FREE ENERGY PREDICTED BY IDOCK:   -1.99 KCAL/MOL
REMARK 927      BINDING AFFINITY PREDICTED BY RF-SCORE:    0.00 PKD
ROOT
HETATM    1  C   UNL     1      -7.201   8.136  64.034  1.00  0.00    -0.091 C  
HETATM    2  C   UNL     1      -8.266   7.895  65.098  1.00  0.00    -0.141 C  
HETATM    3  C   UNL     1      -8.365   6.412  65.438  1.00  0.00    -0.141 C  
ENDROOT
BRANCH   2   4
HETATM    4  O   UNL     1      -7.901   8.593  66.303  1.00  0.00    -0.098 OA 
BRANCH   4   5
HETATM    5  C   UNL     1      -6.580   8.520  66.630  1.00  0.00    -0.060 C  
HETATM    6  O   UNL     1      -5.993   7.497  66.957  1.00  0.00    -0.042 OA 
BRANCH   5   7
HETATM    7  C   UNL     1      -5.956   9.889  66.591  1.00  0.00    -0.055 C  
BRANCH   7   8
HETATM    8  C   UNL     1      -7.001  10.946  66.949  1.00  0.00    -0.119 C  
BRANCH   8   9
HETATM    9  C   UNL     1      -7.225  11.097  68.451  1.00  0.00    -0.083 C  
BRANCH   9  10
HETATM   10  C   UNL     1      -8.683  11.114  68.823  1.00  0.00    -0.130 C  
HETATM   11  C   UNL     1      -9.348  10.128  69.446  1.00  0.00    -0.235 C  
BRANCH  11  12
HETATM   12  C   UNL     1      -8.782   8.787  69.821  1.00  0.00    -0.133 C  
BRANCH  12  13
HETATM   13  C   UNL     1      -9.861   7.720  70.049  1.00  0.00    -0.181 C  
HETATM   14  C   UNL     1      -9.539   6.327  69.495  1.00  0.00    -0.147 C  
HETATM   15  O   UNL     1      -8.166   5.995  69.668  1.00  0.00    -0.111 OA 
HETATM   16  C   UNL     1     -10.377   5.387  70.354  1.00  0.00    -0.353 C  
HETATM   17  C   UNL     1     -10.263   5.978  71.756  1.00  0.00    -0.202 C  
HETATM   18  H   UNL     1      -7.967   5.132  69.324  1.00  0.00     0.000 HD 
HETATM   19  O   UNL     1      -9.085   5.475  72.396  1.00  0.00    -0.141 OA 
HETATM   20  C   UNL     1     -10.138   7.509  71.564  1.00  0.00    -0.201 C  
HETATM   21  H   UNL     1      -9.014   5.844  73.269  1.00  0.00     0.000 HD 
BRANCH  20  22
HETATM   22  C   UNL     1     -11.324   8.358  71.985  1.00  0.00    -0.411 C  
HETATM   23  C   UNL     1     -12.324   8.784  71.191  1.00  0.00    -0.258 C  
BRANCH  23  24
HETATM   24  C   UNL     1     -13.483   9.676  71.582  1.00  0.00    -0.374 C  
HETATM   25  H   UNL     1     -14.756   9.797  73.067  1.00  0.00     0.000 HD 
HETATM   26  O   UNL     1     -14.028   9.237  72.822  1.00  0.00    -0.423 OA 
BRANCH  24  27
HETATM   27  C   UNL     1     -13.016  11.141  71.697  1.00  0.00    -0.443 C  
BRANCH  27  28
HETATM   28  O   UNL     1     -12.440  11.602  70.464  1.00  0.00    -0.308 OA 
BRANCH  28  29
HETATM   29  C   UNL     1     -12.232  12.957  70.411  1.00  0.00    -0.304 A  
HETATM   30  C   UNL     1     -12.815  13.876  71.288  1.00  0.00    -0.435 A  
HETATM   31  C   UNL     1     -12.536  15.240  71.168  1.00  0.00    -0.457 A  
HETATM   32  C   UNL     1     -11.667  15.690  70.177  1.00  0.00    -0.374 A  
HETATM   33  C   UNL     1     -11.060  14.784  69.298  1.00  0.00    -0.283 A  
HETATM   34  C   UNL     1     -10.119  15.270  68.224  1.00  0.00    -0.225 C  
HETATM   35  C   UNL     1     -11.342  13.412  69.433  1.00  0.00    -0.286 A  
HETATM   36  F   UNL     1      -9.986  16.628  68.195  1.00  0.00    -0.235 F  
HETATM   37  F   UNL     1     -10.524  14.914  66.973  1.00  0.00    -0.258 F  
HETATM   38  F   UNL     1      -8.858  14.779  68.366  1.00  0.00    -0.156 F  
ENDBRANCH  28  29
ENDBRANCH  27  28
ENDBRANCH  24  27
ENDBRANCH  23  24
ENDBRANCH  20  22
ENDBRANCH  12  13
ENDBRANCH  11  12
ENDBRANCH   9  10
ENDBRANCH   8   9
ENDBRANCH   7   8
ENDBRANCH   5   7
ENDBRANCH   4   5
ENDBRANCH   2   4
TORSDOF 13
ENDMDL
MODEL      295
REMARK 921   NORMALIZED FREE ENERGY PREDICTED BY IDOCK:   -4.34 KCAL/MOL
REMARK 922        TOTAL FREE ENERGY PREDICTED BY IDOCK:   -9.86 KCAL/MOL
REMARK 923 INTER-LIGAND FREE ENERGY PREDICTED BY IDOCK:   -8.03 KCAL/MOL
REMARK 924 INTRA-LIGAND FREE ENERGY PREDICTED BY IDOCK:   -1.83 KCAL/MOL
REMARK 927      BINDING AFFINITY PREDICTED BY RF-SCORE:    0.00 PKD
ROOT
HETATM    1  C   UNL     1     -12.458  12.838  64.100  1.00  0.00    -0.450 C  
HETATM    2  C   UNL     1     -11.694  13.989  64.745  1.00  0.00    -0.394 C  
HETATM    3  C   UNL     1     -12.223  15.332  64.251  1.00  0.00    -0.205 C  
ENDROOT
BRANCH   2   4
HETATM    4  O   UNL     1     -11.885  13.946  66.170  1.00  0.00    -0.362 OA 
BRANCH   4   5
HETATM    5  C   UNL     1     -10.790  13.558  66.885  1.00  0.00    -0.282 C  
HETATM    6  O   UNL     1      -9.673  14.045  66.775  1.00  0.00    -0.259 OA 
BRANCH   5   7
HETATM    7  C   UNL     1     -11.137  12.404  67.787  1.00  0.00    -0.292 C  
BRANCH   7   8
HETATM    8  C   UNL     1     -11.148  11.103  66.984  1.00  0.00    -0.339 C  
BRANCH   8   9
HETATM    9  C   UNL     1     -11.090   9.850  67.852  1.00  0.00    -0.216 C  
BRANCH   9  10
HETATM   10  C   UNL     1     -10.437   8.688  67.155  1.00  0.00    -0.360 C  
HETATM   11  C   UNL     1     -10.251   7.462  67.671  1.00  0.00    -0.261 C  
BRANCH  11  12
HETATM   12  C   UNL     1     -10.592   7.039  69.074  1.00  0.00    -0.234 C  
BRANCH  12  13
HETATM   13  C   UNL     1     -10.730   8.222  70.042  1.00  0.00    -0.239 C  
HETATM   14  C   UNL     1     -12.159   8.532  70.505  1.00  0.00     0.140 C  
HETATM   15  O   UNL     1     -12.912   7.343  70.724  1.00  0.00    -0.588 OA 
HETATM   16  C   UNL     1     -11.967   9.237  71.843  1.00  0.00    -0.433 C  
HETATM   17  C   UNL     1     -10.827   8.465  72.500  1.00  0.00    -0.305 C  
HETATM   18  H   UNL     1     -13.797   7.535  71.011  1.00  0.00     0.000 HD 
HETATM   19  O   UNL     1     -11.353   7.332  73.199  1.00  0.00    -0.546 OA 
HETATM   20  C   UNL     1      -9.915   7.985  71.345  1.00  0.00    -0.221 C  
HETATM   21  H   UNL     1     -10.643   6.851  73.608  1.00  0.00     0.000 HD 
BRANCH  20  22
HETATM   22  C   UNL     1      -8.555   8.648  71.217  1.00  0.00    -0.236 C  
HETATM   23  C   UNL     1      -8.139   9.432  70.205  1.00  0.00    -0.180 C  
BRANCH  23  24
HETATM   24  C   UNL     1      -6.769  10.053  70.036  1.00  0.00    -0.112 C  
HETATM   25  H   UNL     1      -5.017   9.489  69.360  1.00  0.00     0.000 HD 
HETATM   26  O   UNL     1      -5.877   9.099  69.466  1.00  0.00    -0.033 OA 
BRANCH  24  27
HETATM   27  C   UNL     1      -6.855  11.302  69.135  1.00  0.00    -0.109 C  
BRANCH  27  28
HETATM   28  O   UNL     1      -7.739  11.081  68.024  1.00  0.00    -0.100 OA 
BRANCH  28  29
HETATM   29  C   UNL     1      -7.099  10.836  66.835  1.00  0.00    -0.114 A  
HETATM   30  C   UNL     1      -5.791  11.235  66.549  1.00  0.00    -0.146 A  
HETATM   31  C   UNL     1      -5.215  10.930  65.314  1.00  0.00    -0.109 A  
HETATM   32  C   UNL     1      -5.940  10.217  64.362  1.00  0.00    -0.138 A  
HETATM   33  C   UNL     1      -7.247   9.795  64.634  1.00  0.00    -0.131 A  
HETATM   34  C   UNL     1      -8.034   9.024  63.603  1.00  0.00    -0.150 C  
HETATM   35  C   UNL     1      -7.815  10.100  65.884  1.00  0.00    -0.132 A  
HETATM   36  F   UNL     1      -7.361   8.848  62.429  1.00  0.00    -0.101 F  
HETATM   37  F   UNL     1      -9.202   9.640  63.269  1.00  0.00    -0.261 F  
HETATM   38  F   UNL     1      -8.374   7.776  64.025  1.00  0.00    -0.131 F  
ENDBRANCH  28  29
ENDBRANCH  27  28
ENDBRANCH  24  27
ENDBRANCH  23  24
ENDBRANCH  20  22
ENDBRANCH  12  13
ENDBRANCH  11  12
ENDBRANCH   9  10
ENDBRANCH   8   9
ENDBRANCH   7   8
ENDBRANCH   5   7
ENDBRANCH   4   5
ENDBRANCH   2   4
TORSDOF 13
ENDMDL
MODEL      296
REMARK 921   NORMALIZED FREE ENERGY PREDICTED BY IDOCK:   -4.31 KCAL/MOL
REMARK 922        TOTAL FREE ENERGY PREDICTED BY IDOCK:   -9.81 KCAL/MOL
REMARK 923 INTER-LIGAND FREE ENERGY PREDICTED BY IDOCK:   -8.39 KCAL/MOL
REMARK 924 INTRA-LIGAND FREE ENERGY PREDICTED BY IDOCK:   -1.42 KCAL/MOL
REMARK 927      BINDING AFFINITY PREDICTED BY RF-SCORE:    0.00 PKD
ROOT
HETATM    1  C   UNL     1     -10.253  13.586  65.344  1.00  0.00    -0.316 C  
HETATM    2  C   UNL     1     -11.176  14.797  65.274  1.00  0.00    -0.366 C  
HETATM    3  C   UNL     1     -12.621  14.392  65.547  1.00  0.00    -0.345 C  
ENDROOT
BRANCH   2   4
HETATM    4  O   UNL     1     -10.793  15.746  66.286  1.00  0.00    -0.306 OA 
BRANCH   4   5
HETATM    5  C   UNL     1      -9.901  16.692  65.877  1.00  0.00    -0.273 C  
HETATM    6  O   UNL     1      -8.702  16.504  65.715  1.00  0.00    -0.460 OA 
BRANCH   5   7
HETATM    7  C   UNL     1     -10.589  18.021  65.710  1.00  0.00    -0.174 C  
BRANCH   7   8
HETATM    8  C   UNL     1      -9.893  19.077  66.568  1.00  0.00    -0.415 C  
BRANCH   8   9
HETATM    9  C   UNL     1     -10.131  18.900  68.065  1.00  0.00    -0.437 C  
BRANCH   9  10
HETATM   10  C   UNL     1      -9.222  17.873  68.682  1.00  0.00    -0.269 C  
HETATM   11  C   UNL     1      -9.599  16.876  69.499  1.00  0.00     0.157 C  
BRANCH  11  12
HETATM   12  C   UNL     1     -10.992  16.643  70.015  1.00  0.00    -0.148 C  
BRANCH  12  13
HETATM   13  C   UNL     1     -11.129  15.339  70.812  1.00  0.00    -0.340 C  
HETATM   14  C   UNL     1     -11.784  15.474  72.191  1.00  0.00    -0.476 C  
HETATM   15  O   UNL     1     -12.855  16.412  72.176  1.00  0.00    -0.372 OA 
HETATM   16  C   UNL     1     -12.357  14.088  72.463  1.00  0.00    -0.008 C  
HETATM   17  C   UNL     1     -12.910  13.652  71.110  1.00  0.00    -0.323 C  
HETATM   18  H   UNL     1     -13.262  16.495  73.031  1.00  0.00     0.000 HD 
HETATM   19  O   UNL     1     -14.244  14.147  70.952  1.00  0.00    -0.138 OA 
HETATM   20  C   UNL     1     -11.988  14.294  70.045  1.00  0.00    -0.396 C  
HETATM   21  H   UNL     1     -14.588  13.876  70.109  1.00  0.00     0.000 HD 
BRANCH  20  22
HETATM   22  C   UNL     1     -11.076  13.362  69.267  1.00  0.00    -0.216 C  
HETATM   23  C   UNL     1     -11.082  12.017  69.310  1.00  0.00    -0.246 C  
BRANCH  23  24
HETATM   24  C   UNL     1     -10.144  11.076  68.585  1.00  0.00    -0.197 C  
HETATM   25  H   UNL     1      -8.647  11.237  67.330  1.00  0.00     0.000 HD 
HETATM   26  O   UNL     1      -9.236  11.828  67.786  1.00  0.00    -0.170 OA 
BRANCH  24  27
HETATM   27  C   UNL     1      -9.368  10.209  69.597  1.00  0.00    -0.190 C  
BRANCH  27  28
HETATM   28  O   UNL     1      -8.614   9.183  68.930  1.00  0.00    -0.127 OA 
BRANCH  28  29
HETATM   29  C   UNL     1      -9.269   7.981  68.826  1.00  0.00    -0.143 A  
HETATM   30  C   UNL     1     -10.302   7.573  69.674  1.00  0.00    -0.225 A  
HETATM   31  C   UNL     1     -10.921   6.335  69.485  1.00  0.00    -0.445 A  
HETATM   32  C   UNL     1     -10.516   5.503  68.444  1.00  0.00    -0.227 A  
HETATM   33  C   UNL     1      -9.493   5.900  67.574  1.00  0.00    -0.110 A  
HETATM   34  C   UNL     1      -9.052   4.999  66.447  1.00  0.00    -0.129 C  
HETATM   35  C   UNL     1      -8.882   7.152  67.768  1.00  0.00    -0.124 A  
HETATM   36  F   UNL     1      -9.710   3.804  66.420  1.00  0.00    -0.194 F  
HETATM   37  F   UNL     1      -7.728   4.689  66.512  1.00  0.00    -0.087 F  
HETATM   38  F   UNL     1      -9.249   5.556  65.221  1.00  0.00    -0.157 F  
ENDBRANCH  28  29
ENDBRANCH  27  28
ENDBRANCH  24  27
ENDBRANCH  23  24
ENDBRANCH  20  22
ENDBRANCH  12  13
ENDBRANCH  11  12
ENDBRANCH   9  10
ENDBRANCH   8   9
ENDBRANCH   7   8
ENDBRANCH   5   7
ENDBRANCH   4   5
ENDBRANCH   2   4
TORSDOF 13
ENDMDL
MODEL      297
REMARK 921   NORMALIZED FREE ENERGY PREDICTED BY IDOCK:   -4.31 KCAL/MOL
REMARK 922        TOTAL FREE ENERGY PREDICTED BY IDOCK:   -9.81 KCAL/MOL
REMARK 923 INTER-LIGAND FREE ENERGY PREDICTED BY IDOCK:   -8.39 KCAL/MOL
REMARK 924 INTRA-LIGAND FREE ENERGY PREDICTED BY IDOCK:   -1.42 KCAL/MOL
REMARK 927      BINDING AFFINITY PREDICTED BY RF-SCORE:    0.00 PKD
ROOT
HETATM    1  C   UNL     1     -11.665   6.272  72.540  1.00  0.00    -0.245 C  
HETATM    2  C   UNL     1     -10.436   5.997  73.400  1.00  0.00    -0.249 C  
HETATM    3  C   UNL     1     -10.587   4.678  74.151  1.00  0.00    -0.348 C  
ENDROOT
BRANCH   2   4
HETATM    4  O   UNL     1      -9.279   5.883  72.552  1.00  0.00    -0.140 OA 
BRANCH   4   5
HETATM    5  C   UNL     1      -8.554   7.029  72.413  1.00  0.00    -0.120 C  
HETATM    6  O   UNL     1      -8.120   7.702  73.339  1.00  0.00    -0.121 OA 
BRANCH   5   7
HETATM    7  C   UNL     1      -8.414   7.386  70.957  1.00  0.00    -0.119 C  
BRANCH   7   8
HETATM    8  C   UNL     1      -9.498   8.389  70.562  1.00  0.00    -0.186 C  
BRANCH   8   9
HETATM    9  C   UNL     1     -10.637   7.771  69.756  1.00  0.00    -0.241 C  
BRANCH   9  10
HETATM   10  C   UNL     1     -10.288   6.418  69.198  1.00  0.00    -0.248 C  
HETATM   11  C   UNL     1     -10.088   6.128  67.902  1.00  0.00    -0.179 C  
BRANCH  11  12
HETATM   12  C   UNL     1     -10.250   7.085  66.753  1.00  0.00    -0.282 C  
BRANCH  12  13
HETATM   13  C   UNL     1      -9.137   8.139  66.686  1.00  0.00    -0.202 C  
HETATM   14  C   UNL     1      -7.707   7.588  66.667  1.00  0.00    -0.101 C  
HETATM   15  O   UNL     1      -7.609   6.401  65.887  1.00  0.00    -0.080 OA 
HETATM   16  C   UNL     1      -6.898   8.685  65.985  1.00  0.00    -0.065 C  
HETATM   17  C   UNL     1      -7.817   9.171  64.869  1.00  0.00    -0.117 C  
HETATM   18  H   UNL     1      -6.722   6.059  65.876  1.00  0.00     0.000 HD 
HETATM   19  O   UNL     1      -7.641   8.352  63.708  1.00  0.00    -0.119 OA 
HETATM   20  C   UNL     1      -9.261   9.011  65.404  1.00  0.00    -0.241 C  
HETATM   21  H   UNL     1      -8.214   8.655  63.013  1.00  0.00     0.000 HD 
BRANCH  20  22
HETATM   22  C   UNL     1     -10.023  10.284  65.731  1.00  0.00    -0.337 C  
HETATM   23  C   UNL     1     -10.621  11.106  64.849  1.00  0.00    -0.356 C  
BRANCH  23  24
HETATM   24  C   UNL     1     -11.334  12.406  65.153  1.00  0.00    -0.323 C  
HETATM   25  H   UNL     1     -13.101  12.947  65.805  1.00  0.00     0.000 HD 
HETATM   26  O   UNL     1     -12.653  12.131  65.615  1.00  0.00    -0.395 OA 
BRANCH  24  27
HETATM   27  C   UNL     1     -10.557  13.209  66.215  1.00  0.00    -0.284 C  
BRANCH  27  28
HETATM   28  O   UNL     1     -10.092  14.460  65.684  1.00  0.00    -0.322 OA 
BRANCH  28  29
HETATM   29  C   UNL     1      -9.586  15.319  66.627  1.00  0.00    -0.257 A  
HETATM   30  C   UNL     1      -8.868  14.914  67.755  1.00  0.00    -0.173 A  
HETATM   31  C   UNL     1      -8.378  15.861  68.657  1.00  0.00    -0.195 A  
HETATM   32  C   UNL     1      -8.597  17.219  68.431  1.00  0.00    -0.251 A  
HETATM   33  C   UNL     1      -9.301  17.646  67.299  1.00  0.00    -0.249 A  
HETATM   34  C   UNL     1      -9.539  19.116  67.054  1.00  0.00    -0.322 C  
HETATM   35  C   UNL     1      -9.782  16.684  66.392  1.00  0.00    -0.306 A  
HETATM   36  F   UNL     1      -9.050  19.916  68.045  1.00  0.00    -0.368 F  
HETATM   37  F   UNL     1     -10.862  19.422  66.954  1.00  0.00    -0.507 F  
HETATM   38  F   UNL     1      -8.962  19.559  65.904  1.00  0.00    -0.343 F  
ENDBRANCH  28  29
ENDBRANCH  27  28
ENDBRANCH  24  27
ENDBRANCH  23  24
ENDBRANCH  20  22
ENDBRANCH  12  13
ENDBRANCH  11  12
ENDBRANCH   9  10
ENDBRANCH   8   9
ENDBRANCH   7   8
ENDBRANCH   5   7
ENDBRANCH   4   5
ENDBRANCH   2   4
TORSDOF 13
ENDMDL
MODEL      298
REMARK 921   NORMALIZED FREE ENERGY PREDICTED BY IDOCK:   -4.31 KCAL/MOL
REMARK 922        TOTAL FREE ENERGY PREDICTED BY IDOCK:   -9.80 KCAL/MOL
REMARK 923 INTER-LIGAND FREE ENERGY PREDICTED BY IDOCK:   -8.06 KCAL/MOL
REMARK 924 INTRA-LIGAND FREE ENERGY PREDICTED BY IDOCK:   -1.74 KCAL/MOL
REMARK 927      BINDING AFFINITY PREDICTED BY RF-SCORE:    0.00 PKD
ROOT
HETATM    1  C   UNL     1      -8.149   4.920  64.757  1.00  0.00    -0.109 C  
HETATM    2  C   UNL     1      -7.757   4.613  66.198  1.00  0.00    -0.091 C  
HETATM    3  C   UNL     1      -7.658   5.897  67.016  1.00  0.00    -0.099 C  
ENDROOT
BRANCH   2   4
HETATM    4  O   UNL     1      -8.772   3.792  66.803  1.00  0.00    -0.109 OA 
BRANCH   4   5
HETATM    5  C   UNL     1      -9.852   4.472  67.280  1.00  0.00    -0.175 C  
HETATM    6  O   UNL     1     -10.560   5.220  66.618  1.00  0.00    -0.284 OA 
BRANCH   5   7
HETATM    7  C   UNL     1     -10.017   4.221  68.756  1.00  0.00    -0.023 C  
BRANCH   7   8
HETATM    8  C   UNL     1     -10.430   5.514  69.459  1.00  0.00    -0.368 C  
BRANCH   8   9
HETATM    9  C   UNL     1      -9.448   5.961  70.538  1.00  0.00    -0.196 C  
BRANCH   9  10
HETATM   10  C   UNL     1      -9.991   5.786  71.930  1.00  0.00    -0.214 C  
HETATM   11  C   UNL     1     -10.493   6.758  72.708  1.00  0.00    -0.247 C  
BRANCH  11  12
HETATM   12  C   UNL     1     -10.537   8.222  72.366  1.00  0.00    -0.408 C  
BRANCH  12  13
HETATM   13  C   UNL     1     -11.592   8.561  71.305  1.00  0.00    -0.332 C  
HETATM   14  C   UNL     1     -13.050   8.400  71.748  1.00  0.00    -0.351 C  
HETATM   15  O   UNL     1     -13.240   8.816  73.097  1.00  0.00    -0.866 OA 
HETATM   16  C   UNL     1     -13.820   9.347  70.835  1.00  0.00     0.094 C  
HETATM   17  C   UNL     1     -12.914  10.570  70.735  1.00  0.00    -0.330 C  
HETATM   18  H   UNL     1     -14.145   8.717  73.371  1.00  0.00     0.000 HD 
HETATM   19  O   UNL     1     -13.174  11.453  71.831  1.00  0.00    -0.484 OA 
HETATM   20  C   UNL     1     -11.464  10.036  70.831  1.00  0.00    -0.452 C  
HETATM   21  H   UNL     1     -12.610  12.215  71.769  1.00  0.00     0.000 HD 
BRANCH  20  22
HETATM   22  C   UNL     1     -10.622  10.091  69.568  1.00  0.00    -0.267 C  
HETATM   23  C   UNL     1     -10.332   9.058  68.755  1.00  0.00    -0.236 C  
BRANCH  23  24
HETATM   24  C   UNL     1      -9.450   9.084  67.525  1.00  0.00    -0.137 C  
HETATM   25  H   UNL     1      -9.596   8.535  65.650  1.00  0.00     0.000 HD 
HETATM   26  O   UNL     1     -10.150   8.519  66.421  1.00  0.00    -0.279 OA 
BRANCH  24  27
HETATM   27  C   UNL     1      -9.027  10.531  67.200  1.00  0.00    -0.140 C  
BRANCH  27  28
HETATM   28  O   UNL     1      -7.774  10.859  67.823  1.00  0.00    -0.104 OA 
BRANCH  28  29
HETATM   29  C   UNL     1      -7.646  12.180  68.169  1.00  0.00    -0.125 A  
HETATM   30  C   UNL     1      -6.694  12.669  69.067  1.00  0.00    -0.097 A  
HETATM   31  C   UNL     1      -6.628  14.035  69.351  1.00  0.00    -0.118 A  
HETATM   32  C   UNL     1      -7.508  14.920  68.732  1.00  0.00    -0.132 A  
HETATM   33  C   UNL     1      -8.459  14.453  67.817  1.00  0.00    -0.175 A  
HETATM   34  C   UNL     1      -9.414  15.410  67.147  1.00  0.00    -0.213 C  
HETATM   35  C   UNL     1      -8.512  13.076  67.532  1.00  0.00    -0.190 A  
HETATM   36  F   UNL     1      -9.265  16.701  67.562  1.00  0.00    -0.203 F  
HETATM   37  F   UNL     1     -10.718  15.097  67.380  1.00  0.00    -0.262 F  
HETATM   38  F   UNL     1      -9.268  15.438  65.795  1.00  0.00    -0.343 F  
ENDBRANCH  28  29
ENDBRANCH  27  28
ENDBRANCH  24  27
ENDBRANCH  23  24
ENDBRANCH  20  22
ENDBRANCH  12  13
ENDBRANCH  11  12
ENDBRANCH   9  10
ENDBRANCH   8   9
ENDBRANCH   7   8
ENDBRANCH   5   7
ENDBRANCH   4   5
ENDBRANCH   2   4
TORSDOF 13
ENDMDL
MODEL      299
REMARK 921   NORMALIZED FREE ENERGY PREDICTED BY IDOCK:   -4.30 KCAL/MOL
REMARK 922        TOTAL FREE ENERGY PREDICTED BY IDOCK:   -9.79 KCAL/MOL
REMARK 923 INTER-LIGAND FREE ENERGY PREDICTED BY IDOCK:   -8.03 KCAL/MOL
REMARK 924 INTRA-LIGAND FREE ENERGY PREDICTED BY IDOCK:   -1.75 KCAL/MOL
REMARK 927      BINDING AFFINITY PREDICTED BY RF-SCORE:    0.00 PKD
ROOT
HETATM    1  C   UNL     1     -10.639   5.205  71.961  1.00  0.00    -0.266 C  
HETATM    2  C   UNL     1      -9.936   4.340  70.921  1.00  0.00    -0.155 C  
HETATM    3  C   UNL     1      -9.665   5.137  69.650  1.00  0.00    -0.255 C  
ENDROOT
BRANCH   2   4
HETATM    4  O   UNL     1      -8.665   3.909  71.442  1.00  0.00    -0.089 OA 
BRANCH   4   5
HETATM    5  C   UNL     1      -8.209   4.627  72.507  1.00  0.00    -0.114 C  
HETATM    6  O   UNL     1      -8.660   4.563  73.643  1.00  0.00    -0.103 OA 
BRANCH   5   7
HETATM    7  C   UNL     1      -7.106   5.558  72.076  1.00  0.00    -0.086 C  
BRANCH   7   8
HETATM    8  C   UNL     1      -7.368   6.961  72.622  1.00  0.00    -0.082 C  
BRANCH   8   9
HETATM    9  C   UNL     1      -8.257   7.811  71.719  1.00  0.00    -0.126 C  
BRANCH   9  10
HETATM   10  C   UNL     1      -9.433   8.403  72.448  1.00  0.00    -0.365 C  
HETATM   11  C   UNL     1     -10.540   8.905  71.880  1.00  0.00    -0.419 C  
BRANCH  11  12
HETATM   12  C   UNL     1     -10.785   9.043  70.402  1.00  0.00    -0.267 C  
BRANCH  12  13
HETATM   13  C   UNL     1     -10.272  10.371  69.829  1.00  0.00    -0.228 C  
HETATM   14  C   UNL     1      -8.898  10.310  69.151  1.00  0.00    -0.176 C  
HETATM   15  O   UNL     1      -8.727   9.105  68.413  1.00  0.00    -0.128 OA 
HETATM   16  C   UNL     1      -8.918  11.479  68.173  1.00  0.00    -0.172 C  
HETATM   17  C   UNL     1     -10.335  11.455  67.609  1.00  0.00    -0.183 C  
HETATM   18  H   UNL     1      -7.875   9.068  67.993  1.00  0.00     0.000 HD 
HETATM   19  O   UNL     1     -10.397  10.555  66.497  1.00  0.00    -0.233 OA 
HETATM   20  C   UNL     1     -11.241  10.933  68.751  1.00  0.00    -0.329 C  
HETATM   21  H   UNL     1     -11.279  10.539  66.146  1.00  0.00     0.000 HD 
BRANCH  20  22
HETATM   22  C   UNL     1     -12.188  11.931  69.393  1.00  0.00    -0.185 C  
HETATM   23  C   UNL     1     -11.849  12.933  70.226  1.00  0.00    -0.291 C  
BRANCH  23  24
HETATM   24  C   UNL     1     -12.785  13.900  70.919  1.00  0.00    -0.340 C  
HETATM   25  H   UNL     1     -12.848  14.848  72.633  1.00  0.00     0.000 HD 
HETATM   26  O   UNL     1     -12.260  14.241  72.198  1.00  0.00    -0.222 OA 
BRANCH  24  27
HETATM   27  C   UNL     1     -12.969  15.171  70.066  1.00  0.00     0.006 C  
BRANCH  27  28
HETATM   28  O   UNL     1     -11.722  15.863  69.888  1.00  0.00    -0.333 OA 
BRANCH  28  29
HETATM   29  C   UNL     1     -11.108  15.616  68.686  1.00  0.00    -0.317 A  
HETATM   30  C   UNL     1      -9.762  15.884  68.421  1.00  0.00    -0.214 A  
HETATM   31  C   UNL     1      -9.217  15.586  67.170  1.00  0.00    -0.228 A  
HETATM   32  C   UNL     1     -10.012  15.013  66.180  1.00  0.00    -0.313 A  
HETATM   33  C   UNL     1     -11.359  14.723  66.430  1.00  0.00    -0.339 A  
HETATM   34  C   UNL     1     -12.221  14.102  65.359  1.00  0.00    -0.433 C  
HETATM   35  C   UNL     1     -11.896  15.018  67.696  1.00  0.00    -0.205 A  
HETATM   36  F   UNL     1     -11.566  13.919  64.176  1.00  0.00    -0.386 F  
HETATM   37  F   UNL     1     -13.312  14.861  65.061  1.00  0.00     0.027 F  
HETATM   38  F   UNL     1     -12.698  12.877  65.710  1.00  0.00    -0.482 F  
ENDBRANCH  28  29
ENDBRANCH  27  28
ENDBRANCH  24  27
ENDBRANCH  23  24
ENDBRANCH  20  22
ENDBRANCH  12  13
ENDBRANCH  11  12
ENDBRANCH   9  10
ENDBRANCH   8   9
ENDBRANCH   7   8
ENDBRANCH   5   7
ENDBRANCH   4   5
ENDBRANCH   2   4
TORSDOF 13
ENDMDL
MODEL      300
REMARK 921   NORMALIZED FREE ENERGY PREDICTED BY IDOCK:   -4.29 KCAL/MOL
REMARK 922        TOTAL FREE ENERGY PREDICTED BY IDOCK:   -9.78 KCAL/MOL
REMARK 923 INTER-LIGAND FREE ENERGY PREDICTED BY IDOCK:   -7.95 KCAL/MOL
REMARK 924 INTRA-LIGAND FREE ENERGY PREDICTED BY IDOCK:   -1.83 KCAL/MOL
REMARK 927      BINDING AFFINITY PREDICTED BY RF-SCORE:    0.00 PKD
ROOT
HETATM    1  C   UNL     1      -8.323  18.976  67.382  1.00  0.00    -0.299 C  
HETATM    2  C   UNL     1      -9.553  18.097  67.182  1.00  0.00    -0.277 C  
HETATM    3  C   UNL     1     -10.586  18.804  66.311  1.00  0.00    -0.429 C  
ENDROOT
BRANCH   2   4
HETATM    4  O   UNL     1      -9.168  16.888  66.503  1.00  0.00    -0.243 OA 
BRANCH   4   5
HETATM    5  C   UNL     1      -8.917  15.826  67.320  1.00  0.00    -0.196 C  
HETATM    6  O   UNL     1      -7.895  15.669  67.974  1.00  0.00    -0.124 OA 
BRANCH   5   7
HETATM    7  C   UNL     1     -10.053  14.839  67.257  1.00  0.00    -0.236 C  
BRANCH   7   8
HETATM    8  C   UNL     1     -10.555  14.535  68.669  1.00  0.00    -0.255 C  
BRANCH   8   9
HETATM    9  C   UNL     1     -12.017  14.101  68.716  1.00  0.00    -0.367 C  
BRANCH   9  10
HETATM   10  C   UNL     1     -12.476  13.751  70.105  1.00  0.00    -0.332 C  
HETATM   11  C   UNL     1     -12.513  12.518  70.635  1.00  0.00    -0.323 C  
BRANCH  11  12
HETATM   12  C   UNL     1     -12.175  11.242  69.915  1.00  0.00    -0.358 C  
BRANCH  12  13
HETATM   13  C   UNL     1     -11.537  10.187  70.828  1.00  0.00    -0.445 C  
HETATM   14  C   UNL     1     -12.479   9.544  71.853  1.00  0.00    -0.384 C  
HETATM   15  O   UNL     1     -13.777   9.322  71.311  1.00  0.00    -0.494 OA 
HETATM   16  C   UNL     1     -11.838   8.192  72.146  1.00  0.00    -0.417 C  
HETATM   17  C   UNL     1     -11.344   7.723  70.781  1.00  0.00    -0.279 C  
HETATM   18  H   UNL     1     -14.360   8.924  71.946  1.00  0.00     0.000 HD 
HETATM   19  O   UNL     1     -12.400   7.046  70.093  1.00  0.00    -0.618 OA 
HETATM   20  C   UNL     1     -10.953   9.004  70.005  1.00  0.00    -0.230 C  
HETATM   21  H   UNL     1     -12.092   6.754  69.242  1.00  0.00     0.000 HD 
BRANCH  20  22
HETATM   22  C   UNL     1      -9.473   9.240  69.760  1.00  0.00    -0.203 C  
HETATM   23  C   UNL     1      -8.497   9.224  70.686  1.00  0.00    -0.258 C  
BRANCH  23  24
HETATM   24  C   UNL     1      -7.027   9.513  70.468  1.00  0.00    -0.123 C  
HETATM   25  H   UNL     1      -5.332   8.562  70.718  1.00  0.00     0.000 HD 
HETATM   26  O   UNL     1      -6.254   8.381  70.854  1.00  0.00    -0.033 OA 
BRANCH  24  27
HETATM   27  C   UNL     1      -6.762   9.855  68.988  1.00  0.00    -0.053 C  
BRANCH  27  28
HETATM   28  O   UNL     1      -6.052   8.794  68.328  1.00  0.00    -0.048 OA 
BRANCH  28  29
HETATM   29  C   UNL     1      -6.723   8.242  67.266  1.00  0.00    -0.063 A  
HETATM   30  C   UNL     1      -7.709   7.259  67.384  1.00  0.00    -0.110 A  
HETATM   31  C   UNL     1      -8.350   6.763  66.246  1.00  0.00    -0.126 A  
HETATM   32  C   UNL     1      -8.015   7.254  64.986  1.00  0.00    -0.129 A  
HETATM   33  C   UNL     1      -7.041   8.250  64.848  1.00  0.00    -0.079 A  
HETATM   34  C   UNL     1      -6.676   8.782  63.484  1.00  0.00    -0.089 C  
HETATM   35  C   UNL     1      -6.407   8.748  66.001  1.00  0.00    -0.057 A  
HETATM   36  F   UNL     1      -7.346   8.167  62.466  1.00  0.00    -0.089 F  
HETATM   37  F   UNL     1      -5.353   8.629  63.199  1.00  0.00    -0.063 F  
HETATM   38  F   UNL     1      -6.939  10.110  63.348  1.00  0.00    -0.122 F  
ENDBRANCH  28  29
ENDBRANCH  27  28
ENDBRANCH  24  27
ENDBRANCH  23  24
ENDBRANCH  20  22
ENDBRANCH  12  13
ENDBRANCH  11  12
ENDBRANCH   9  10
ENDBRANCH   8   9
ENDBRANCH   7   8
ENDBRANCH   5   7
ENDBRANCH   4   5
ENDBRANCH   2   4
TORSDOF 13
ENDMDL
MODEL      301
REMARK 921   NORMALIZED FREE ENERGY PREDICTED BY IDOCK:   -4.27 KCAL/MOL
REMARK 922        TOTAL FREE ENERGY PREDICTED BY IDOCK:   -9.73 KCAL/MOL
REMARK 923 INTER-LIGAND FREE ENERGY PREDICTED BY IDOCK:   -7.04 KCAL/MOL
REMARK 924 INTRA-LIGAND FREE ENERGY PREDICTED BY IDOCK:   -2.69 KCAL/MOL
REMARK 927      BINDING AFFINITY PREDICTED BY RF-SCORE:    0.00 PKD
ROOT
HETATM    1  C   UNL     1      -9.397   8.463  71.867  1.00  0.00    -0.313 C  
HETATM    2  C   UNL     1     -10.785   7.864  72.068  1.00  0.00    -0.241 C  
HETATM    3  C   UNL     1     -10.828   7.013  73.334  1.00  0.00    -0.332 C  
ENDROOT
BRANCH   2   4
HETATM    4  O   UNL     1     -11.743   8.926  72.226  1.00  0.00    -0.354 OA 
BRANCH   4   5
HETATM    5  C   UNL     1     -12.693   8.992  71.251  1.00  0.00    -0.262 C  
HETATM    6  O   UNL     1     -12.824   8.183  70.343  1.00  0.00     0.526 OA 
BRANCH   5   7
HETATM    7  C   UNL     1     -13.522  10.238  71.414  1.00  0.00    -0.303 C  
BRANCH   7   8
HETATM    8  C   UNL     1     -12.624  11.473  71.340  1.00  0.00    -0.419 C  
BRANCH   8   9
HETATM    9  C   UNL     1     -12.540  12.083  69.944  1.00  0.00     0.127 C  
BRANCH   9  10
HETATM   10  C   UNL     1     -11.124  12.248  69.464  1.00  0.00    -0.101 C  
HETATM   11  C   UNL     1     -10.579  13.380  68.992  1.00  0.00    -0.106 C  
BRANCH  11  12
HETATM   12  C   UNL     1     -11.302  14.681  68.780  1.00  0.00    -0.302 C  
BRANCH  12  13
HETATM   13  C   UNL     1     -10.821  15.442  67.537  1.00  0.00    -0.305 C  
HETATM   14  C   UNL     1     -10.173  16.805  67.807  1.00  0.00    -0.303 C  
HETATM   15  O   UNL     1      -9.369  16.783  68.982  1.00  0.00    -0.262 OA 
HETATM   16  C   UNL     1      -9.266  17.027  66.602  1.00  0.00    -0.277 C  
HETATM   17  C   UNL     1      -8.668  15.648  66.340  1.00  0.00    -0.318 C  
HETATM   18  H   UNL     1      -8.968  17.628  69.149  1.00  0.00     0.000 HD 
HETATM   19  O   UNL     1      -7.504  15.465  67.153  1.00  0.00    -0.205 OA 
HETATM   20  C   UNL     1      -9.756  14.626  66.751  1.00  0.00    -0.267 C  
HETATM   21  H   UNL     1      -7.132  14.606  66.990  1.00  0.00     0.000 HD 
BRANCH  20  22
HETATM   22  C   UNL     1     -10.434  13.851  65.635  1.00  0.00    -0.320 C  
HETATM   23  C   UNL     1     -11.754  13.810  65.378  1.00  0.00    -0.346 C  
BRANCH  23  24
HETATM   24  C   UNL     1     -12.451  13.000  64.306  1.00  0.00    -0.315 C  
HETATM   25  H   UNL     1     -13.464  13.367  62.669  1.00  0.00     0.000 HD 
HETATM   26  O   UNL     1     -13.027  13.876  63.342  1.00  0.00    -0.301 OA 
BRANCH  24  27
HETATM   27  C   UNL     1     -11.451  12.044  63.623  1.00  0.00    -0.468 C  
BRANCH  27  28
HETATM   28  O   UNL     1     -11.336  10.808  64.348  1.00  0.00     0.298 OA 
BRANCH  28  29
HETATM   29  C   UNL     1     -10.044  10.387  64.540  1.00  0.00    -0.295 A  
HETATM   30  C   UNL     1      -9.215   9.904  63.524  1.00  0.00    -0.279 A  
HETATM   31  C   UNL     1      -7.906   9.509  63.810  1.00  0.00    -0.133 A  
HETATM   32  C   UNL     1      -7.418   9.601  65.111  1.00  0.00    -0.115 A  
HETATM   33  C   UNL     1      -8.227  10.096  66.141  1.00  0.00    -0.125 A  
HETATM   34  C   UNL     1      -7.700  10.196  67.551  1.00  0.00    -0.091 C  
HETATM   35  C   UNL     1      -9.541  10.500  65.840  1.00  0.00    -0.254 A  
HETATM   36  F   UNL     1      -6.426   9.724  67.687  1.00  0.00    -0.063 F  
HETATM   37  F   UNL     1      -8.450   9.490  68.441  1.00  0.00    -0.114 F  
HETATM   38  F   UNL     1      -7.670  11.475  68.013  1.00  0.00    -0.099 F  
ENDBRANCH  28  29
ENDBRANCH  27  28
ENDBRANCH  24  27
ENDBRANCH  23  24
ENDBRANCH  20  22
ENDBRANCH  12  13
ENDBRANCH  11  12
ENDBRANCH   9  10
ENDBRANCH   8   9
ENDBRANCH   7   8
ENDBRANCH   5   7
ENDBRANCH   4   5
ENDBRANCH   2   4
TORSDOF 13
ENDMDL
MODEL      302
REMARK 921   NORMALIZED FREE ENERGY PREDICTED BY IDOCK:   -4.26 KCAL/MOL
REMARK 922        TOTAL FREE ENERGY PREDICTED BY IDOCK:   -9.73 KCAL/MOL
REMARK 923 INTER-LIGAND FREE ENERGY PREDICTED BY IDOCK:   -8.22 KCAL/MOL
REMARK 924 INTRA-LIGAND FREE ENERGY PREDICTED BY IDOCK:   -1.50 KCAL/MOL
REMARK 927      BINDING AFFINITY PREDICTED BY RF-SCORE:    0.00 PKD
ROOT
HETATM    1  C   UNL     1      -5.983   5.574  62.834  1.00  0.00    -0.018 C  
HETATM    2  C   UNL     1      -6.637   4.866  64.015  1.00  0.00    -0.042 C  
HETATM    3  C   UNL     1      -5.740   3.750  64.540  1.00  0.00    -0.014 C  
ENDROOT
BRANCH   2   4
HETATM    4  O   UNL     1      -6.829   5.807  65.087  1.00  0.00    -0.049 OA 
BRANCH   4   5
HETATM    5  C   UNL     1      -7.865   5.520  65.925  1.00  0.00    -0.104 C  
HETATM    6  O   UNL     1      -8.911   4.981  65.589  1.00  0.00    -0.140 OA 
BRANCH   5   7
HETATM    7  C   UNL     1      -7.564   6.012  67.315  1.00  0.00    -0.093 C  
BRANCH   7   8
HETATM    8  C   UNL     1      -8.692   5.608  68.265  1.00  0.00    -0.106 C  
BRANCH   8   9
HETATM    9  C   UNL     1      -9.602   6.767  68.659  1.00  0.00    -0.131 C  
BRANCH   9  10
HETATM   10  C   UNL     1      -8.971   7.686  69.670  1.00  0.00    -0.140 C  
HETATM   11  C   UNL     1      -9.402   7.893  70.924  1.00  0.00    -0.162 C  
BRANCH  11  12
HETATM   12  C   UNL     1     -10.644   7.304  71.534  1.00  0.00    -0.223 C  
BRANCH  12  13
HETATM   13  C   UNL     1     -11.937   7.896  70.958  1.00  0.00    -0.268 C  
HETATM   14  C   UNL     1     -13.214   7.100  71.248  1.00  0.00    -0.272 C  
HETATM   15  O   UNL     1     -13.208   6.554  72.564  1.00  0.00    -0.357 OA 
HETATM   16  C   UNL     1     -14.325   8.140  71.160  1.00  0.00    -0.270 C  
HETATM   17  C   UNL     1     -13.719   9.373  71.823  1.00  0.00    -0.347 C  
HETATM   18  H   UNL     1     -14.000   6.061  72.743  1.00  0.00     0.000 HD 
HETATM   19  O   UNL     1     -13.924   9.309  73.239  1.00  0.00    -1.015 OA 
HETATM   20  C   UNL     1     -12.203   9.323  71.514  1.00  0.00    -0.439 C  
HETATM   21  H   UNL     1     -13.546  10.077  73.652  1.00  0.00     0.000 HD 
BRANCH  20  22
HETATM   22  C   UNL     1     -11.661  10.355  70.541  1.00  0.00    -0.434 C  
HETATM   23  C   UNL     1     -11.613  10.242  69.201  1.00  0.00    -0.166 C  
BRANCH  23  24
HETATM   24  C   UNL     1     -11.026  11.236  68.221  1.00  0.00    -0.224 C  
HETATM   25  H   UNL     1     -11.551  12.040  66.513  1.00  0.00     0.000 HD 
HETATM   26  O   UNL     1     -11.920  11.416  67.128  1.00  0.00    -0.532 OA 
BRANCH  24  27
HETATM   27  C   UNL     1     -10.764  12.585  68.920  1.00  0.00    -0.165 C  
BRANCH  27  28
HETATM   28  O   UNL     1     -11.466  13.655  68.264  1.00  0.00    -0.274 OA 
BRANCH  28  29
HETATM   29  C   UNL     1     -10.661  14.491  67.532  1.00  0.00    -0.276 A  
HETATM   30  C   UNL     1     -11.126  15.363  66.544  1.00  0.00    -0.227 A  
HETATM   31  C   UNL     1     -10.234  16.189  65.856  1.00  0.00    -0.381 A  
HETATM   32  C   UNL     1      -8.875  16.154  66.159  1.00  0.00    -0.367 A  
HETATM   33  C   UNL     1      -8.391  15.298  67.156  1.00  0.00    -0.244 A  
HETATM   34  C   UNL     1      -6.919  15.258  67.484  1.00  0.00    -0.196 C  
HETATM   35  C   UNL     1      -9.299  14.476  67.848  1.00  0.00    -0.201 A  
HETATM   36  F   UNL     1      -6.166  16.080  66.696  1.00  0.00    -0.071 F  
HETATM   37  F   UNL     1      -6.383  14.015  67.336  1.00  0.00    -0.174 F  
HETATM   38  F   UNL     1      -6.654  15.633  68.766  1.00  0.00    -0.103 F  
ENDBRANCH  28  29
ENDBRANCH  27  28
ENDBRANCH  24  27
ENDBRANCH  23  24
ENDBRANCH  20  22
ENDBRANCH  12  13
ENDBRANCH  11  12
ENDBRANCH   9  10
ENDBRANCH   8   9
ENDBRANCH   7   8
ENDBRANCH   5   7
ENDBRANCH   4   5
ENDBRANCH   2   4
TORSDOF 13
ENDMDL
MODEL      303
REMARK 921   NORMALIZED FREE ENERGY PREDICTED BY IDOCK:   -4.25 KCAL/MOL
REMARK 922        TOTAL FREE ENERGY PREDICTED BY IDOCK:   -9.71 KCAL/MOL
REMARK 923 INTER-LIGAND FREE ENERGY PREDICTED BY IDOCK:   -8.00 KCAL/MOL
REMARK 924 INTRA-LIGAND FREE ENERGY PREDICTED BY IDOCK:   -1.71 KCAL/MOL
REMARK 927      BINDING AFFINITY PREDICTED BY RF-SCORE:    0.00 PKD
ROOT
HETATM    1  C   UNL     1     -11.186  10.665  69.206  1.00  0.00    -0.332 C  
HETATM    2  C   UNL     1     -10.858   9.301  69.804  1.00  0.00    -0.224 C  
HETATM    3  C   UNL     1      -9.571   9.366  70.620  1.00  0.00    -0.331 C  
ENDROOT
BRANCH   2   4
HETATM    4  O   UNL     1     -11.916   8.905  70.695  1.00  0.00    -0.210 OA 
BRANCH   4   5
HETATM    5  C   UNL     1     -11.893   7.594  71.068  1.00  0.00    -0.285 C  
HETATM    6  O   UNL     1     -11.992   7.190  72.218  1.00  0.00    -0.280 OA 
BRANCH   5   7
HETATM    7  C   UNL     1     -11.667   6.714  69.867  1.00  0.00    -0.333 C  
BRANCH   7   8
HETATM    8  C   UNL     1     -10.452   5.817  70.102  1.00  0.00    -0.348 C  
BRANCH   8   9
HETATM    9  C   UNL     1      -9.599   5.606  68.855  1.00  0.00    -0.168 C  
BRANCH   9  10
HETATM   10  C   UNL     1      -8.354   6.452  68.851  1.00  0.00    -0.121 C  
HETATM   11  C   UNL     1      -8.025   7.364  67.923  1.00  0.00    -0.119 C  
BRANCH  11  12
HETATM   12  C   UNL     1      -8.800   7.661  66.669  1.00  0.00    -0.159 C  
BRANCH  12  13
HETATM   13  C   UNL     1      -8.136   8.730  65.790  1.00  0.00    -0.109 C  
HETATM   14  C   UNL     1      -6.721   8.398  65.303  1.00  0.00    -0.056 C  
HETATM   15  O   UNL     1      -6.588   7.021  64.968  1.00  0.00    -0.045 OA 
HETATM   16  C   UNL     1      -6.567   9.224  64.031  1.00  0.00    -0.091 C  
HETATM   17  C   UNL     1      -7.931   9.109  63.357  1.00  0.00    -0.148 C  
HETATM   18  H   UNL     1      -5.711   6.815  64.665  1.00  0.00     0.000 HD 
HETATM   19  O   UNL     1      -7.973   7.924  62.554  1.00  0.00    -0.137 OA 
HETATM   20  C   UNL     1      -8.966   8.998  64.503  1.00  0.00    -0.069 C  
HETATM   21  H   UNL     1      -8.823   7.852  62.134  1.00  0.00     0.000 HD 
BRANCH  20  22
HETATM   22  C   UNL     1      -9.878  10.191  64.728  1.00  0.00    -0.382 C  
HETATM   23  C   UNL     1     -10.457  10.946  63.776  1.00  0.00    -0.329 C  
BRANCH  23  24
HETATM   24  C   UNL     1     -11.322  12.170  63.984  1.00  0.00    -0.395 C  
HETATM   25  H   UNL     1     -13.017  12.858  63.280  1.00  0.00     0.000 HD 
HETATM   26  O   UNL     1     -12.474  12.089  63.150  1.00  0.00    -0.503 OA 
BRANCH  24  27
HETATM   27  C   UNL     1     -11.745  12.284  65.462  1.00  0.00    -0.377 C  
BRANCH  27  28
HETATM   28  O   UNL     1     -12.561  13.446  65.682  1.00  0.00    -0.466 OA 
BRANCH  28  29
HETATM   29  C   UNL     1     -11.887  14.637  65.567  1.00  0.00    -0.292 A  
HETATM   30  C   UNL     1     -11.835  15.400  64.398  1.00  0.00    -0.260 A  
HETATM   31  C   UNL     1     -11.135  16.609  64.376  1.00  0.00     0.271 A  
HETATM   32  C   UNL     1     -10.490  17.063  65.524  1.00  0.00    -0.181 A  
HETATM   33  C   UNL     1     -10.542  16.320  66.709  1.00  0.00    -0.257 A  
HETATM   34  C   UNL     1      -9.843  16.810  67.953  1.00  0.00    -0.257 C  
HETATM   35  C   UNL     1     -11.258  15.109  66.723  1.00  0.00    -0.285 A  
HETATM   36  F   UNL     1      -9.158  17.975  67.765  1.00  0.00    -0.250 F  
HETATM   37  F   UNL     1      -8.929  15.918  68.426  1.00  0.00    -0.174 F  
HETATM   38  F   UNL     1     -10.703  17.050  68.981  1.00  0.00    -0.297 F  
ENDBRANCH  28  29
ENDBRANCH  27  28
ENDBRANCH  24  27
ENDBRANCH  23  24
ENDBRANCH  20  22
ENDBRANCH  12  13
ENDBRANCH  11  12
ENDBRANCH   9  10
ENDBRANCH   8   9
ENDBRANCH   7   8
ENDBRANCH   5   7
ENDBRANCH   4   5
ENDBRANCH   2   4
TORSDOF 13
ENDMDL
MODEL      304
REMARK 921   NORMALIZED FREE ENERGY PREDICTED BY IDOCK:   -4.22 KCAL/MOL
REMARK 922        TOTAL FREE ENERGY PREDICTED BY IDOCK:   -9.65 KCAL/MOL
REMARK 923 INTER-LIGAND FREE ENERGY PREDICTED BY IDOCK:   -6.98 KCAL/MOL
REMARK 924 INTRA-LIGAND FREE ENERGY PREDICTED BY IDOCK:   -2.67 KCAL/MOL
REMARK 927      BINDING AFFINITY PREDICTED BY RF-SCORE:    0.00 PKD
ROOT
HETATM    1  C   UNL     1     -12.359  10.563  71.002  1.00  0.00    -0.503 C  
HETATM    2  C   UNL     1     -11.117  10.530  70.119  1.00  0.00    -0.298 C  
HETATM    3  C   UNL     1      -9.971   9.812  70.824  1.00  0.00    -0.151 C  
ENDROOT
BRANCH   2   4
HETATM    4  O   UNL     1     -11.410   9.800  68.914  1.00  0.00    -0.092 OA 
BRANCH   4   5
HETATM    5  C   UNL     1     -11.247  10.507  67.760  1.00  0.00    -0.273 C  
HETATM    6  O   UNL     1     -11.916  11.477  67.431  1.00  0.00    -0.623 OA 
BRANCH   5   7
HETATM    7  C   UNL     1     -10.163   9.889  66.918  1.00  0.00    -0.302 C  
BRANCH   7   8
HETATM    8  C   UNL     1      -9.818   8.500  67.454  1.00  0.00    -0.244 C  
BRANCH   8   9
HETATM    9  C   UNL     1     -10.781   7.410  66.989  1.00  0.00    -0.389 C  
BRANCH   9  10
HETATM   10  C   UNL     1     -10.434   6.054  67.539  1.00  0.00    -0.302 C  
HETATM   11  C   UNL     1     -10.776   5.584  68.750  1.00  0.00    -0.195 C  
BRANCH  11  12
HETATM   12  C   UNL     1     -11.504   6.353  69.817  1.00  0.00    -0.468 C  
BRANCH  12  13
HETATM   13  C   UNL     1     -10.695   6.496  71.113  1.00  0.00    -0.285 C  
HETATM   14  C   UNL     1     -11.380   7.284  72.236  1.00  0.00    -0.272 C  
HETATM   15  O   UNL     1     -12.776   7.009  72.296  1.00  0.00    -0.518 OA 
HETATM   16  C   UNL     1     -10.726   6.757  73.508  1.00  0.00    -0.319 C  
HETATM   17  C   UNL     1     -10.588   5.260  73.251  1.00  0.00    -0.245 C  
HETATM   18  H   UNL     1     -13.201   7.498  72.992  1.00  0.00     0.000 HD 
HETATM   19  O   UNL     1     -11.798   4.593  73.625  1.00  0.00    -0.329 OA 
HETATM   20  C   UNL     1     -10.360   5.107  71.727  1.00  0.00    -0.274 C  
HETATM   21  H   UNL     1     -11.712   3.660  73.465  1.00  0.00     0.000 HD 
BRANCH  20  22
HETATM   22  C   UNL     1      -8.976   4.675  71.275  1.00  0.00    -0.164 C  
HETATM   23  C   UNL     1      -7.997   4.182  72.057  1.00  0.00    -0.085 C  
BRANCH  23  24
HETATM   24  C   UNL     1      -6.596   3.799  71.632  1.00  0.00    -0.019 C  
HETATM   25  H   UNL     1      -5.682   2.179  71.013  1.00  0.00     0.000 HD 
HETATM   26  O   UNL     1      -6.562   2.419  71.280  1.00  0.00    -0.022 OA 
BRANCH  24  27
HETATM   27  C   UNL     1      -6.144   4.662  70.436  1.00  0.00    -0.021 C  
BRANCH  27  28
HETATM   28  O   UNL     1      -7.033   4.507  69.318  1.00  0.00    -0.048 OA 
BRANCH  28  29
HETATM   29  C   UNL     1      -6.847   5.429  68.318  1.00  0.00    -0.060 A  
HETATM   30  C   UNL     1      -6.865   5.124  66.955  1.00  0.00    -0.063 A  
HETATM   31  C   UNL     1      -6.679   6.131  66.005  1.00  0.00    -0.052 A  
HETATM   32  C   UNL     1      -6.481   7.448  66.413  1.00  0.00    -0.048 A  
HETATM   33  C   UNL     1      -6.475   7.777  67.774  1.00  0.00    -0.052 A  
HETATM   34  C   UNL     1      -6.260   9.203  68.217  1.00  0.00    -0.054 C  
HETATM   35  C   UNL     1      -6.672   6.756  68.722  1.00  0.00    -0.056 A  
HETATM   36  F   UNL     1      -6.040  10.064  67.182  1.00  0.00    -0.052 F  
HETATM   37  F   UNL     1      -5.185   9.338  69.043  1.00  0.00    -0.035 F  
HETATM   38  F   UNL     1      -7.324   9.709  68.898  1.00  0.00    -0.068 F  
ENDBRANCH  28  29
ENDBRANCH  27  28
ENDBRANCH  24  27
ENDBRANCH  23  24
ENDBRANCH  20  22
ENDBRANCH  12  13
ENDBRANCH  11  12
ENDBRANCH   9  10
ENDBRANCH   8   9
ENDBRANCH   7   8
ENDBRANCH   5   7
ENDBRANCH   4   5
ENDBRANCH   2   4
TORSDOF 13
ENDMDL
MODEL      305
REMARK 921   NORMALIZED FREE ENERGY PREDICTED BY IDOCK:   -4.22 KCAL/MOL
REMARK 922        TOTAL FREE ENERGY PREDICTED BY IDOCK:   -9.65 KCAL/MOL
REMARK 923 INTER-LIGAND FREE ENERGY PREDICTED BY IDOCK:   -7.87 KCAL/MOL
REMARK 924 INTRA-LIGAND FREE ENERGY PREDICTED BY IDOCK:   -1.78 KCAL/MOL
REMARK 927      BINDING AFFINITY PREDICTED BY RF-SCORE:    0.00 PKD
ROOT
HETATM    1  C   UNL     1      -5.964  10.927  66.176  1.00  0.00    -0.141 C  
HETATM    2  C   UNL     1      -7.266  10.179  66.442  1.00  0.00    -0.108 C  
HETATM    3  C   UNL     1      -7.111   8.696  66.123  1.00  0.00    -0.084 C  
ENDROOT
BRANCH   2   4
HETATM    4  O   UNL     1      -7.601  10.290  67.837  1.00  0.00    -0.088 OA 
BRANCH   4   5
HETATM    5  C   UNL     1      -7.537  11.554  68.344  1.00  0.00    -0.125 C  
HETATM    6  O   UNL     1      -6.666  11.965  69.098  1.00  0.00    -0.094 OA 
BRANCH   5   7
HETATM    7  C   UNL     1      -8.727  12.358  67.891  1.00  0.00    -0.175 C  
BRANCH   7   8
HETATM    8  C   UNL     1      -8.533  13.828  68.265  1.00  0.00    -0.173 C  
BRANCH   8   9
HETATM    9  C   UNL     1      -8.937  14.797  67.158  1.00  0.00    -0.239 C  
BRANCH   9  10
HETATM   10  C   UNL     1     -10.376  15.227  67.256  1.00  0.00    -0.264 C  
HETATM   11  C   UNL     1     -11.009  15.610  68.376  1.00  0.00    -0.308 C  
BRANCH  11  12
HETATM   12  C   UNL     1     -10.422  15.609  69.761  1.00  0.00    -0.312 C  
BRANCH  12  13
HETATM   13  C   UNL     1     -11.215  14.745  70.750  1.00  0.00    -0.154 C  
HETATM   14  C   UNL     1     -11.517  15.399  72.104  1.00  0.00    -0.433 C  
HETATM   15  O   UNL     1     -11.824  16.782  71.964  1.00  0.00    -0.608 OA 
HETATM   16  C   UNL     1     -12.763  14.672  72.595  1.00  0.00    -0.464 C  
HETATM   17  C   UNL     1     -13.605  14.504  71.334  1.00  0.00    -0.381 C  
HETATM   18  H   UNL     1     -12.011  17.187  72.804  1.00  0.00     0.000 HD 
HETATM   19  O   UNL     1     -14.400  15.676  71.125  1.00  0.00    -0.734 OA 
HETATM   20  C   UNL     1     -12.600  14.343  70.167  1.00  0.00    -0.340 C  
HETATM   21  H   UNL     1     -14.924  15.572  70.340  1.00  0.00     0.000 HD 
BRANCH  20  22
HETATM   22  C   UNL     1     -12.499  12.971  69.525  1.00  0.00     0.103 C  
HETATM   23  C   UNL     1     -11.973  11.864  70.082  1.00  0.00    -0.413 C  
BRANCH  23  24
HETATM   24  C   UNL     1     -11.814  10.505  69.436  1.00  0.00    -0.199 C  
HETATM   25  H   UNL     1     -11.564   9.805  67.622  1.00  0.00     0.000 HD 
HETATM   26  O   UNL     1     -11.663  10.658  68.028  1.00  0.00    -0.495 OA 
BRANCH  24  27
HETATM   27  C   UNL     1     -10.591   9.772  70.023  1.00  0.00    -0.276 C  
BRANCH  27  28
HETATM   28  O   UNL     1     -10.066   8.810  69.093  1.00  0.00    -0.187 OA 
BRANCH  28  29
HETATM   29  C   UNL     1      -9.670   7.629  69.668  1.00  0.00    -0.171 A  
HETATM   30  C   UNL     1      -9.937   7.271  70.992  1.00  0.00    -0.188 A  
HETATM   31  C   UNL     1      -9.506   6.040  71.491  1.00  0.00    -0.164 A  
HETATM   32  C   UNL     1      -8.812   5.157  70.666  1.00  0.00    -0.150 A  
HETATM   33  C   UNL     1      -8.548   5.490  69.332  1.00  0.00    -0.104 A  
HETATM   34  C   UNL     1      -7.796   4.535  68.438  1.00  0.00    -0.079 C  
HETATM   35  C   UNL     1      -8.994   6.729  68.838  1.00  0.00    -0.131 A  
HETATM   36  F   UNL     1      -7.393   3.398  69.077  1.00  0.00    -0.048 F  
HETATM   37  F   UNL     1      -6.663   5.085  67.919  1.00  0.00    -0.045 F  
HETATM   38  F   UNL     1      -8.534   4.118  67.374  1.00  0.00    -0.098 F  
ENDBRANCH  28  29
ENDBRANCH  27  28
ENDBRANCH  24  27
ENDBRANCH  23  24
ENDBRANCH  20  22
ENDBRANCH  12  13
ENDBRANCH  11  12
ENDBRANCH   9  10
ENDBRANCH   8   9
ENDBRANCH   7   8
ENDBRANCH   5   7
ENDBRANCH   4   5
ENDBRANCH   2   4
TORSDOF 13
ENDMDL
MODEL      306
REMARK 921   NORMALIZED FREE ENERGY PREDICTED BY IDOCK:   -4.22 KCAL/MOL
REMARK 922        TOTAL FREE ENERGY PREDICTED BY IDOCK:   -9.64 KCAL/MOL
REMARK 923 INTER-LIGAND FREE ENERGY PREDICTED BY IDOCK:   -7.38 KCAL/MOL
REMARK 924 INTRA-LIGAND FREE ENERGY PREDICTED BY IDOCK:   -2.26 KCAL/MOL
REMARK 927      BINDING AFFINITY PREDICTED BY RF-SCORE:    0.00 PKD
ROOT
HETATM    1  C   UNL     1     -10.002   4.607  70.000  1.00  0.00    -0.302 C  
HETATM    2  C   UNL     1     -10.060   5.960  70.699  1.00  0.00    -0.197 C  
HETATM    3  C   UNL     1      -8.731   6.696  70.562  1.00  0.00    -0.144 C  
ENDROOT
BRANCH   2   4
HETATM    4  O   UNL     1     -11.072   6.773  70.078  1.00  0.00    -0.270 OA 
BRANCH   4   5
HETATM    5  C   UNL     1     -11.925   7.390  70.944  1.00  0.00    -0.277 C  
HETATM    6  O   UNL     1     -12.856   6.845  71.520  1.00  0.00    -0.374 OA 
BRANCH   5   7
HETATM    7  C   UNL     1     -11.595   8.856  71.047  1.00  0.00    -0.347 C  
BRANCH   7   8
HETATM    8  C   UNL     1     -12.770   9.610  71.669  1.00  0.00    -0.499 C  
BRANCH   8   9
HETATM    9  C   UNL     1     -13.160  10.870  70.903  1.00  0.00    -0.237 C  
BRANCH   9  10
HETATM   10  C   UNL     1     -11.992  11.785  70.652  1.00  0.00    -0.320 C  
HETATM   11  C   UNL     1     -11.633  12.297  69.465  1.00  0.00    -0.366 C  
BRANCH  11  12
HETATM   12  C   UNL     1     -12.284  11.991  68.144  1.00  0.00     0.211 C  
BRANCH  12  13
HETATM   13  C   UNL     1     -11.420  12.389  66.940  1.00  0.00    -0.423 C  
HETATM   14  C   UNL     1     -11.672  13.795  66.383  1.00  0.00    -0.379 C  
HETATM   15  O   UNL     1     -11.921  14.737  67.421  1.00  0.00    -0.460 OA 
HETATM   16  C   UNL     1     -10.359  14.161  65.700  1.00  0.00    -0.348 C  
HETATM   17  C   UNL     1      -9.294  13.616  66.646  1.00  0.00    -0.254 C  
HETATM   18  H   UNL     1     -12.077  15.609  67.075  1.00  0.00     0.000 HD 
HETATM   19  O   UNL     1      -9.009  14.585  67.660  1.00  0.00    -0.180 OA 
HETATM   20  C   UNL     1      -9.906  12.349  67.293  1.00  0.00    -0.207 C  
HETATM   21  H   UNL     1      -8.346  14.245  68.250  1.00  0.00     0.000 HD 
BRANCH  20  22
HETATM   22  C   UNL     1      -9.325  11.010  66.876  1.00  0.00    -0.189 C  
HETATM   23  C   UNL     1      -8.296  10.813  66.030  1.00  0.00    -0.163 C  
BRANCH  23  24
HETATM   24  C   UNL     1      -7.742   9.485  65.561  1.00  0.00    -0.105 C  
HETATM   25  H   UNL     1      -6.298   8.875  64.384  1.00  0.00     0.000 HD 
HETATM   26  O   UNL     1      -6.646   9.708  64.679  1.00  0.00    -0.089 OA 
BRANCH  24  27
HETATM   27  C   UNL     1      -7.288   8.638  66.767  1.00  0.00    -0.079 C  
BRANCH  27  28
HETATM   28  O   UNL     1      -8.412   8.054  67.444  1.00  0.00    -0.124 OA 
BRANCH  28  29
HETATM   29  C   UNL     1      -8.834   6.862  66.911  1.00  0.00    -0.120 A  
HETATM   30  C   UNL     1     -10.174   6.476  66.810  1.00  0.00    -0.257 A  
HETATM   31  C   UNL     1     -10.512   5.247  66.239  1.00  0.00    -0.311 A  
HETATM   32  C   UNL     1      -9.515   4.402  65.758  1.00  0.00    -0.174 A  
HETATM   33  C   UNL     1      -8.168   4.776  65.836  1.00  0.00    -0.112 A  
HETATM   34  C   UNL     1      -7.086   3.861  65.317  1.00  0.00    -0.063 C  
HETATM   35  C   UNL     1      -7.838   6.020  66.405  1.00  0.00    -0.104 A  
HETATM   36  F   UNL     1      -7.564   2.677  64.837  1.00  0.00    -0.067 F  
HETATM   37  F   UNL     1      -6.177   3.530  66.275  1.00  0.00    -0.028 F  
HETATM   38  F   UNL     1      -6.375   4.412  64.297  1.00  0.00    -0.027 F  
ENDBRANCH  28  29
ENDBRANCH  27  28
ENDBRANCH  24  27
ENDBRANCH  23  24
ENDBRANCH  20  22
ENDBRANCH  12  13
ENDBRANCH  11  12
ENDBRANCH   9  10
ENDBRANCH   8   9
ENDBRANCH   7   8
ENDBRANCH   5   7
ENDBRANCH   4   5
ENDBRANCH   2   4
TORSDOF 13
ENDMDL
MODEL      307
REMARK 921   NORMALIZED FREE ENERGY PREDICTED BY IDOCK:   -4.22 KCAL/MOL
REMARK 922        TOTAL FREE ENERGY PREDICTED BY IDOCK:   -9.64 KCAL/MOL
REMARK 923 INTER-LIGAND FREE ENERGY PREDICTED BY IDOCK:   -8.06 KCAL/MOL
REMARK 924 INTRA-LIGAND FREE ENERGY PREDICTED BY IDOCK:   -1.59 KCAL/MOL
REMARK 927      BINDING AFFINITY PREDICTED BY RF-SCORE:    0.00 PKD
ROOT
HETATM    1  C   UNL     1     -12.365  15.099  68.752  1.00  0.00     0.027 C  
HETATM    2  C   UNL     1     -11.642  14.963  67.416  1.00  0.00    -0.332 C  
HETATM    3  C   UNL     1     -10.130  14.982  67.616  1.00  0.00    -0.231 C  
ENDROOT
BRANCH   2   4
HETATM    4  O   UNL     1     -11.985  13.701  66.817  1.00  0.00    -0.383 OA 
BRANCH   4   5
HETATM    5  C   UNL     1     -12.423  13.777  65.528  1.00  0.00    -0.512 C  
HETATM    6  O   UNL     1     -12.843  14.792  64.989  1.00  0.00    -0.359 OA 
BRANCH   5   7
HETATM    7  C   UNL     1     -12.374  12.420  64.879  1.00  0.00    -0.475 C  
BRANCH   7   8
HETATM    8  C   UNL     1     -11.066  11.717  65.243  1.00  0.00    -0.298 C  
BRANCH   8   9
HETATM    9  C   UNL     1      -9.873  12.178  64.411  1.00  0.00    -0.154 C  
BRANCH   9  10
HETATM   10  C   UNL     1      -9.895  11.633  63.009  1.00  0.00    -0.331 C  
HETATM   11  C   UNL     1      -9.039  10.733  62.501  1.00  0.00    -0.344 C  
BRANCH  11  12
HETATM   12  C   UNL     1      -7.847  10.155  63.212  1.00  0.00    -0.155 C  
BRANCH  12  13
HETATM   13  C   UNL     1      -8.152   8.828  63.919  1.00  0.00    -0.165 C  
HETATM   14  C   UNL     1      -7.627   7.570  63.217  1.00  0.00    -0.118 C  
HETATM   15  O   UNL     1      -6.345   7.787  62.636  1.00  0.00    -0.073 OA 
HETATM   16  C   UNL     1      -7.484   6.553  64.343  1.00  0.00    -0.091 C  
HETATM   17  C   UNL     1      -6.937   7.374  65.506  1.00  0.00    -0.060 C  
HETATM   18  H   UNL     1      -6.020   7.007  62.201  1.00  0.00     0.000 HD 
HETATM   19  O   UNL     1      -5.510   7.443  65.419  1.00  0.00    -0.028 OA 
HETATM   20  C   UNL     1      -7.537   8.793  65.347  1.00  0.00    -0.087 C  
HETATM   21  H   UNL     1      -5.169   7.955  66.143  1.00  0.00     0.000 HD 
BRANCH  20  22
HETATM   22  C   UNL     1      -8.585   9.218  66.360  1.00  0.00    -0.141 C  
HETATM   23  C   UNL     1      -8.354   9.743  67.577  1.00  0.00    -0.114 C  
BRANCH  23  24
HETATM   24  C   UNL     1      -9.385  10.120  68.619  1.00  0.00    -0.161 C  
HETATM   25  H   UNL     1     -10.087  11.773  69.403  1.00  0.00     0.000 HD 
HETATM   26  O   UNL     1      -9.440  11.537  68.748  1.00  0.00    -0.175 OA 
BRANCH  24  27
HETATM   27  C   UNL     1     -10.770   9.569  68.226  1.00  0.00    -0.194 C  
BRANCH  27  28
HETATM   28  O   UNL     1     -10.708   8.162  67.940  1.00  0.00    -0.177 OA 
BRANCH  28  29
HETATM   29  C   UNL     1     -10.726   7.360  69.054  1.00  0.00    -0.148 A  
HETATM   30  C   UNL     1     -10.647   5.965  69.020  1.00  0.00    -0.360 A  
HETATM   31  C   UNL     1     -10.659   5.229  70.207  1.00  0.00    -0.288 A  
HETATM   32  C   UNL     1     -10.741   5.884  71.433  1.00  0.00    -0.319 A  
HETATM   33  C   UNL     1     -10.806   7.281  71.490  1.00  0.00    -0.248 A  
HETATM   34  C   UNL     1     -10.896   7.991  72.818  1.00  0.00    -0.369 C  
HETATM   35  C   UNL     1     -10.785   8.014  70.289  1.00  0.00    -0.239 A  
HETATM   36  F   UNL     1     -10.951   7.141  73.884  1.00  0.00    -0.358 F  
HETATM   37  F   UNL     1     -12.004   8.777  72.917  1.00  0.00    -0.355 F  
HETATM   38  F   UNL     1      -9.833   8.808  73.053  1.00  0.00    -0.242 F  
ENDBRANCH  28  29
ENDBRANCH  27  28
ENDBRANCH  24  27
ENDBRANCH  23  24
ENDBRANCH  20  22
ENDBRANCH  12  13
ENDBRANCH  11  12
ENDBRANCH   9  10
ENDBRANCH   8   9
ENDBRANCH   7   8
ENDBRANCH   5   7
ENDBRANCH   4   5
ENDBRANCH   2   4
TORSDOF 13
ENDMDL
MODEL      308
REMARK 921   NORMALIZED FREE ENERGY PREDICTED BY IDOCK:   -4.20 KCAL/MOL
REMARK 922        TOTAL FREE ENERGY PREDICTED BY IDOCK:   -9.62 KCAL/MOL
REMARK 923 INTER-LIGAND FREE ENERGY PREDICTED BY IDOCK:   -7.19 KCAL/MOL
REMARK 924 INTRA-LIGAND FREE ENERGY PREDICTED BY IDOCK:   -2.44 KCAL/MOL
REMARK 927      BINDING AFFINITY PREDICTED BY RF-SCORE:    0.00 PKD
ROOT
HETATM    1  C   UNL     1     -10.884   4.181  64.780  1.00  0.00    -0.118 C  
HETATM    2  C   UNL     1     -10.033   4.679  65.942  1.00  0.00    -0.239 C  
HETATM    3  C   UNL     1     -10.749   5.795  66.697  1.00  0.00    -0.333 C  
ENDROOT
BRANCH   2   4
HETATM    4  O   UNL     1      -9.815   3.600  66.868  1.00  0.00    -0.148 OA 
BRANCH   4   5
HETATM    5  C   UNL     1      -8.555   3.078  66.855  1.00  0.00    -0.113 C  
HETATM    6  O   UNL     1      -7.715   3.293  65.992  1.00  0.00    -0.079 OA 
BRANCH   5   7
HETATM    7  C   UNL     1      -8.362   2.150  68.025  1.00  0.00    -0.081 C  
BRANCH   7   8
HETATM    8  C   UNL     1      -7.405   2.781  69.036  1.00  0.00    -0.048 C  
BRANCH   8   9
HETATM    9  C   UNL     1      -7.952   2.809  70.460  1.00  0.00    -0.050 C  
BRANCH   9  10
HETATM   10  C   UNL     1      -9.412   3.171  70.516  1.00  0.00    -0.236 C  
HETATM   11  C   UNL     1      -9.928   4.395  70.325  1.00  0.00    -0.248 C  
BRANCH  11  12
HETATM   12  C   UNL     1      -9.139   5.655  70.095  1.00  0.00    -0.159 C  
BRANCH  12  13
HETATM   13  C   UNL     1      -8.798   6.397  71.394  1.00  0.00    -0.138 C  
HETATM   14  C   UNL     1      -7.367   6.202  71.908  1.00  0.00    -0.093 C  
HETATM   15  O   UNL     1      -6.423   6.165  70.842  1.00  0.00    -0.042 OA 
HETATM   16  C   UNL     1      -7.104   7.448  72.746  1.00  0.00    -0.071 C  
HETATM   17  C   UNL     1      -7.754   8.569  71.942  1.00  0.00    -0.104 C  
HETATM   18  H   UNL     1      -5.536   6.045  71.162  1.00  0.00     0.000 HD 
HETATM   19  O   UNL     1      -6.830   9.060  70.965  1.00  0.00    -0.075 OA 
HETATM   20  C   UNL     1      -8.974   7.933  71.231  1.00  0.00    -0.155 C  
HETATM   21  H   UNL     1      -7.236   9.758  70.464  1.00  0.00     0.000 HD 
BRANCH  20  22
HETATM   22  C   UNL     1     -10.351   8.339  71.724  1.00  0.00    -0.321 C  
HETATM   23  C   UNL     1     -11.518   8.151  71.081  1.00  0.00    -0.304 C  
BRANCH  23  24
HETATM   24  C   UNL     1     -12.892   8.600  71.532  1.00  0.00    -0.319 C  
HETATM   25  H   UNL     1     -13.763   9.045  73.230  1.00  0.00     0.000 HD 
HETATM   26  O   UNL     1     -12.901   8.764  72.947  1.00  0.00    -0.313 OA 
BRANCH  24  27
HETATM   27  C   UNL     1     -13.276   9.925  70.843  1.00  0.00    -0.244 C  
BRANCH  27  28
HETATM   28  O   UNL     1     -12.359  10.976  71.190  1.00  0.00    -0.361 OA 
BRANCH  28  29
HETATM   29  C   UNL     1     -12.049  11.819  70.152  1.00  0.00    -0.317 A  
HETATM   30  C   UNL     1     -12.369  13.179  70.122  1.00  0.00    -0.284 A  
HETATM   31  C   UNL     1     -12.001  13.965  69.027  1.00  0.00    -0.402 A  
HETATM   32  C   UNL     1     -11.306  13.397  67.962  1.00  0.00    -0.320 A  
HETATM   33  C   UNL     1     -10.964  12.040  67.980  1.00  0.00    -0.267 A  
HETATM   34  C   UNL     1     -10.212  11.423  66.826  1.00  0.00    -0.223 C  
HETATM   35  C   UNL     1     -11.331  11.259  69.091  1.00  0.00    -0.349 A  
HETATM   36  F   UNL     1      -9.970  12.299  65.808  1.00  0.00    -0.241 F  
HETATM   37  F   UNL     1     -10.883  10.381  66.262  1.00  0.00    -0.254 F  
HETATM   38  F   UNL     1      -8.995  10.936  67.190  1.00  0.00    -0.136 F  
ENDBRANCH  28  29
ENDBRANCH  27  28
ENDBRANCH  24  27
ENDBRANCH  23  24
ENDBRANCH  20  22
ENDBRANCH  12  13
ENDBRANCH  11  12
ENDBRANCH   9  10
ENDBRANCH   8   9
ENDBRANCH   7   8
ENDBRANCH   5   7
ENDBRANCH   4   5
ENDBRANCH   2   4
TORSDOF 13
ENDMDL
MODEL      309
REMARK 921   NORMALIZED FREE ENERGY PREDICTED BY IDOCK:   -4.20 KCAL/MOL
REMARK 922        TOTAL FREE ENERGY PREDICTED BY IDOCK:   -9.62 KCAL/MOL
REMARK 923 INTER-LIGAND FREE ENERGY PREDICTED BY IDOCK:   -7.28 KCAL/MOL
REMARK 924 INTRA-LIGAND FREE ENERGY PREDICTED BY IDOCK:   -2.34 KCAL/MOL
REMARK 927      BINDING AFFINITY PREDICTED BY RF-SCORE:    0.00 PKD
ROOT
HETATM    1  C   UNL     1     -11.514   6.672  72.524  1.00  0.00    -0.269 C  
HETATM    2  C   UNL     1     -10.251   7.016  73.306  1.00  0.00    -0.275 C  
HETATM    3  C   UNL     1     -10.055   6.048  74.469  1.00  0.00    -0.328 C  
ENDROOT
BRANCH   2   4
HETATM    4  O   UNL     1      -9.108   6.892  72.441  1.00  0.00    -0.134 OA 
BRANCH   4   5
HETATM    5  C   UNL     1      -8.812   8.009  71.718  1.00  0.00    -0.140 C  
HETATM    6  O   UNL     1      -8.696   9.135  72.181  1.00  0.00    -0.306 OA 
BRANCH   5   7
HETATM    7  C   UNL     1      -8.705   7.670  70.254  1.00  0.00    -0.144 C  
BRANCH   7   8
HETATM    8  C   UNL     1      -9.845   8.335  69.483  1.00  0.00    -0.181 C  
BRANCH   8   9
HETATM    9  C   UNL     1     -10.747   7.345  68.753  1.00  0.00    -0.145 C  
BRANCH   9  10
HETATM   10  C   UNL     1     -10.126   5.981  68.618  1.00  0.00    -0.208 C  
HETATM   11  C   UNL     1      -9.483   5.512  67.537  1.00  0.00    -0.123 C  
BRANCH  11  12
HETATM   12  C   UNL     1      -9.328   6.232  66.226  1.00  0.00    -0.155 C  
BRANCH  12  13
HETATM   13  C   UNL     1      -8.295   7.365  66.281  1.00  0.00    -0.132 C  
HETATM   14  C   UNL     1      -6.827   6.923  66.243  1.00  0.00    -0.064 C  
HETATM   15  O   UNL     1      -6.630   5.824  65.359  1.00  0.00    -0.041 OA 
HETATM   16  C   UNL     1      -6.091   8.134  65.683  1.00  0.00    -0.041 C  
HETATM   17  C   UNL     1      -7.027   8.656  64.597  1.00  0.00    -0.073 C  
HETATM   18  H   UNL     1      -5.720   5.551  65.335  1.00  0.00     0.000 HD 
HETATM   19  O   UNL     1      -6.774   7.965  63.369  1.00  0.00    -0.072 OA 
HETATM   20  C   UNL     1      -8.463   8.343  65.084  1.00  0.00    -0.179 C  
HETATM   21  H   UNL     1      -7.357   8.290  62.693  1.00  0.00     0.000 HD 
BRANCH  20  22
HETATM   22  C   UNL     1      -9.321   9.521  65.510  1.00  0.00    -0.317 C  
HETATM   23  C   UNL     1      -9.886  10.434  64.698  1.00  0.00    -0.405 C  
BRANCH  23  24
HETATM   24  C   UNL     1     -10.696  11.645  65.110  1.00  0.00    -0.296 C  
HETATM   25  H   UNL     1     -12.282  12.592  64.456  1.00  0.00     0.000 HD 
HETATM   26  O   UNL     1     -11.774  11.832  64.198  1.00  0.00    -0.344 OA 
BRANCH  24  27
HETATM   27  C   UNL     1     -11.238  11.465  66.542  1.00  0.00    -0.209 C  
BRANCH  27  28
HETATM   28  O   UNL     1     -10.531  12.299  67.474  1.00  0.00    -0.210 OA 
BRANCH  28  29
HETATM   29  C   UNL     1     -11.225  12.567  68.628  1.00  0.00    -0.278 A  
HETATM   30  C   UNL     1     -12.015  11.635  69.304  1.00  0.00    -0.382 A  
HETATM   31  C   UNL     1     -12.677  11.993  70.482  1.00  0.00    -0.082 A  
HETATM   32  C   UNL     1     -12.544  13.283  70.992  1.00  0.00    -0.408 A  
HETATM   33  C   UNL     1     -11.745  14.227  70.337  1.00  0.00    -0.329 A  
HETATM   34  C   UNL     1     -11.602  15.625  70.888  1.00  0.00    -0.389 C  
HETATM   35  C   UNL     1     -11.077  13.854  69.157  1.00  0.00    -0.284 A  
HETATM   36  F   UNL     1     -12.346  15.843  72.010  1.00  0.00    -0.390 F  
HETATM   37  F   UNL     1     -11.989  16.580  69.998  1.00  0.00    -0.103 F  
HETATM   38  F   UNL     1     -10.320  15.927  71.231  1.00  0.00     0.152 F  
ENDBRANCH  28  29
ENDBRANCH  27  28
ENDBRANCH  24  27
ENDBRANCH  23  24
ENDBRANCH  20  22
ENDBRANCH  12  13
ENDBRANCH  11  12
ENDBRANCH   9  10
ENDBRANCH   8   9
ENDBRANCH   7   8
ENDBRANCH   5   7
ENDBRANCH   4   5
ENDBRANCH   2   4
TORSDOF 13
ENDMDL
MODEL      310
REMARK 921   NORMALIZED FREE ENERGY PREDICTED BY IDOCK:   -4.20 KCAL/MOL
REMARK 922        TOTAL FREE ENERGY PREDICTED BY IDOCK:   -9.61 KCAL/MOL
REMARK 923 INTER-LIGAND FREE ENERGY PREDICTED BY IDOCK:   -6.92 KCAL/MOL
REMARK 924 INTRA-LIGAND FREE ENERGY PREDICTED BY IDOCK:   -2.69 KCAL/MOL
REMARK 927      BINDING AFFINITY PREDICTED BY RF-SCORE:    0.00 PKD
ROOT
HETATM    1  C   UNL     1     -11.478  13.156  63.262  1.00  0.00    -0.034 C  
HETATM    2  C   UNL     1     -11.140  12.461  64.577  1.00  0.00    -0.316 C  
HETATM    3  C   UNL     1     -12.283  12.610  65.575  1.00  0.00    -0.501 C  
ENDROOT
BRANCH   2   4
HETATM    4  O   UNL     1     -10.953  11.055  64.336  1.00  0.00    -0.293 OA 
BRANCH   4   5
HETATM    5  C   UNL     1      -9.761  10.552  64.766  1.00  0.00    -0.305 C  
HETATM    6  O   UNL     1      -8.669  10.836  64.292  1.00  0.00    -0.161 OA 
BRANCH   5   7
HETATM    7  C   UNL     1      -9.983   9.551  65.868  1.00  0.00    -0.342 C  
BRANCH   7   8
HETATM    8  C   UNL     1      -8.655   9.234  66.556  1.00  0.00    -0.139 C  
BRANCH   8   9
HETATM    9  C   UNL     1      -8.000   7.950  66.054  1.00  0.00    -0.103 C  
BRANCH   9  10
HETATM   10  C   UNL     1      -8.995   6.853  65.790  1.00  0.00    -0.038 C  
HETATM   11  C   UNL     1      -9.166   5.749  66.534  1.00  0.00    -0.150 C  
BRANCH  11  12
HETATM   12  C   UNL     1      -8.343   5.360  67.731  1.00  0.00    -0.099 C  
BRANCH  12  13
HETATM   13  C   UNL     1      -9.193   5.047  68.970  1.00  0.00    -0.157 C  
HETATM   14  C   UNL     1      -9.370   3.558  69.290  1.00  0.00    -0.172 C  
HETATM   15  O   UNL     1      -8.178   2.820  69.041  1.00  0.00    -0.054 OA 
HETATM   16  C   UNL     1      -9.652   3.534  70.787  1.00  0.00    -0.246 C  
HETATM   17  C   UNL     1      -8.710   4.593  71.351  1.00  0.00    -0.119 C  
HETATM   18  H   UNL     1      -8.288   1.897  69.240  1.00  0.00     0.000 HD 
HETATM   19  O   UNL     1      -7.428   4.009  71.607  1.00  0.00    -0.056 OA 
HETATM   20  C   UNL     1      -8.578   5.675  70.252  1.00  0.00    -0.131 C  
HETATM   21  H   UNL     1      -6.841   4.669  71.958  1.00  0.00     0.000 HD 
BRANCH  20  22
HETATM   22  C   UNL     1      -9.234   7.018  70.522  1.00  0.00    -0.159 C  
HETATM   23  C   UNL     1     -10.522   7.338  70.298  1.00  0.00    -0.231 C  
BRANCH  23  24
HETATM   24  C   UNL     1     -11.177   8.686  70.508  1.00  0.00    -0.241 C  
HETATM   25  H   UNL     1     -10.947  10.215  71.714  1.00  0.00     0.000 HD 
HETATM   26  O   UNL     1     -10.535   9.368  71.581  1.00  0.00    -0.325 OA 
BRANCH  24  27
HETATM   27  C   UNL     1     -11.095   9.529  69.220  1.00  0.00    -0.082 C  
BRANCH  27  28
HETATM   28  O   UNL     1     -10.177  10.624  69.373  1.00  0.00    -0.220 OA 
BRANCH  28  29
HETATM   29  C   UNL     1     -10.747  11.863  69.216  1.00  0.00    -0.045 A  
HETATM   30  C   UNL     1     -11.948  12.257  69.812  1.00  0.00    -0.365 A  
HETATM   31  C   UNL     1     -12.448  13.545  69.607  1.00  0.00    -0.107 A  
HETATM   32  C   UNL     1     -11.746  14.447  68.811  1.00  0.00    -0.372 A  
HETATM   33  C   UNL     1     -10.533  14.077  68.217  1.00  0.00    -0.245 A  
HETATM   34  C   UNL     1      -9.773  15.054  67.354  1.00  0.00    -0.216 C  
HETATM   35  C   UNL     1     -10.034  12.781  68.437  1.00  0.00    -0.210 A  
HETATM   36  F   UNL     1     -10.409  16.251  67.202  1.00  0.00    -0.263 F  
HETATM   37  F   UNL     1      -9.565  14.585  66.092  1.00  0.00    -0.281 F  
HETATM   38  F   UNL     1      -8.542  15.351  67.853  1.00  0.00    -0.149 F  
ENDBRANCH  28  29
ENDBRANCH  27  28
ENDBRANCH  24  27
ENDBRANCH  23  24
ENDBRANCH  20  22
ENDBRANCH  12  13
ENDBRANCH  11  12
ENDBRANCH   9  10
ENDBRANCH   8   9
ENDBRANCH   7   8
ENDBRANCH   5   7
ENDBRANCH   4   5
ENDBRANCH   2   4
TORSDOF 13
ENDMDL
MODEL      311
REMARK 921   NORMALIZED FREE ENERGY PREDICTED BY IDOCK:   -4.19 KCAL/MOL
REMARK 922        TOTAL FREE ENERGY PREDICTED BY IDOCK:   -9.60 KCAL/MOL
REMARK 923 INTER-LIGAND FREE ENERGY PREDICTED BY IDOCK:   -7.95 KCAL/MOL
REMARK 924 INTRA-LIGAND FREE ENERGY PREDICTED BY IDOCK:   -1.65 KCAL/MOL
REMARK 927      BINDING AFFINITY PREDICTED BY RF-SCORE:    0.00 PKD
ROOT
HETATM    1  C   UNL     1     -12.123  16.081  72.633  1.00  0.00    -0.640 C  
HETATM    2  C   UNL     1     -12.918  15.162  71.713  1.00  0.00    -0.367 C  
HETATM    3  C   UNL     1     -14.273  14.823  72.326  1.00  0.00    -0.562 C  
ENDROOT
BRANCH   2   4
HETATM    4  O   UNL     1     -13.164  15.835  70.465  1.00  0.00    -0.449 OA 
BRANCH   4   5
HETATM    5  C   UNL     1     -12.245  15.587  69.489  1.00  0.00    -0.236 C  
HETATM    6  O   UNL     1     -11.836  16.413  68.684  1.00  0.00    -0.178 OA 
BRANCH   5   7
HETATM    7  C   UNL     1     -11.848  14.135  69.501  1.00  0.00    -0.373 C  
BRANCH   7   8
HETATM    8  C   UNL     1     -10.341  14.007  69.277  1.00  0.00     0.018 C  
BRANCH   8   9
HETATM    9  C   UNL     1      -9.938  12.718  68.567  1.00  0.00    -0.168 C  
BRANCH   9  10
HETATM   10  C   UNL     1      -8.580  12.807  67.926  1.00  0.00    -0.181 C  
HETATM   11  C   UNL     1      -8.308  13.351  66.729  1.00  0.00     0.089 C  
BRANCH  11  12
HETATM   12  C   UNL     1      -9.320  13.907  65.767  1.00  0.00     0.106 C  
BRANCH  12  13
HETATM   13  C   UNL     1     -10.640  13.123  65.762  1.00  0.00    -0.293 C  
HETATM   14  C   UNL     1     -11.903  13.959  65.524  1.00  0.00    -0.362 C  
HETATM   15  O   UNL     1     -11.683  14.985  64.561  1.00  0.00    -0.522 OA 
HETATM   16  C   UNL     1     -12.902  12.961  64.950  1.00  0.00    -0.370 C  
HETATM   17  C   UNL     1     -12.058  12.100  64.015  1.00  0.00    -0.443 C  
HETATM   18  H   UNL     1     -12.467  15.502  64.414  1.00  0.00     0.000 HD 
HETATM   19  O   UNL     1     -11.977  12.723  62.729  1.00  0.00    -0.593 OA 
HETATM   20  C   UNL     1     -10.648  12.035  64.651  1.00  0.00    -0.351 C  
HETATM   21  H   UNL     1     -11.451  12.187  62.147  1.00  0.00     0.000 HD 
BRANCH  20  22
HETATM   22  C   UNL     1     -10.217  10.705  65.243  1.00  0.00    -0.351 C  
HETATM   23  C   UNL     1      -8.961  10.223  65.299  1.00  0.00    -0.214 C  
BRANCH  23  24
HETATM   24  C   UNL     1      -8.523   8.877  65.834  1.00  0.00    -0.136 C  
HETATM   25  H   UNL     1      -6.827   7.991  66.257  1.00  0.00     0.000 HD 
HETATM   26  O   UNL     1      -7.102   8.836  65.922  1.00  0.00    -0.081 OA 
BRANCH  24  27
HETATM   27  C   UNL     1      -9.147   8.623  67.221  1.00  0.00    -0.133 C  
BRANCH  27  28
HETATM   28  O   UNL     1      -8.831   9.686  68.136  1.00  0.00    -0.120 OA 
BRANCH  28  29
HETATM   29  C   UNL     1      -8.135   9.283  69.248  1.00  0.00    -0.106 A  
HETATM   30  C   UNL     1      -7.184  10.067  69.907  1.00  0.00    -0.145 A  
HETATM   31  C   UNL     1      -6.533   9.580  71.042  1.00  0.00    -0.071 A  
HETATM   32  C   UNL     1      -6.834   8.309  71.529  1.00  0.00    -0.066 A  
HETATM   33  C   UNL     1      -7.794   7.514  70.892  1.00  0.00    -0.094 A  
HETATM   34  C   UNL     1      -8.120   6.138  71.417  1.00  0.00    -0.118 C  
HETATM   35  C   UNL     1      -8.451   8.018  69.754  1.00  0.00    -0.127 A  
HETATM   36  F   UNL     1      -7.368   5.778  72.497  1.00  0.00    -0.086 F  
HETATM   37  F   UNL     1      -7.920   5.162  70.488  1.00  0.00    -0.081 F  
HETATM   38  F   UNL     1      -9.417   6.019  71.815  1.00  0.00    -0.151 F  
ENDBRANCH  28  29
ENDBRANCH  27  28
ENDBRANCH  24  27
ENDBRANCH  23  24
ENDBRANCH  20  22
ENDBRANCH  12  13
ENDBRANCH  11  12
ENDBRANCH   9  10
ENDBRANCH   8   9
ENDBRANCH   7   8
ENDBRANCH   5   7
ENDBRANCH   4   5
ENDBRANCH   2   4
TORSDOF 13
ENDMDL
MODEL      312
REMARK 921   NORMALIZED FREE ENERGY PREDICTED BY IDOCK:   -4.19 KCAL/MOL
REMARK 922        TOTAL FREE ENERGY PREDICTED BY IDOCK:   -9.60 KCAL/MOL
REMARK 923 INTER-LIGAND FREE ENERGY PREDICTED BY IDOCK:   -8.89 KCAL/MOL
REMARK 924 INTRA-LIGAND FREE ENERGY PREDICTED BY IDOCK:   -0.71 KCAL/MOL
REMARK 927      BINDING AFFINITY PREDICTED BY RF-SCORE:    0.00 PKD
ROOT
HETATM    1  C   UNL     1      -9.119   2.811  66.503  1.00  0.00    -0.144 C  
HETATM    2  C   UNL     1      -9.020   3.917  67.547  1.00  0.00    -0.134 C  
HETATM    3  C   UNL     1      -7.707   3.817  68.318  1.00  0.00    -0.065 C  
ENDROOT
BRANCH   2   4
HETATM    4  O   UNL     1      -9.039   5.196  66.888  1.00  0.00    -0.115 OA 
BRANCH   4   5
HETATM    5  C   UNL     1     -10.222   5.517  66.291  1.00  0.00    -0.153 C  
HETATM    6  O   UNL     1     -10.789   4.836  65.447  1.00  0.00    -0.192 OA 
BRANCH   5   7
HETATM    7  C   UNL     1     -10.704   6.859  66.774  1.00  0.00    -0.296 C  
BRANCH   7   8
HETATM    8  C   UNL     1      -9.924   7.272  68.022  1.00  0.00    -0.186 C  
BRANCH   8   9
HETATM    9  C   UNL     1     -10.432   6.618  69.303  1.00  0.00    -0.247 C  
BRANCH   9  10
HETATM   10  C   UNL     1      -9.371   6.511  70.364  1.00  0.00    -0.166 C  
HETATM   11  C   UNL     1      -9.162   7.386  71.360  1.00  0.00    -0.148 C  
BRANCH  11  12
HETATM   12  C   UNL     1      -9.899   8.681  71.560  1.00  0.00    -0.342 C  
BRANCH  12  13
HETATM   13  C   UNL     1     -11.321   8.660  70.982  1.00  0.00    -0.322 C  
HETATM   14  C   UNL     1     -12.399   8.078  71.904  1.00  0.00    -0.323 C  
HETATM   15  O   UNL     1     -12.191   8.453  73.261  1.00  0.00    -0.415 OA 
HETATM   16  C   UNL     1     -13.690   8.726  71.415  1.00  0.00    -0.311 C  
HETATM   17  C   UNL     1     -13.279  10.163  71.105  1.00  0.00    -0.355 C  
HETATM   18  H   UNL     1     -12.859   8.092  73.832  1.00  0.00     0.000 HD 
HETATM   19  O   UNL     1     -13.361  10.954  72.295  1.00  0.00    -0.623 OA 
HETATM   20  C   UNL     1     -11.809  10.093  70.626  1.00  0.00    -0.431 C  
HETATM   21  H   UNL     1     -13.105  11.849  72.102  1.00  0.00     0.000 HD 
BRANCH  20  22
HETATM   22  C   UNL     1     -11.546  10.366  69.156  1.00  0.00    -0.234 C  
HETATM   23  C   UNL     1     -10.513  11.058  68.643  1.00  0.00    -0.214 C  
BRANCH  23  24
HETATM   24  C   UNL     1     -10.267  11.387  67.186  1.00  0.00    -0.202 C  
HETATM   25  H   UNL     1     -11.356  11.652  65.578  1.00  0.00     0.000 HD 
HETATM   26  O   UNL     1     -11.510  11.446  66.493  1.00  0.00    -0.384 OA 
BRANCH  24  27
HETATM   27  C   UNL     1      -9.524  12.732  67.058  1.00  0.00    -0.233 C  
BRANCH  27  28
HETATM   28  O   UNL     1     -10.403  13.769  66.590  1.00  0.00    -0.271 OA 
BRANCH  28  29
HETATM   29  C   UNL     1     -10.324  14.938  67.303  1.00  0.00    -0.251 A  
HETATM   30  C   UNL     1     -11.401  15.526  67.971  1.00  0.00    -0.332 A  
HETATM   31  C   UNL     1     -11.225  16.714  68.685  1.00  0.00    -0.235 A  
HETATM   32  C   UNL     1      -9.969  17.315  68.741  1.00  0.00    -0.325 A  
HETATM   33  C   UNL     1      -8.873  16.734  68.091  1.00  0.00    -0.223 A  
HETATM   34  C   UNL     1      -7.513  17.384  68.150  1.00  0.00    -0.208 C  
HETATM   35  C   UNL     1      -9.060  15.533  67.382  1.00  0.00    -0.207 A  
HETATM   36  F   UNL     1      -7.507  18.563  68.837  1.00  0.00    -0.287 F  
HETATM   37  F   UNL     1      -7.019  17.676  66.915  1.00  0.00    -0.172 F  
HETATM   38  F   UNL     1      -6.580  16.600  68.755  1.00  0.00    -0.141 F  
ENDBRANCH  28  29
ENDBRANCH  27  28
ENDBRANCH  24  27
ENDBRANCH  23  24
ENDBRANCH  20  22
ENDBRANCH  12  13
ENDBRANCH  11  12
ENDBRANCH   9  10
ENDBRANCH   8   9
ENDBRANCH   7   8
ENDBRANCH   5   7
ENDBRANCH   4   5
ENDBRANCH   2   4
TORSDOF 13
ENDMDL
MODEL      313
REMARK 921   NORMALIZED FREE ENERGY PREDICTED BY IDOCK:   -4.19 KCAL/MOL
REMARK 922        TOTAL FREE ENERGY PREDICTED BY IDOCK:   -9.59 KCAL/MOL
REMARK 923 INTER-LIGAND FREE ENERGY PREDICTED BY IDOCK:   -7.84 KCAL/MOL
REMARK 924 INTRA-LIGAND FREE ENERGY PREDICTED BY IDOCK:   -1.75 KCAL/MOL
REMARK 927      BINDING AFFINITY PREDICTED BY RF-SCORE:    0.00 PKD
ROOT
HETATM    1  C   UNL     1      -9.928  15.577  65.491  1.00  0.00    -0.377 C  
HETATM    2  C   UNL     1     -11.245  15.016  66.017  1.00  0.00    -0.310 C  
HETATM    3  C   UNL     1     -12.030  14.340  64.897  1.00  0.00    -0.430 C  
ENDROOT
BRANCH   2   4
HETATM    4  O   UNL     1     -10.971  14.018  67.017  1.00  0.00    -0.290 OA 
BRANCH   4   5
HETATM    5  C   UNL     1     -10.432  12.861  66.540  1.00  0.00    -0.265 C  
HETATM    6  O   UNL     1      -9.367  12.776  65.942  1.00  0.00    -0.134 OA 
BRANCH   5   7
HETATM    7  C   UNL     1     -11.362  11.706  66.800  1.00  0.00    -0.354 C  
BRANCH   7   8
HETATM    8  C   UNL     1     -11.381  11.382  68.294  1.00  0.00    -0.354 C  
BRANCH   8   9
HETATM    9  C   UNL     1     -10.011  11.017  68.858  1.00  0.00    -0.201 C  
BRANCH   9  10
HETATM   10  C   UNL     1      -9.611   9.600  68.546  1.00  0.00    -0.152 C  
HETATM   11  C   UNL     1      -9.167   8.695  69.431  1.00  0.00    -0.150 C  
BRANCH  11  12
HETATM   12  C   UNL     1      -8.909   8.946  70.891  1.00  0.00    -0.268 C  
BRANCH  12  13
HETATM   13  C   UNL     1      -9.743   8.046  71.813  1.00  0.00    -0.233 C  
HETATM   14  C   UNL     1     -10.967   8.711  72.453  1.00  0.00    -0.253 C  
HETATM   15  O   UNL     1     -11.618   9.599  71.550  1.00  0.00    -0.370 OA 
HETATM   16  C   UNL     1     -11.906   7.547  72.749  1.00  0.00    -0.156 C  
HETATM   17  C   UNL     1     -11.758   6.643  71.529  1.00  0.00    -0.321 C  
HETATM   18  H   UNL     1     -12.377  10.011  71.948  1.00  0.00     0.000 HD 
HETATM   19  O   UNL     1     -12.654   7.073  70.499  1.00  0.00    -0.618 OA 
HETATM   20  C   UNL     1     -10.296   6.810  71.049  1.00  0.00    -0.228 C  
HETATM   21  H   UNL     1     -12.562   6.511  69.739  1.00  0.00     0.000 HD 
BRANCH  20  22
HETATM   22  C   UNL     1      -9.362   5.630  71.253  1.00  0.00    -0.171 C  
HETATM   23  C   UNL     1      -9.668   4.461  71.845  1.00  0.00    -0.233 C  
BRANCH  23  24
HETATM   24  C   UNL     1      -8.735   3.299  72.107  1.00  0.00    -0.086 C  
HETATM   25  H   UNL     1      -8.784   1.630  73.134  1.00  0.00     0.000 HD 
HETATM   26  O   UNL     1      -9.370   2.360  72.969  1.00  0.00    -0.082 OA 
BRANCH  24  27
HETATM   27  C   UNL     1      -8.342   2.618  70.780  1.00  0.00    -0.053 C  
BRANCH  27  28
HETATM   28  O   UNL     1      -9.503   2.302  69.995  1.00  0.00    -0.119 OA 
BRANCH  28  29
HETATM   29  C   UNL     1      -9.352   2.529  68.650  1.00  0.00    -0.179 A  
HETATM   30  C   UNL     1      -9.135   1.524  67.703  1.00  0.00    -0.174 A  
HETATM   31  C   UNL     1      -9.006   1.847  66.350  1.00  0.00    -0.099 A  
HETATM   32  C   UNL     1      -9.101   3.174  65.937  1.00  0.00    -0.150 A  
HETATM   33  C   UNL     1      -9.333   4.194  66.868  1.00  0.00    -0.191 A  
HETATM   34  C   UNL     1      -9.435   5.631  66.422  1.00  0.00    -0.155 C  
HETATM   35  C   UNL     1      -9.470   3.857  68.227  1.00  0.00    -0.212 A  
HETATM   36  F   UNL     1      -9.235   5.798  65.082  1.00  0.00    -0.096 F  
HETATM   37  F   UNL     1      -8.520   6.435  67.032  1.00  0.00    -0.110 F  
HETATM   38  F   UNL     1     -10.652   6.179  66.684  1.00  0.00    -0.270 F  
ENDBRANCH  28  29
ENDBRANCH  27  28
ENDBRANCH  24  27
ENDBRANCH  23  24
ENDBRANCH  20  22
ENDBRANCH  12  13
ENDBRANCH  11  12
ENDBRANCH   9  10
ENDBRANCH   8   9
ENDBRANCH   7   8
ENDBRANCH   5   7
ENDBRANCH   4   5
ENDBRANCH   2   4
TORSDOF 13
ENDMDL
MODEL      314
REMARK 921   NORMALIZED FREE ENERGY PREDICTED BY IDOCK:   -4.17 KCAL/MOL
REMARK 922        TOTAL FREE ENERGY PREDICTED BY IDOCK:   -9.55 KCAL/MOL
REMARK 923 INTER-LIGAND FREE ENERGY PREDICTED BY IDOCK:   -7.58 KCAL/MOL
REMARK 924 INTRA-LIGAND FREE ENERGY PREDICTED BY IDOCK:   -1.98 KCAL/MOL
REMARK 927      BINDING AFFINITY PREDICTED BY RF-SCORE:    0.00 PKD
ROOT
HETATM    1  C   UNL     1     -10.225   4.181  65.346  1.00  0.00    -0.190 C  
HETATM    2  C   UNL     1      -9.561   4.718  66.609  1.00  0.00    -0.174 C  
HETATM    3  C   UNL     1     -10.361   5.882  67.187  1.00  0.00    -0.286 C  
ENDROOT
BRANCH   2   4
HETATM    4  O   UNL     1      -9.524   3.680  67.605  1.00  0.00    -0.190 OA 
BRANCH   4   5
HETATM    5  C   UNL     1      -8.283   3.184  67.871  1.00  0.00    -0.079 C  
HETATM    6  O   UNL     1      -7.283   3.395  67.197  1.00  0.00    -0.058 OA 
BRANCH   5   7
HETATM    7  C   UNL     1      -8.327   2.288  69.080  1.00  0.00    -0.077 C  
BRANCH   7   8
HETATM    8  C   UNL     1      -7.669   2.988  70.269  1.00  0.00    -0.043 C  
BRANCH   8   9
HETATM    9  C   UNL     1      -8.535   2.998  71.526  1.00  0.00    -0.090 C  
BRANCH   9  10
HETATM   10  C   UNL     1      -9.990   3.240  71.230  1.00  0.00    -0.071 C  
HETATM   11  C   UNL     1     -10.539   4.416  70.885  1.00  0.00     0.347 C  
BRANCH  11  12
HETATM   12  C   UNL     1      -9.816   5.732  70.804  1.00  0.00    -0.235 C  
BRANCH  12  13
HETATM   13  C   UNL     1      -9.746   6.464  72.151  1.00  0.00    -0.161 C  
HETATM   14  C   UNL     1      -8.420   6.327  72.909  1.00  0.00    -0.118 C  
HETATM   15  O   UNL     1      -7.303   6.356  72.026  1.00  0.00    -0.089 OA 
HETATM   16  C   UNL     1      -8.372   7.567  73.794  1.00  0.00    -0.220 C  
HETATM   17  C   UNL     1      -8.926   8.672  72.899  1.00  0.00     0.059 C  
HETATM   18  H   UNL     1      -6.482   6.271  72.496  1.00  0.00     0.000 HD 
HETATM   19  O   UNL     1      -7.870   9.225  72.107  1.00  0.00    -0.183 OA 
HETATM   20  C   UNL     1      -9.967   7.993  71.977  1.00  0.00    -0.275 C  
HETATM   21  H   UNL     1      -8.215   9.913  71.550  1.00  0.00     0.000 HD 
BRANCH  20  22
HETATM   22  C   UNL     1     -11.429   8.324  72.223  1.00  0.00    -0.452 C  
HETATM   23  C   UNL     1     -12.455   8.082  71.387  1.00  0.00    -0.320 C  
BRANCH  23  24
HETATM   24  C   UNL     1     -13.908   8.456  71.593  1.00  0.00    -0.379 C  
HETATM   25  H   UNL     1     -15.206   8.390  73.059  1.00  0.00     0.000 HD 
HETATM   26  O   UNL     1     -14.295   8.155  72.930  1.00  0.00    -0.103 OA 
BRANCH  24  27
HETATM   27  C   UNL     1     -14.121   9.956  71.304  1.00  0.00     0.322 C  
BRANCH  27  28
HETATM   28  O   UNL     1     -13.320  10.772  72.175  1.00  0.00    -0.442 OA 
BRANCH  28  29
HETATM   29  C   UNL     1     -12.842  11.918  71.591  1.00  0.00    -0.312 A  
HETATM   30  C   UNL     1     -12.178  11.957  70.362  1.00  0.00    -0.399 A  
HETATM   31  C   UNL     1     -11.738  13.174  69.837  1.00  0.00    -0.327 A  
HETATM   32  C   UNL     1     -11.966  14.358  70.533  1.00  0.00    -0.395 A  
HETATM   33  C   UNL     1     -12.643  14.343  71.759  1.00  0.00    -0.427 A  
HETATM   34  C   UNL     1     -12.890  15.626  72.514  1.00  0.00    -0.435 C  
HETATM   35  C   UNL     1     -13.090  13.113  72.275  1.00  0.00    -0.458 A  
HETATM   36  F   UNL     1     -12.357  16.724  71.905  1.00  0.00    -0.203 F  
HETATM   37  F   UNL     1     -12.357  15.605  73.767  1.00  0.00    -0.482 F  
HETATM   38  F   UNL     1     -14.214  15.897  72.672  1.00  0.00    -0.632 F  
ENDBRANCH  28  29
ENDBRANCH  27  28
ENDBRANCH  24  27
ENDBRANCH  23  24
ENDBRANCH  20  22
ENDBRANCH  12  13
ENDBRANCH  11  12
ENDBRANCH   9  10
ENDBRANCH   8   9
ENDBRANCH   7   8
ENDBRANCH   5   7
ENDBRANCH   4   5
ENDBRANCH   2   4
TORSDOF 13
ENDMDL
MODEL      315
REMARK 921   NORMALIZED FREE ENERGY PREDICTED BY IDOCK:   -4.16 KCAL/MOL
REMARK 922        TOTAL FREE ENERGY PREDICTED BY IDOCK:   -9.53 KCAL/MOL
REMARK 923 INTER-LIGAND FREE ENERGY PREDICTED BY IDOCK:   -7.56 KCAL/MOL
REMARK 924 INTRA-LIGAND FREE ENERGY PREDICTED BY IDOCK:   -1.98 KCAL/MOL
REMARK 927      BINDING AFFINITY PREDICTED BY RF-SCORE:    0.00 PKD
ROOT
HETATM    1  C   UNL     1     -12.306  12.541  64.713  1.00  0.00    -0.544 C  
HETATM    2  C   UNL     1     -11.225  13.390  65.374  1.00  0.00    -0.288 C  
HETATM    3  C   UNL     1     -11.481  14.874  65.132  1.00  0.00    -0.357 C  
ENDROOT
BRANCH   2   4
HETATM    4  O   UNL     1     -11.254  13.172  66.796  1.00  0.00    -0.282 OA 
BRANCH   4   5
HETATM    5  C   UNL     1     -10.082  12.727  67.332  1.00  0.00    -0.219 C  
HETATM    6  O   UNL     1      -8.980  13.213  67.112  1.00  0.00    -0.211 OA 
BRANCH   5   7
HETATM    7  C   UNL     1     -10.326  11.513  68.189  1.00  0.00    -0.211 C  
BRANCH   7   8
HETATM    8  C   UNL     1     -10.366  10.260  67.314  1.00  0.00    -0.284 C  
BRANCH   8   9
HETATM    9  C   UNL     1     -11.014   9.060  67.997  1.00  0.00     0.002 C  
BRANCH   9  10
HETATM   10  C   UNL     1     -10.436   7.748  67.542  1.00  0.00    -0.338 C  
HETATM   11  C   UNL     1     -10.568   6.568  68.170  1.00  0.00    -0.307 C  
BRANCH  11  12
HETATM   12  C   UNL     1     -11.254   6.348  69.490  1.00  0.00    -0.477 C  
BRANCH  12  13
HETATM   13  C   UNL     1     -11.128   7.546  70.440  1.00  0.00    -0.277 C  
HETATM   14  C   UNL     1     -12.409   7.931  71.191  1.00  0.00    -0.230 C  
HETATM   15  O   UNL     1     -13.151   6.784  71.589  1.00  0.00    -0.328 OA 
HETATM   16  C   UNL     1     -11.904   8.641  72.441  1.00  0.00    -0.402 C  
HETATM   17  C   UNL     1     -10.686   7.820  72.857  1.00  0.00    -0.385 C  
HETATM   18  H   UNL     1     -13.945   7.022  72.054  1.00  0.00     0.000 HD 
HETATM   19  O   UNL     1     -11.102   6.722  73.676  1.00  0.00    -0.499 OA 
HETATM   20  C   UNL     1     -10.065   7.284  71.544  1.00  0.00    -0.196 C  
HETATM   21  H   UNL     1     -10.343   6.211  73.934  1.00  0.00     0.000 HD 
BRANCH  20  22
HETATM   22  C   UNL     1      -8.734   7.877  71.116  1.00  0.00    -0.146 C  
HETATM   23  C   UNL     1      -8.553   9.010  70.412  1.00  0.00    -0.215 C  
BRANCH  23  24
HETATM   24  C   UNL     1      -7.239   9.584  69.929  1.00  0.00    -0.093 C  
HETATM   25  H   UNL     1      -5.701  10.502  70.727  1.00  0.00     0.000 HD 
HETATM   26  O   UNL     1      -6.526  10.141  71.030  1.00  0.00    -0.312 OA 
BRANCH  24  27
HETATM   27  C   UNL     1      -6.392   8.489  69.250  1.00  0.00    -0.042 C  
BRANCH  27  28
HETATM   28  O   UNL     1      -7.218   7.588  68.494  1.00  0.00    -0.084 OA 
BRANCH  28  29
HETATM   29  C   UNL     1      -7.165   7.781  67.136  1.00  0.00    -0.090 A  
HETATM   30  C   UNL     1      -6.837   8.995  66.527  1.00  0.00    -0.079 A  
HETATM   31  C   UNL     1      -6.794   9.097  65.135  1.00  0.00    -0.077 A  
HETATM   32  C   UNL     1      -7.071   7.983  64.345  1.00  0.00    -0.077 A  
HETATM   33  C   UNL     1      -7.387   6.754  64.935  1.00  0.00    -0.087 A  
HETATM   34  C   UNL     1      -7.689   5.548  64.081  1.00  0.00    -0.089 C  
HETATM   35  C   UNL     1      -7.419   6.661  66.339  1.00  0.00    -0.085 A  
HETATM   36  F   UNL     1      -7.660   5.812  62.743  1.00  0.00    -0.055 F  
HETATM   37  F   UNL     1      -8.923   5.027  64.327  1.00  0.00    -0.150 F  
HETATM   38  F   UNL     1      -6.805   4.531  64.275  1.00  0.00    -0.041 F  
ENDBRANCH  28  29
ENDBRANCH  27  28
ENDBRANCH  24  27
ENDBRANCH  23  24
ENDBRANCH  20  22
ENDBRANCH  12  13
ENDBRANCH  11  12
ENDBRANCH   9  10
ENDBRANCH   8   9
ENDBRANCH   7   8
ENDBRANCH   5   7
ENDBRANCH   4   5
ENDBRANCH   2   4
TORSDOF 13
ENDMDL
MODEL      316
REMARK 921   NORMALIZED FREE ENERGY PREDICTED BY IDOCK:   -4.15 KCAL/MOL
REMARK 922        TOTAL FREE ENERGY PREDICTED BY IDOCK:   -9.53 KCAL/MOL
REMARK 923 INTER-LIGAND FREE ENERGY PREDICTED BY IDOCK:   -7.43 KCAL/MOL
REMARK 924 INTRA-LIGAND FREE ENERGY PREDICTED BY IDOCK:   -2.10 KCAL/MOL
REMARK 927      BINDING AFFINITY PREDICTED BY RF-SCORE:    0.00 PKD
ROOT
HETATM    1  C   UNL     1      -9.174   3.033  69.047  1.00  0.00    -0.222 C  
HETATM    2  C   UNL     1      -9.162   4.280  68.170  1.00  0.00    -0.142 C  
HETATM    3  C   UNL     1      -9.737   5.475  68.923  1.00  0.00    -0.193 C  
ENDROOT
BRANCH   2   4
HETATM    4  O   UNL     1      -7.803   4.601  67.820  1.00  0.00    -0.085 OA 
BRANCH   4   5
HETATM    5  C   UNL     1      -7.443   5.897  68.044  1.00  0.00    -0.085 C  
HETATM    6  O   UNL     1      -7.662   6.828  67.281  1.00  0.00    -0.104 OA 
BRANCH   5   7
HETATM    7  C   UNL     1      -6.685   6.011  69.339  1.00  0.00    -0.060 C  
BRANCH   7   8
HETATM    8  C   UNL     1      -6.314   7.472  69.596  1.00  0.00    -0.031 C  
BRANCH   8   9
HETATM    9  C   UNL     1      -7.370   8.240  70.386  1.00  0.00    -0.055 C  
BRANCH   9  10
HETATM   10  C   UNL     1      -7.107   9.721  70.423  1.00  0.00    -0.146 C  
HETATM   11  C   UNL     1      -6.998  10.529  69.357  1.00  0.00    -0.099 C  
BRANCH  11  12
HETATM   12  C   UNL     1      -7.042  10.095  67.918  1.00  0.00    -0.085 C  
BRANCH  12  13
HETATM   13  C   UNL     1      -8.352  10.475  67.215  1.00  0.00    -0.122 C  
HETATM   14  C   UNL     1      -8.367  10.277  65.695  1.00  0.00    -0.158 C  
HETATM   15  O   UNL     1      -7.672   9.095  65.310  1.00  0.00    -0.096 OA 
HETATM   16  C   UNL     1      -9.844  10.101  65.360  1.00  0.00    -0.375 C  
HETATM   17  C   UNL     1     -10.375   9.244  66.505  1.00  0.00    -0.200 C  
HETATM   18  H   UNL     1      -7.681   8.973  64.368  1.00  0.00     0.000 HD 
HETATM   19  O   UNL     1     -10.167   7.859  66.208  1.00  0.00    -0.479 OA 
HETATM   20  C   UNL     1      -9.547   9.638  67.753  1.00  0.00    -0.161 C  
HETATM   21  H   UNL     1     -10.497   7.326  66.921  1.00  0.00     0.000 HD 
BRANCH  20  22
HETATM   22  C   UNL     1     -10.264  10.419  68.840  1.00  0.00    -0.220 C  
HETATM   23  C   UNL     1     -11.595  10.567  68.973  1.00  0.00    -0.278 C  
BRANCH  23  24
HETATM   24  C   UNL     1     -12.322  11.388  70.017  1.00  0.00    -0.237 C  
HETATM   25  H   UNL     1     -12.586  11.323  71.958  1.00  0.00     0.000 HD 
HETATM   26  O   UNL     1     -12.129  10.807  71.303  1.00  0.00    -0.330 OA 
BRANCH  24  27
HETATM   27  C   UNL     1     -11.807  12.842  70.009  1.00  0.00    -0.281 C  
BRANCH  27  28
HETATM   28  O   UNL     1     -12.476  13.624  69.006  1.00  0.00    -0.170 OA 
BRANCH  28  29
HETATM   29  C   UNL     1     -11.715  13.882  67.893  1.00  0.00    -0.361 A  
HETATM   30  C   UNL     1     -11.716  13.092  66.741  1.00  0.00    -0.440 A  
HETATM   31  C   UNL     1     -10.917  13.438  65.648  1.00  0.00    -0.292 A  
HETATM   32  C   UNL     1     -10.121  14.580  65.699  1.00  0.00    -0.384 A  
HETATM   33  C   UNL     1     -10.118  15.394  66.839  1.00  0.00    -0.258 A  
HETATM   34  C   UNL     1      -9.256  16.631  66.896  1.00  0.00    -0.227 C  
HETATM   35  C   UNL     1     -10.932  15.041  67.930  1.00  0.00    -0.291 A  
HETATM   36  F   UNL     1      -8.493  16.811  65.778  1.00  0.00    -0.312 F  
HETATM   37  F   UNL     1      -8.381  16.611  67.939  1.00  0.00    -0.174 F  
HETATM   38  F   UNL     1      -9.982  17.773  67.034  1.00  0.00    -0.279 F  
ENDBRANCH  28  29
ENDBRANCH  27  28
ENDBRANCH  24  27
ENDBRANCH  23  24
ENDBRANCH  20  22
ENDBRANCH  12  13
ENDBRANCH  11  12
ENDBRANCH   9  10
ENDBRANCH   8   9
ENDBRANCH   7   8
ENDBRANCH   5   7
ENDBRANCH   4   5
ENDBRANCH   2   4
TORSDOF 13
ENDMDL
MODEL      317
REMARK 921   NORMALIZED FREE ENERGY PREDICTED BY IDOCK:   -4.15 KCAL/MOL
REMARK 922        TOTAL FREE ENERGY PREDICTED BY IDOCK:   -9.52 KCAL/MOL
REMARK 923 INTER-LIGAND FREE ENERGY PREDICTED BY IDOCK:   -7.90 KCAL/MOL
REMARK 924 INTRA-LIGAND FREE ENERGY PREDICTED BY IDOCK:   -1.62 KCAL/MOL
REMARK 927      BINDING AFFINITY PREDICTED BY RF-SCORE:    0.00 PKD
ROOT
HETATM    1  C   UNL     1     -10.579  18.294  67.643  1.00  0.00    -0.427 C  
HETATM    2  C   UNL     1      -9.941  17.453  66.543  1.00  0.00    -0.311 C  
HETATM    3  C   UNL     1      -8.598  16.892  67.003  1.00  0.00    -0.229 C  
ENDROOT
BRANCH   2   4
HETATM    4  O   UNL     1     -10.797  16.336  66.242  1.00  0.00    -0.231 OA 
BRANCH   4   5
HETATM    5  C   UNL     1     -10.980  16.096  64.912  1.00  0.00    -0.349 C  
HETATM    6  O   UNL     1     -11.546  16.851  64.134  1.00  0.00    -1.091 OA 
BRANCH   5   7
HETATM    7  C   UNL     1     -10.438  14.739  64.548  1.00  0.00     0.037 C  
BRANCH   7   8
HETATM    8  C   UNL     1     -11.119  13.664  65.395  1.00  0.00    -0.304 C  
BRANCH   8   9
HETATM    9  C   UNL     1     -10.384  12.327  65.389  1.00  0.00    -0.298 C  
BRANCH   9  10
HETATM   10  C   UNL     1     -10.846  11.403  66.483  1.00  0.00    -0.334 C  
HETATM   11  C   UNL     1     -10.580  11.537  67.792  1.00  0.00    -0.227 C  
BRANCH  11  12
HETATM   12  C   UNL     1      -9.703  12.593  68.406  1.00  0.00    -0.187 C  
BRANCH  12  13
HETATM   13  C   UNL     1      -8.239  12.496  67.958  1.00  0.00    -0.166 C  
HETATM   14  C   UNL     1      -7.429  13.794  68.063  1.00  0.00    -0.139 C  
HETATM   15  O   UNL     1      -7.766  14.532  69.233  1.00  0.00    -0.244 OA 
HETATM   16  C   UNL     1      -5.986  13.318  68.188  1.00  0.00    -0.108 C  
HETATM   17  C   UNL     1      -6.084  12.101  69.102  1.00  0.00    -0.082 C  
HETATM   18  H   UNL     1      -7.263  15.336  69.297  1.00  0.00     0.000 HD 
HETATM   19  O   UNL     1      -6.039  12.520  70.470  1.00  0.00    -0.370 OA 
HETATM   20  C   UNL     1      -7.457  11.450  68.802  1.00  0.00    -0.124 C  
HETATM   21  H   UNL     1      -6.101  11.762  71.039  1.00  0.00     0.000 HD 
BRANCH  20  22
HETATM   22  C   UNL     1      -7.446  10.118  68.073  1.00  0.00    -0.087 C  
HETATM   23  C   UNL     1      -7.615   9.928  66.752  1.00  0.00    -0.095 C  
BRANCH  23  24
HETATM   24  C   UNL     1      -7.664   8.604  66.019  1.00  0.00    -0.100 C  
HETATM   25  H   UNL     1      -6.760   6.870  66.141  1.00  0.00     0.000 HD 
HETATM   26  O   UNL     1      -6.730   7.700  66.601  1.00  0.00    -0.059 OA 
BRANCH  24  27
HETATM   27  C   UNL     1      -9.085   8.010  66.080  1.00  0.00    -0.176 C  
BRANCH  27  28
HETATM   28  O   UNL     1      -9.777   8.438  67.265  1.00  0.00    -0.160 OA 
BRANCH  28  29
HETATM   29  C   UNL     1     -10.024   7.434  68.167  1.00  0.00    -0.166 A  
HETATM   30  C   UNL     1     -10.709   7.611  69.372  1.00  0.00    -0.188 A  
HETATM   31  C   UNL     1     -10.926   6.526  70.225  1.00  0.00    -0.365 A  
HETATM   32  C   UNL     1     -10.467   5.258  69.873  1.00  0.00    -0.351 A  
HETATM   33  C   UNL     1      -9.792   5.057  68.663  1.00  0.00    -0.227 A  
HETATM   34  C   UNL     1      -9.293   3.685  68.282  1.00  0.00    -0.170 C  
HETATM   35  C   UNL     1      -9.586   6.155  67.808  1.00  0.00    -0.114 A  
HETATM   36  F   UNL     1      -9.532   2.739  69.236  1.00  0.00    -0.196 F  
HETATM   37  F   UNL     1      -7.949   3.659  68.066  1.00  0.00    -0.073 F  
HETATM   38  F   UNL     1      -9.868   3.214  67.143  1.00  0.00    -0.188 F  
ENDBRANCH  28  29
ENDBRANCH  27  28
ENDBRANCH  24  27
ENDBRANCH  23  24
ENDBRANCH  20  22
ENDBRANCH  12  13
ENDBRANCH  11  12
ENDBRANCH   9  10
ENDBRANCH   8   9
ENDBRANCH   7   8
ENDBRANCH   5   7
ENDBRANCH   4   5
ENDBRANCH   2   4
TORSDOF 13
ENDMDL
MODEL      318
REMARK 921   NORMALIZED FREE ENERGY PREDICTED BY IDOCK:   -4.11 KCAL/MOL
REMARK 922        TOTAL FREE ENERGY PREDICTED BY IDOCK:   -9.46 KCAL/MOL
REMARK 923 INTER-LIGAND FREE ENERGY PREDICTED BY IDOCK:   -7.11 KCAL/MOL
REMARK 924 INTRA-LIGAND FREE ENERGY PREDICTED BY IDOCK:   -2.35 KCAL/MOL
REMARK 927      BINDING AFFINITY PREDICTED BY RF-SCORE:    0.00 PKD
ROOT
HETATM    1  C   UNL     1      -8.403   3.423  69.980  1.00  0.00    -0.081 C  
HETATM    2  C   UNL     1      -8.504   4.928  69.758  1.00  0.00    -0.083 C  
HETATM    3  C   UNL     1      -9.803   5.282  69.041  1.00  0.00    -0.235 C  
ENDROOT
BRANCH   2   4
HETATM    4  O   UNL     1      -8.517   5.596  71.033  1.00  0.00    -0.119 OA 
BRANCH   4   5
HETATM    5  C   UNL     1      -7.382   6.292  71.327  1.00  0.00    -0.081 C  
HETATM    6  O   UNL     1      -7.105   6.750  72.427  1.00  0.00    -0.070 OA 
BRANCH   5   7
HETATM    7  C   UNL     1      -6.542   6.470  70.090  1.00  0.00    -0.045 C  
BRANCH   7   8
HETATM    8  C   UNL     1      -6.501   7.947  69.698  1.00  0.00    -0.034 C  
BRANCH   8   9
HETATM    9  C   UNL     1      -7.752   8.417  68.961  1.00  0.00    -0.097 C  
BRANCH   9  10
HETATM   10  C   UNL     1      -8.205   9.784  69.397  1.00  0.00    -0.135 C  
HETATM   11  C   UNL     1      -9.152  10.045  70.312  1.00  0.00     0.033 C  
BRANCH  11  12
HETATM   12  C   UNL     1      -9.995   9.021  71.021  1.00  0.00    -0.349 C  
BRANCH  12  13
HETATM   13  C   UNL     1     -11.492   9.158  70.715  1.00  0.00    -0.337 C  
HETATM   14  C   UNL     1     -12.277   7.842  70.657  1.00  0.00     0.071 C  
HETATM   15  O   UNL     1     -11.837   6.921  71.650  1.00  0.00    -0.287 OA 
HETATM   16  C   UNL     1     -13.709   8.254  70.979  1.00  0.00     0.070 C  
HETATM   17  C   UNL     1     -13.548   9.297  72.081  1.00  0.00    -0.471 C  
HETATM   18  H   UNL     1     -12.324   6.106  71.614  1.00  0.00     0.000 HD 
HETATM   19  O   UNL     1     -13.474   8.647  73.353  1.00  0.00    -0.713 OA 
HETATM   20  C   UNL     1     -12.212  10.023  71.789  1.00  0.00    -0.383 C  
HETATM   21  H   UNL     1     -13.373   9.296  74.039  1.00  0.00     0.000 HD 
BRANCH  20  22
HETATM   22  C   UNL     1     -12.297  11.460  71.307  1.00  0.00    -0.344 C  
HETATM   23  C   UNL     1     -12.692  12.524  72.029  1.00  0.00    -0.118 C  
BRANCH  23  24
HETATM   24  C   UNL     1     -12.836  13.952  71.548  1.00  0.00    -0.361 C  
HETATM   25  H   UNL     1     -12.128  15.708  72.054  1.00  0.00     0.000 HD 
HETATM   26  O   UNL     1     -12.037  14.812  72.356  1.00  0.00    -0.323 OA 
BRANCH  24  27
HETATM   27  C   UNL     1     -12.409  14.065  70.071  1.00  0.00    -0.337 C  
BRANCH  27  28
HETATM   28  O   UNL     1     -12.236  15.438  69.684  1.00  0.00    -0.331 OA 
BRANCH  28  29
HETATM   29  C   UNL     1     -11.220  15.646  68.785  1.00  0.00    -0.332 A  
HETATM   30  C   UNL     1     -11.268  16.580  67.747  1.00  0.00    -0.097 A  
HETATM   31  C   UNL     1     -10.179  16.733  66.885  1.00  0.00    -0.290 A  
HETATM   32  C   UNL     1      -9.034  15.960  67.064  1.00  0.00    -0.239 A  
HETATM   33  C   UNL     1      -8.960  15.030  68.107  1.00  0.00    -0.173 A  
HETATM   34  C   UNL     1      -7.721  14.191  68.301  1.00  0.00    -0.139 C  
HETATM   35  C   UNL     1     -10.059  14.889  68.974  1.00  0.00    -0.237 A  
HETATM   36  F   UNL     1      -6.764  14.413  67.354  1.00  0.00    -0.186 F  
HETATM   37  F   UNL     1      -7.981  12.855  68.254  1.00  0.00    -0.123 F  
HETATM   38  F   UNL     1      -7.114  14.415  69.498  1.00  0.00    -0.136 F  
ENDBRANCH  28  29
ENDBRANCH  27  28
ENDBRANCH  24  27
ENDBRANCH  23  24
ENDBRANCH  20  22
ENDBRANCH  12  13
ENDBRANCH  11  12
ENDBRANCH   9  10
ENDBRANCH   8   9
ENDBRANCH   7   8
ENDBRANCH   5   7
ENDBRANCH   4   5
ENDBRANCH   2   4
TORSDOF 13
ENDMDL
MODEL      319
REMARK 921   NORMALIZED FREE ENERGY PREDICTED BY IDOCK:   -4.11 KCAL/MOL
REMARK 922        TOTAL FREE ENERGY PREDICTED BY IDOCK:   -9.45 KCAL/MOL
REMARK 923 INTER-LIGAND FREE ENERGY PREDICTED BY IDOCK:   -8.60 KCAL/MOL
REMARK 924 INTRA-LIGAND FREE ENERGY PREDICTED BY IDOCK:   -0.85 KCAL/MOL
REMARK 927      BINDING AFFINITY PREDICTED BY RF-SCORE:    0.00 PKD
ROOT
HETATM    1  C   UNL     1     -12.036  16.569  72.887  1.00  0.00    -0.479 C  
HETATM    2  C   UNL     1     -11.951  15.055  72.725  1.00  0.00    -0.309 C  
HETATM    3  C   UNL     1     -13.285  14.400  73.067  1.00  0.00    -0.547 C  
ENDROOT
BRANCH   2   4
HETATM    4  O   UNL     1     -11.652  14.740  71.354  1.00  0.00    -0.325 OA 
BRANCH   4   5
HETATM    5  C   UNL     1     -12.664  14.984  70.474  1.00  0.00    -0.357 C  
HETATM    6  O   UNL     1     -13.695  15.588  70.741  1.00  0.00    -0.475 OA 
BRANCH   5   7
HETATM    7  C   UNL     1     -12.362  14.353  69.141  1.00  0.00    -0.156 C  
BRANCH   7   8
HETATM    8  C   UNL     1     -11.221  15.107  68.457  1.00  0.00    -0.301 C  
BRANCH   8   9
HETATM    9  C   UNL     1     -11.407  16.621  68.453  1.00  0.00    -0.142 C  
BRANCH   9  10
HETATM   10  C   UNL     1     -10.195  17.359  68.953  1.00  0.00    -0.352 C  
HETATM   11  C   UNL     1      -9.228  17.895  68.190  1.00  0.00    -0.278 C  
BRANCH  11  12
HETATM   12  C   UNL     1      -9.134  17.793  66.693  1.00  0.00    -0.280 C  
BRANCH  12  13
HETATM   13  C   UNL     1      -7.792  17.225  66.212  1.00  0.00    -0.344 C  
HETATM   14  C   UNL     1      -6.795  18.255  65.670  1.00  0.00    -0.228 C  
HETATM   15  O   UNL     1      -6.825  19.464  66.422  1.00  0.00    -0.194 OA 
HETATM   16  C   UNL     1      -5.436  17.593  65.870  1.00  0.00    -0.186 C  
HETATM   17  C   UNL     1      -5.561  16.913  67.230  1.00  0.00    -0.154 C  
HETATM   18  H   UNL     1      -6.206  20.102  66.086  1.00  0.00     0.000 HD 
HETATM   19  O   UNL     1      -5.234  17.843  68.267  1.00  0.00    -0.151 OA 
HETATM   20  C   UNL     1      -7.045  16.489  67.360  1.00  0.00    -0.184 C  
HETATM   21  H   UNL     1      -5.312  17.420  69.113  1.00  0.00     0.000 HD 
BRANCH  20  22
HETATM   22  C   UNL     1      -7.348  15.003  67.291  1.00  0.00    -0.195 C  
HETATM   23  C   UNL     1      -8.514  14.441  66.920  1.00  0.00    -0.156 C  
BRANCH  23  24
HETATM   24  C   UNL     1      -8.850  12.965  66.899  1.00  0.00    -0.187 C  
HETATM   25  H   UNL     1      -9.752  11.722  65.681  1.00  0.00     0.000 HD 
HETATM   26  O   UNL     1      -9.540  12.648  65.694  1.00  0.00    -0.190 OA 
BRANCH  24  27
HETATM   27  C   UNL     1      -7.564  12.121  67.010  1.00  0.00    -0.093 C  
BRANCH  27  28
HETATM   28  O   UNL     1      -7.531  11.385  68.244  1.00  0.00    -0.089 OA 
BRANCH  28  29
HETATM   29  C   UNL     1      -8.357  10.289  68.268  1.00  0.00    -0.116 A  
HETATM   30  C   UNL     1      -8.353   9.281  67.300  1.00  0.00    -0.125 A  
HETATM   31  C   UNL     1      -9.222   8.193  67.413  1.00  0.00    -0.159 A  
HETATM   32  C   UNL     1     -10.093   8.104  68.496  1.00  0.00    -0.220 A  
HETATM   33  C   UNL     1     -10.102   9.096  69.484  1.00  0.00    -0.202 A  
HETATM   34  C   UNL     1     -11.046   9.001  70.657  1.00  0.00    -0.265 C  
HETATM   35  C   UNL     1      -9.217  10.183  69.366  1.00  0.00    -0.229 A  
HETATM   36  F   UNL     1     -11.868   7.914  70.604  1.00  0.00    -0.283 F  
HETATM   37  F   UNL     1     -11.870  10.081  70.755  1.00  0.00    -0.317 F  
HETATM   38  F   UNL     1     -10.396   8.914  71.850  1.00  0.00    -0.335 F  
ENDBRANCH  28  29
ENDBRANCH  27  28
ENDBRANCH  24  27
ENDBRANCH  23  24
ENDBRANCH  20  22
ENDBRANCH  12  13
ENDBRANCH  11  12
ENDBRANCH   9  10
ENDBRANCH   8   9
ENDBRANCH   7   8
ENDBRANCH   5   7
ENDBRANCH   4   5
ENDBRANCH   2   4
TORSDOF 13
ENDMDL
MODEL      320
REMARK 921   NORMALIZED FREE ENERGY PREDICTED BY IDOCK:   -4.09 KCAL/MOL
REMARK 922        TOTAL FREE ENERGY PREDICTED BY IDOCK:   -9.42 KCAL/MOL
REMARK 923 INTER-LIGAND FREE ENERGY PREDICTED BY IDOCK:   -6.70 KCAL/MOL
REMARK 924 INTRA-LIGAND FREE ENERGY PREDICTED BY IDOCK:   -2.72 KCAL/MOL
REMARK 927      BINDING AFFINITY PREDICTED BY RF-SCORE:    0.00 PKD
ROOT
HETATM    1  C   UNL     1     -12.662   9.673  70.961  1.00  0.00    -0.354 C  
HETATM    2  C   UNL     1     -11.307  10.018  70.352  1.00  0.00    -0.320 C  
HETATM    3  C   UNL     1     -10.172   9.527  71.245  1.00  0.00    -0.245 C  
ENDROOT
BRANCH   2   4
HETATM    4  O   UNL     1     -11.176   9.357  69.080  1.00  0.00    -0.082 OA 
BRANCH   4   5
HETATM    5  C   UNL     1     -11.135  10.190  68.002  1.00  0.00    -0.240 C  
HETATM    6  O   UNL     1     -11.848  11.171  67.846  1.00  0.00    -0.601 OA 
BRANCH   5   7
HETATM    7  C   UNL     1     -10.126   9.696  66.999  1.00  0.00    -0.275 C  
BRANCH   7   8
HETATM    8  C   UNL     1      -9.721   8.261  67.333  1.00  0.00    -0.225 C  
BRANCH   8   9
HETATM    9  C   UNL     1     -10.863   7.257  67.197  1.00  0.00    -0.378 C  
BRANCH   9  10
HETATM   10  C   UNL     1     -10.490   5.881  67.678  1.00  0.00    -0.301 C  
HETATM   11  C   UNL     1     -10.734   5.381  68.900  1.00  0.00    -0.129 C  
BRANCH  11  12
HETATM   12  C   UNL     1     -11.358   6.128  70.046  1.00  0.00    -0.443 C  
BRANCH  12  13
HETATM   13  C   UNL     1     -10.544   6.027  71.344  1.00  0.00    -0.300 C  
HETATM   14  C   UNL     1     -11.306   6.373  72.629  1.00  0.00    -0.231 C  
HETATM   15  O   UNL     1     -12.647   5.895  72.592  1.00  0.00    -0.530 OA 
HETATM   16  C   UNL     1     -10.552   5.619  73.718  1.00  0.00    -0.303 C  
HETATM   17  C   UNL     1     -10.209   4.284  73.064  1.00  0.00    -0.166 C  
HETATM   18  H   UNL     1     -13.118   6.109  73.388  1.00  0.00     0.000 HD 
HETATM   19  O   UNL     1     -11.303   3.374  73.225  1.00  0.00    -0.151 OA 
HETATM   20  C   UNL     1     -10.000   4.586  71.560  1.00  0.00    -0.259 C  
HETATM   21  H   UNL     1     -11.089   2.543  72.817  1.00  0.00     0.000 HD 
BRANCH  20  22
HETATM   22  C   UNL     1      -8.582   4.496  71.027  1.00  0.00    -0.126 C  
HETATM   23  C   UNL     1      -7.551   3.848  71.601  1.00  0.00    -0.057 C  
BRANCH  23  24
HETATM   24  C   UNL     1      -6.120   3.795  71.113  1.00  0.00    -0.014 C  
HETATM   25  H   UNL     1      -4.836   2.407  70.597  1.00  0.00     0.000 HD 
HETATM   26  O   UNL     1      -5.734   2.440  70.904  1.00  0.00    -0.012 OA 
BRANCH  24  27
HETATM   27  C   UNL     1      -5.970   4.597  69.804  1.00  0.00    -0.018 C  
BRANCH  27  28
HETATM   28  O   UNL     1      -6.518   3.875  68.688  1.00  0.00    -0.035 OA 
BRANCH  28  29
HETATM   29  C   UNL     1      -6.782   4.654  67.589  1.00  0.00    -0.051 A  
HETATM   30  C   UNL     1      -6.311   5.959  67.419  1.00  0.00    -0.042 A  
HETATM   31  C   UNL     1      -6.620   6.674  66.259  1.00  0.00    -0.044 A  
HETATM   32  C   UNL     1      -7.393   6.085  65.261  1.00  0.00    -0.076 A  
HETATM   33  C   UNL     1      -7.862   4.774  65.405  1.00  0.00    -0.091 A  
HETATM   34  C   UNL     1      -8.700   4.136  64.325  1.00  0.00    -0.127 C  
HETATM   35  C   UNL     1      -7.538   4.060  66.573  1.00  0.00    -0.088 A  
HETATM   36  F   UNL     1      -8.963   4.972  63.279  1.00  0.00    -0.140 F  
HETATM   37  F   UNL     1      -9.916   3.724  64.781  1.00  0.00    -0.163 F  
HETATM   38  F   UNL     1      -8.110   3.037  63.780  1.00  0.00    -0.078 F  
ENDBRANCH  28  29
ENDBRANCH  27  28
ENDBRANCH  24  27
ENDBRANCH  23  24
ENDBRANCH  20  22
ENDBRANCH  12  13
ENDBRANCH  11  12
ENDBRANCH   9  10
ENDBRANCH   8   9
ENDBRANCH   7   8
ENDBRANCH   5   7
ENDBRANCH   4   5
ENDBRANCH   2   4
TORSDOF 13
ENDMDL
MODEL      321
REMARK 921   NORMALIZED FREE ENERGY PREDICTED BY IDOCK:   -4.08 KCAL/MOL
REMARK 922        TOTAL FREE ENERGY PREDICTED BY IDOCK:   -9.41 KCAL/MOL
REMARK 923 INTER-LIGAND FREE ENERGY PREDICTED BY IDOCK:   -7.60 KCAL/MOL
REMARK 924 INTRA-LIGAND FREE ENERGY PREDICTED BY IDOCK:   -1.81 KCAL/MOL
REMARK 927      BINDING AFFINITY PREDICTED BY RF-SCORE:    0.00 PKD
ROOT
HETATM    1  C   UNL     1      -9.078   2.122  68.435  1.00  0.00    -0.213 C  
HETATM    2  C   UNL     1      -9.429   3.551  68.036  1.00  0.00    -0.160 C  
HETATM    3  C   UNL     1      -9.883   4.354  69.250  1.00  0.00    -0.218 C  
ENDROOT
BRANCH   2   4
HETATM    4  O   UNL     1      -8.259   4.196  67.502  1.00  0.00    -0.097 OA 
BRANCH   4   5
HETATM    5  C   UNL     1      -7.960   5.401  68.065  1.00  0.00    -0.096 C  
HETATM    6  O   UNL     1      -8.378   6.482  67.672  1.00  0.00    -0.120 OA 
BRANCH   5   7
HETATM    7  C   UNL     1      -6.994   5.220  69.205  1.00  0.00    -0.056 C  
BRANCH   7   8
HETATM    8  C   UNL     1      -6.911   6.507  70.025  1.00  0.00    -0.063 C  
BRANCH   8   9
HETATM    9  C   UNL     1      -8.183   6.813  70.811  1.00  0.00    -0.123 C  
BRANCH   9  10
HETATM   10  C   UNL     1      -8.206   8.213  71.361  1.00  0.00    -0.141 C  
HETATM   11  C   UNL     1      -8.057   9.341  70.649  1.00  0.00    -0.207 C  
BRANCH  11  12
HETATM   12  C   UNL     1      -7.763   9.419  69.177  1.00  0.00    -0.079 C  
BRANCH  12  13
HETATM   13  C   UNL     1      -8.873  10.113  68.377  1.00  0.00    -0.123 C  
HETATM   14  C   UNL     1      -8.650  10.182  66.861  1.00  0.00    -0.126 C  
HETATM   15  O   UNL     1      -8.054   8.989  66.361  1.00  0.00    -0.108 OA 
HETATM   16  C   UNL     1     -10.057  10.298  66.287  1.00  0.00    -0.300 C  
HETATM   17  C   UNL     1     -10.882   9.352  67.154  1.00  0.00    -0.062 C  
HETATM   18  H   UNL     1      -7.916   9.033  65.422  1.00  0.00     0.000 HD 
HETATM   19  O   UNL     1     -10.802   8.023  66.627  1.00  0.00    -0.321 OA 
HETATM   20  C   UNL     1     -10.239   9.393  68.562  1.00  0.00    -0.223 C  
HETATM   21  H   UNL     1     -11.316   7.433  67.168  1.00  0.00     0.000 HD 
BRANCH  20  22
HETATM   22  C   UNL     1     -11.028  10.079  69.663  1.00  0.00    -0.301 C  
HETATM   23  C   UNL     1     -12.193  10.737  69.520  1.00  0.00    -0.292 C  
BRANCH  23  24
HETATM   24  C   UNL     1     -12.962  11.474  70.596  1.00  0.00     0.057 C  
HETATM   25  H   UNL     1     -13.486  11.149  72.456  1.00  0.00     0.000 HD 
HETATM   26  O   UNL     1     -13.002  10.686  71.781  1.00  0.00    -0.438 OA 
BRANCH  24  27
HETATM   27  C   UNL     1     -12.302  12.837  70.888  1.00  0.00    -0.265 C  
BRANCH  27  28
HETATM   28  O   UNL     1     -12.613  13.795  69.862  1.00  0.00    -0.253 OA 
BRANCH  28  29
HETATM   29  C   UNL     1     -11.677  13.872  68.862  1.00  0.00    -0.337 A  
HETATM   30  C   UNL     1     -10.319  14.122  69.073  1.00  0.00    -0.159 A  
HETATM   31  C   UNL     1      -9.434  14.170  67.993  1.00  0.00    -0.213 A  
HETATM   32  C   UNL     1      -9.902  13.960  66.698  1.00  0.00    -0.288 A  
HETATM   33  C   UNL     1     -11.256  13.694  66.466  1.00  0.00    -0.321 A  
HETATM   34  C   UNL     1     -11.764  13.468  65.063  1.00  0.00    -0.334 C  
HETATM   35  C   UNL     1     -12.137  13.639  67.561  1.00  0.00    -0.352 A  
HETATM   36  F   UNL     1     -10.797  13.598  64.110  1.00  0.00    -0.383 F  
HETATM   37  F   UNL     1     -12.745  14.346  64.714  1.00  0.00    -0.424 F  
HETATM   38  F   UNL     1     -12.291  12.225  64.888  1.00  0.00    -0.460 F  
ENDBRANCH  28  29
ENDBRANCH  27  28
ENDBRANCH  24  27
ENDBRANCH  23  24
ENDBRANCH  20  22
ENDBRANCH  12  13
ENDBRANCH  11  12
ENDBRANCH   9  10
ENDBRANCH   8   9
ENDBRANCH   7   8
ENDBRANCH   5   7
ENDBRANCH   4   5
ENDBRANCH   2   4
TORSDOF 13
ENDMDL
MODEL      322
REMARK 921   NORMALIZED FREE ENERGY PREDICTED BY IDOCK:   -4.05 KCAL/MOL
REMARK 922        TOTAL FREE ENERGY PREDICTED BY IDOCK:   -9.36 KCAL/MOL
REMARK 923 INTER-LIGAND FREE ENERGY PREDICTED BY IDOCK:   -7.23 KCAL/MOL
REMARK 924 INTRA-LIGAND FREE ENERGY PREDICTED BY IDOCK:   -2.13 KCAL/MOL
REMARK 927      BINDING AFFINITY PREDICTED BY RF-SCORE:    0.00 PKD
ROOT
HETATM    1  C   UNL     1     -11.284   6.734  72.187  1.00  0.00    -0.294 C  
HETATM    2  C   UNL     1     -10.210   7.345  73.081  1.00  0.00    -0.312 C  
HETATM    3  C   UNL     1     -10.020   6.510  74.343  1.00  0.00    -0.374 C  
ENDROOT
BRANCH   2   4
HETATM    4  O   UNL     1      -8.956   7.357  72.375  1.00  0.00    -0.128 OA 
BRANCH   4   5
HETATM    5  C   UNL     1      -8.943   8.110  71.240  1.00  0.00    -0.146 C  
HETATM    6  O   UNL     1      -9.176   9.311  71.191  1.00  0.00    -0.238 OA 
BRANCH   5   7
HETATM    7  C   UNL     1      -8.660   7.244  70.041  1.00  0.00    -0.140 C  
BRANCH   7   8
HETATM    8  C   UNL     1      -9.173   7.928  68.774  1.00  0.00    -0.143 C  
BRANCH   8   9
HETATM    9  C   UNL     1     -10.275   7.148  68.063  1.00  0.00    -0.223 C  
BRANCH   9  10
HETATM   10  C   UNL     1     -10.353   5.713  68.508  1.00  0.00    -0.265 C  
HETATM   11  C   UNL     1     -10.015   4.641  67.774  1.00  0.00    -0.150 C  
BRANCH  11  12
HETATM   12  C   UNL     1      -9.567   4.665  66.339  1.00  0.00    -0.188 C  
BRANCH  12  13
HETATM   13  C   UNL     1      -8.093   5.058  66.175  1.00  0.00    -0.108 C  
HETATM   14  C   UNL     1      -7.090   3.899  66.228  1.00  0.00    -0.064 C  
HETATM   15  O   UNL     1      -7.592   2.738  65.575  1.00  0.00    -0.074 OA 
HETATM   16  C   UNL     1      -5.889   4.415  65.446  1.00  0.00    -0.022 C  
HETATM   17  C   UNL     1      -6.514   5.169  64.276  1.00  0.00    -0.037 C  
HETATM   18  H   UNL     1      -6.971   2.020  65.608  1.00  0.00     0.000 HD 
HETATM   19  O   UNL     1      -6.789   4.257  63.207  1.00  0.00    -0.040 OA 
HETATM   20  C   UNL     1      -7.842   5.760  64.810  1.00  0.00    -0.114 C  
HETATM   21  H   UNL     1      -7.180   4.726  62.479  1.00  0.00     0.000 HD 
BRANCH  20  22
HETATM   22  C   UNL     1      -7.903   7.266  64.996  1.00  0.00    -0.125 C  
HETATM   23  C   UNL     1      -7.902   8.193  64.021  1.00  0.00    -0.143 C  
BRANCH  23  24
HETATM   24  C   UNL     1      -7.905   9.697  64.191  1.00  0.00    -0.130 C  
HETATM   25  H   UNL     1      -6.978  11.228  63.392  1.00  0.00     0.000 HD 
HETATM   26  O   UNL     1      -6.976  10.283  63.285  1.00  0.00    -0.139 OA 
BRANCH  24  27
HETATM   27  C   UNL     1      -9.318  10.261  63.940  1.00  0.00    -0.291 C  
BRANCH  27  28
HETATM   28  O   UNL     1     -10.234   9.843  64.965  1.00  0.00    -0.221 OA 
BRANCH  28  29
HETATM   29  C   UNL     1     -10.434  10.772  65.955  1.00  0.00    -0.208 A  
HETATM   30  C   UNL     1     -10.070  10.587  67.292  1.00  0.00    -0.242 A  
HETATM   31  C   UNL     1     -10.300  11.595  68.231  1.00  0.00    -0.212 A  
HETATM   32  C   UNL     1     -10.888  12.795  67.838  1.00  0.00    -0.242 A  
HETATM   33  C   UNL     1     -11.247  13.006  66.501  1.00  0.00    -0.335 A  
HETATM   34  C   UNL     1     -11.885  14.304  66.074  1.00  0.00    -0.391 C  
HETATM   35  C   UNL     1     -11.003  11.987  65.561  1.00  0.00    -0.345 A  
HETATM   36  F   UNL     1     -12.095  15.170  67.107  1.00  0.00    -0.267 F  
HETATM   37  F   UNL     1     -13.103  14.123  65.493  1.00  0.00    -0.552 F  
HETATM   38  F   UNL     1     -11.134  14.987  65.168  1.00  0.00    -0.322 F  
ENDBRANCH  28  29
ENDBRANCH  27  28
ENDBRANCH  24  27
ENDBRANCH  23  24
ENDBRANCH  20  22
ENDBRANCH  12  13
ENDBRANCH  11  12
ENDBRANCH   9  10
ENDBRANCH   8   9
ENDBRANCH   7   8
ENDBRANCH   5   7
ENDBRANCH   4   5
ENDBRANCH   2   4
TORSDOF 13
ENDMDL
MODEL      323
REMARK 921   NORMALIZED FREE ENERGY PREDICTED BY IDOCK:   -4.03 KCAL/MOL
REMARK 922        TOTAL FREE ENERGY PREDICTED BY IDOCK:   -9.31 KCAL/MOL
REMARK 923 INTER-LIGAND FREE ENERGY PREDICTED BY IDOCK:   -7.52 KCAL/MOL
REMARK 924 INTRA-LIGAND FREE ENERGY PREDICTED BY IDOCK:   -1.79 KCAL/MOL
REMARK 927      BINDING AFFINITY PREDICTED BY RF-SCORE:    0.00 PKD
ROOT
HETATM    1  C   UNL     1      -8.032  20.145  65.868  1.00  0.00    -0.197 C  
HETATM    2  C   UNL     1      -9.390  19.859  66.499  1.00  0.00    -0.401 C  
HETATM    3  C   UNL     1     -10.509  20.044  65.479  1.00  0.00    -0.315 C  
ENDROOT
BRANCH   2   4
HETATM    4  O   UNL     1      -9.429  18.490  66.942  1.00  0.00    -0.280 OA 
BRANCH   4   5
HETATM    5  C   UNL     1      -9.038  18.293  68.233  1.00  0.00    -0.305 C  
HETATM    6  O   UNL     1      -9.452  18.925  69.196  1.00  0.00    -0.266 OA 
BRANCH   5   7
HETATM    7  C   UNL     1      -7.978  17.226  68.301  1.00  0.00    -0.244 C  
BRANCH   7   8
HETATM    8  C   UNL     1      -7.908  16.479  66.969  1.00  0.00    -0.241 C  
BRANCH   8   9
HETATM    9  C   UNL     1      -8.375  15.029  67.058  1.00  0.00    -0.254 C  
BRANCH   9  10
HETATM   10  C   UNL     1      -9.845  14.908  67.356  1.00  0.00    -0.221 C  
HETATM   11  C   UNL     1     -10.440  13.879  67.979  1.00  0.00    -0.243 C  
BRANCH  11  12
HETATM   12  C   UNL     1      -9.763  12.614  68.430  1.00  0.00    -0.187 C  
BRANCH  12  13
HETATM   13  C   UNL     1     -10.341  11.354  67.773  1.00  0.00    -0.206 C  
HETATM   14  C   UNL     1      -9.939  11.129  66.310  1.00  0.00    -0.219 C  
HETATM   15  O   UNL     1      -8.583  11.494  66.074  1.00  0.00    -0.307 OA 
HETATM   16  C   UNL     1     -10.076   9.623  66.119  1.00  0.00    -0.328 C  
HETATM   17  C   UNL     1      -9.542   9.041  67.424  1.00  0.00    -0.152 C  
HETATM   18  H   UNL     1      -8.334  11.354  65.167  1.00  0.00     0.000 HD 
HETATM   19  O   UNL     1      -8.120   8.899  67.342  1.00  0.00    -0.107 OA 
HETATM   20  C   UNL     1      -9.899  10.068  68.527  1.00  0.00    -0.168 C  
HETATM   21  H   UNL     1      -7.787   8.537  68.156  1.00  0.00     0.000 HD 
BRANCH  20  22
HETATM   22  C   UNL     1     -10.975   9.670  69.521  1.00  0.00    -0.233 C  
HETATM   23  C   UNL     1     -10.801   9.426  70.833  1.00  0.00    -0.392 C  
BRANCH  23  24
HETATM   24  C   UNL     1     -11.852   8.974  71.825  1.00  0.00    -0.372 C  
HETATM   25  H   UNL     1     -13.540   7.980  71.764  1.00  0.00     0.000 HD 
HETATM   26  O   UNL     1     -12.880   8.264  71.142  1.00  0.00    -0.219 OA 
BRANCH  24  27
HETATM   27  C   UNL     1     -11.216   8.076  72.906  1.00  0.00    -0.322 C  
BRANCH  27  28
HETATM   28  O   UNL     1      -9.814   7.881  72.661  1.00  0.00    -0.204 OA 
BRANCH  28  29
HETATM   29  C   UNL     1      -9.506   6.675  72.081  1.00  0.00    -0.144 A  
HETATM   30  C   UNL     1     -10.305   5.533  72.173  1.00  0.00    -0.263 A  
HETATM   31  C   UNL     1      -9.919   4.350  71.539  1.00  0.00    -0.250 A  
HETATM   32  C   UNL     1      -8.737   4.306  70.802  1.00  0.00    -0.125 A  
HETATM   33  C   UNL     1      -7.930   5.444  70.685  1.00  0.00    -0.105 A  
HETATM   34  C   UNL     1      -6.649   5.398  69.889  1.00  0.00    -0.046 C  
HETATM   35  C   UNL     1      -8.333   6.633  71.321  1.00  0.00    -0.124 A  
HETATM   36  F   UNL     1      -6.377   4.165  69.373  1.00  0.00    -0.025 F  
HETATM   37  F   UNL     1      -5.559   5.734  70.633  1.00  0.00    -0.011 F  
HETATM   38  F   UNL     1      -6.658   6.249  68.827  1.00  0.00    -0.045 F  
ENDBRANCH  28  29
ENDBRANCH  27  28
ENDBRANCH  24  27
ENDBRANCH  23  24
ENDBRANCH  20  22
ENDBRANCH  12  13
ENDBRANCH  11  12
ENDBRANCH   9  10
ENDBRANCH   8   9
ENDBRANCH   7   8
ENDBRANCH   5   7
ENDBRANCH   4   5
ENDBRANCH   2   4
TORSDOF 13
ENDMDL
MODEL      324
REMARK 921   NORMALIZED FREE ENERGY PREDICTED BY IDOCK:   -4.01 KCAL/MOL
REMARK 922        TOTAL FREE ENERGY PREDICTED BY IDOCK:   -9.28 KCAL/MOL
REMARK 923 INTER-LIGAND FREE ENERGY PREDICTED BY IDOCK:   -7.59 KCAL/MOL
REMARK 924 INTRA-LIGAND FREE ENERGY PREDICTED BY IDOCK:   -1.70 KCAL/MOL
REMARK 927      BINDING AFFINITY PREDICTED BY RF-SCORE:    0.00 PKD
ROOT
HETATM    1  C   UNL     1     -13.843   7.275  71.422  1.00  0.00    -0.416 C  
HETATM    2  C   UNL     1     -12.462   6.749  71.798  1.00  0.00    -0.349 C  
HETATM    3  C   UNL     1     -11.595   6.571  70.556  1.00  0.00    -0.455 C  
ENDROOT
BRANCH   2   4
HETATM    4  O   UNL     1     -11.806   7.703  72.652  1.00  0.00    -0.298 OA 
BRANCH   4   5
HETATM    5  C   UNL     1     -10.699   7.234  73.293  1.00  0.00    -0.383 C  
HETATM    6  O   UNL     1     -10.661   6.221  73.979  1.00  0.00    -0.280 OA 
BRANCH   5   7
HETATM    7  C   UNL     1      -9.539   8.171  73.087  1.00  0.00    -0.307 C  
BRANCH   7   8
HETATM    8  C   UNL     1      -8.234   7.377  73.024  1.00  0.00    -0.139 C  
BRANCH   8   9
HETATM    9  C   UNL     1      -7.535   7.460  71.670  1.00  0.00    -0.084 C  
BRANCH   9  10
HETATM   10  C   UNL     1      -6.903   8.802  71.422  1.00  0.00    -0.084 C  
HETATM   11  C   UNL     1      -7.414   9.785  70.664  1.00  0.00    -0.050 C  
BRANCH  11  12
HETATM   12  C   UNL     1      -8.680   9.704  69.856  1.00  0.00    -0.236 C  
BRANCH  12  13
HETATM   13  C   UNL     1      -8.431   9.748  68.343  1.00  0.00    -0.114 C  
HETATM   14  C   UNL     1      -7.865   8.463  67.729  1.00  0.00    -0.107 C  
HETATM   15  O   UNL     1      -8.435   7.300  68.321  1.00  0.00    -0.124 OA 
HETATM   16  C   UNL     1      -8.302   8.528  66.270  1.00  0.00    -0.118 C  
HETATM   17  C   UNL     1      -9.720   9.085  66.341  1.00  0.00    -0.268 C  
HETATM   18  H   UNL     1      -8.084   6.503  67.940  1.00  0.00     0.000 HD 
HETATM   19  O   UNL     1     -10.649   8.015  66.546  1.00  0.00    -0.426 OA 
HETATM   20  C   UNL     1      -9.745  10.036  67.562  1.00  0.00    -0.189 C  
HETATM   21  H   UNL     1     -11.532   8.362  66.591  1.00  0.00     0.000 HD 
BRANCH  20  22
HETATM   22  C   UNL     1      -9.848  11.524  67.277  1.00  0.00    -0.208 C  
HETATM   23  C   UNL     1      -9.515  12.524  68.115  1.00  0.00    -0.214 C  
BRANCH  23  24
HETATM   24  C   UNL     1      -9.665  14.010  67.868  1.00  0.00    -0.229 C  
HETATM   25  H   UNL     1      -9.960  15.616  68.952  1.00  0.00     0.000 HD 
HETATM   26  O   UNL     1      -9.866  14.683  69.107  1.00  0.00    -0.202 OA 
BRANCH  24  27
HETATM   27  C   UNL     1      -8.412  14.564  67.161  1.00  0.00    -0.212 C  
BRANCH  27  28
HETATM   28  O   UNL     1      -8.623  15.912  66.710  1.00  0.00    -0.214 OA 
BRANCH  28  29
HETATM   29  C   UNL     1      -7.734  16.823  67.223  1.00  0.00    -0.172 A  
HETATM   30  C   UNL     1      -7.043  16.655  68.425  1.00  0.00    -0.167 A  
HETATM   31  C   UNL     1      -6.145  17.632  68.865  1.00  0.00    -0.197 A  
HETATM   32  C   UNL     1      -5.929  18.776  68.100  1.00  0.00    -0.214 A  
HETATM   33  C   UNL     1      -6.600  18.956  66.885  1.00  0.00    -0.199 A  
HETATM   34  C   UNL     1      -6.368  20.195  66.057  1.00  0.00    -0.205 C  
HETATM   35  C   UNL     1      -7.496  17.963  66.448  1.00  0.00    -0.308 A  
HETATM   36  F   UNL     1      -5.507  21.081  66.638  1.00  0.00    -0.188 F  
HETATM   37  F   UNL     1      -7.514  20.894  65.827  1.00  0.00    -0.047 F  
HETATM   38  F   UNL     1      -5.842  19.920  64.832  1.00  0.00    -0.184 F  
ENDBRANCH  28  29
ENDBRANCH  27  28
ENDBRANCH  24  27
ENDBRANCH  23  24
ENDBRANCH  20  22
ENDBRANCH  12  13
ENDBRANCH  11  12
ENDBRANCH   9  10
ENDBRANCH   8   9
ENDBRANCH   7   8
ENDBRANCH   5   7
ENDBRANCH   4   5
ENDBRANCH   2   4
TORSDOF 13
ENDMDL
MODEL      325
REMARK 921   NORMALIZED FREE ENERGY PREDICTED BY IDOCK:   -4.00 KCAL/MOL
REMARK 922        TOTAL FREE ENERGY PREDICTED BY IDOCK:   -9.27 KCAL/MOL
REMARK 923 INTER-LIGAND FREE ENERGY PREDICTED BY IDOCK:   -8.53 KCAL/MOL
REMARK 924 INTRA-LIGAND FREE ENERGY PREDICTED BY IDOCK:   -0.74 KCAL/MOL
REMARK 927      BINDING AFFINITY PREDICTED BY RF-SCORE:    0.00 PKD
ROOT
HETATM    1  C   UNL     1      -6.268  20.421  64.731  1.00  0.00    -0.335 C  
HETATM    2  C   UNL     1      -6.475  18.921  64.908  1.00  0.00    -0.075 C  
HETATM    3  C   UNL     1      -5.141  18.213  65.124  1.00  0.00    -0.158 C  
ENDROOT
BRANCH   2   4
HETATM    4  O   UNL     1      -7.284  18.688  66.075  1.00  0.00    -0.248 OA 
BRANCH   4   5
HETATM    5  C   UNL     1      -8.283  19.595  66.272  1.00  0.00    -0.347 C  
HETATM    6  O   UNL     1      -9.196  19.816  65.488  1.00  0.00    -0.237 OA 
BRANCH   5   7
HETATM    7  C   UNL     1      -8.070  20.332  67.568  1.00  0.00    -0.351 C  
BRANCH   7   8
HETATM    8  C   UNL     1      -8.604  19.498  68.733  1.00  0.00    -0.336 C  
BRANCH   8   9
HETATM    9  C   UNL     1     -10.127  19.480  68.822  1.00  0.00    -0.519 C  
BRANCH   9  10
HETATM   10  C   UNL     1     -10.752  18.454  67.916  1.00  0.00    -0.334 C  
HETATM   11  C   UNL     1     -10.523  17.132  67.949  1.00  0.00    -0.369 C  
BRANCH  11  12
HETATM   12  C   UNL     1      -9.540  16.432  68.846  1.00  0.00    -0.252 C  
BRANCH  12  13
HETATM   13  C   UNL     1      -8.548  15.548  68.078  1.00  0.00    -0.155 C  
HETATM   14  C   UNL     1      -7.072  15.938  68.216  1.00  0.00    -0.116 C  
HETATM   15  O   UNL     1      -6.762  16.372  69.536  1.00  0.00    -0.213 OA 
HETATM   16  C   UNL     1      -6.321  14.641  67.942  1.00  0.00    -0.173 C  
HETATM   17  C   UNL     1      -7.164  13.579  68.642  1.00  0.00    -0.107 C  
HETATM   18  H   UNL     1      -5.847  16.614  69.621  1.00  0.00     0.000 HD 
HETATM   19  O   UNL     1      -6.777  13.486  70.017  1.00  0.00    -0.356 OA 
HETATM   20  C   UNL     1      -8.630  14.067  68.546  1.00  0.00    -0.147 C  
HETATM   21  H   UNL     1      -7.302  12.825  70.453  1.00  0.00     0.000 HD 
BRANCH  20  22
HETATM   22  C   UNL     1      -9.557  13.296  67.624  1.00  0.00    -0.213 C  
HETATM   23  C   UNL     1      -9.516  13.280  66.279  1.00  0.00    -0.196 C  
BRANCH  23  24
HETATM   24  C   UNL     1     -10.466  12.562  65.344  1.00  0.00    -0.282 C  
HETATM   25  H   UNL     1     -10.589  12.218  63.419  1.00  0.00     0.000 HD 
HETATM   26  O   UNL     1      -9.992  12.668  64.005  1.00  0.00    -0.312 OA 
BRANCH  24  27
HETATM   27  C   UNL     1     -10.593  11.079  65.745  1.00  0.00    -0.195 C  
BRANCH  27  28
HETATM   28  O   UNL     1      -9.507  10.676  66.596  1.00  0.00    -0.163 OA 
BRANCH  28  29
HETATM   29  C   UNL     1      -9.755   9.539  67.325  1.00  0.00    -0.167 A  
HETATM   30  C   UNL     1     -10.084   8.303  66.764  1.00  0.00    -0.373 A  
HETATM   31  C   UNL     1     -10.307   7.194  67.584  1.00  0.00    -0.276 A  
HETATM   32  C   UNL     1     -10.193   7.314  68.967  1.00  0.00    -0.197 A  
HETATM   33  C   UNL     1      -9.850   8.540  69.548  1.00  0.00    -0.187 A  
HETATM   34  C   UNL     1      -9.728   8.672  71.046  1.00  0.00    -0.210 C  
HETATM   35  C   UNL     1      -9.619   9.649  68.713  1.00  0.00    -0.153 A  
HETATM   36  F   UNL     1     -10.025   7.522  71.716  1.00  0.00    -0.177 F  
HETATM   37  F   UNL     1     -10.560   9.621  71.557  1.00  0.00    -0.399 F  
HETATM   38  F   UNL     1      -8.473   9.017  71.444  1.00  0.00    -0.201 F  
ENDBRANCH  28  29
ENDBRANCH  27  28
ENDBRANCH  24  27
ENDBRANCH  23  24
ENDBRANCH  20  22
ENDBRANCH  12  13
ENDBRANCH  11  12
ENDBRANCH   9  10
ENDBRANCH   8   9
ENDBRANCH   7   8
ENDBRANCH   5   7
ENDBRANCH   4   5
ENDBRANCH   2   4
TORSDOF 13
ENDMDL
MODEL      326
REMARK 921   NORMALIZED FREE ENERGY PREDICTED BY IDOCK:   -3.99 KCAL/MOL
REMARK 922        TOTAL FREE ENERGY PREDICTED BY IDOCK:   -9.24 KCAL/MOL
REMARK 923 INTER-LIGAND FREE ENERGY PREDICTED BY IDOCK:   -7.50 KCAL/MOL
REMARK 924 INTRA-LIGAND FREE ENERGY PREDICTED BY IDOCK:   -1.74 KCAL/MOL
REMARK 927      BINDING AFFINITY PREDICTED BY RF-SCORE:    0.00 PKD
ROOT
HETATM    1  C   UNL     1     -10.625  17.197  67.787  1.00  0.00    -0.360 C  
HETATM    2  C   UNL     1     -10.472  17.087  66.274  1.00  0.00    -0.258 C  
HETATM    3  C   UNL     1      -9.054  17.454  65.847  1.00  0.00     0.033 C  
ENDROOT
BRANCH   2   4
HETATM    4  O   UNL     1     -10.708  15.727  65.869  1.00  0.00    -0.321 OA 
BRANCH   4   5
HETATM    5  C   UNL     1     -11.257  15.584  64.630  1.00  0.00    -0.371 C  
HETATM    6  O   UNL     1     -11.458  16.498  63.841  1.00  0.00    -1.145 OA 
BRANCH   5   7
HETATM    7  C   UNL     1     -11.636  14.147  64.389  1.00  0.00    -0.377 C  
BRANCH   7   8
HETATM    8  C   UNL     1     -12.347  13.585  65.621  1.00  0.00    -0.522 C  
BRANCH   8   9
HETATM    9  C   UNL     1     -11.614  12.413  66.267  1.00  0.00    -0.449 C  
BRANCH   9  10
HETATM   10  C   UNL     1     -11.921  12.270  67.733  1.00  0.00    -0.229 C  
HETATM   11  C   UNL     1     -11.315  12.930  68.733  1.00  0.00    -0.333 C  
BRANCH  11  12
HETATM   12  C   UNL     1     -10.159  13.880  68.584  1.00  0.00    -0.203 C  
BRANCH  12  13
HETATM   13  C   UNL     1      -8.925  13.232  67.941  1.00  0.00    -0.199 C  
HETATM   14  C   UNL     1      -7.807  14.200  67.536  1.00  0.00    -0.192 C  
HETATM   15  O   UNL     1      -7.645  15.247  68.487  1.00  0.00    -0.112 OA 
HETATM   16  C   UNL     1      -6.551  13.336  67.546  1.00  0.00    -0.153 C  
HETATM   17  C   UNL     1      -6.734  12.445  68.771  1.00  0.00    -0.092 C  
HETATM   18  H   UNL     1      -6.952  15.846  68.235  1.00  0.00     0.000 HD 
HETATM   19  O   UNL     1      -6.249  13.122  69.935  1.00  0.00    -0.182 OA 
HETATM   20  C   UNL     1      -8.258  12.209  68.903  1.00  0.00     0.161 C  
HETATM   21  H   UNL     1      -6.363  12.567  70.698  1.00  0.00     0.000 HD 
BRANCH  20  22
HETATM   22  C   UNL     1      -8.771  10.814  68.592  1.00  0.00    -0.152 C  
HETATM   23  C   UNL     1      -9.418   9.992  69.439  1.00  0.00    -0.237 C  
BRANCH  23  24
HETATM   24  C   UNL     1      -9.885   8.579  69.162  1.00  0.00    -0.186 C  
HETATM   25  H   UNL     1     -10.953   7.670  67.792  1.00  0.00     0.000 HD 
HETATM   26  O   UNL     1     -10.659   8.557  67.966  1.00  0.00    -0.207 OA 
BRANCH  24  27
HETATM   27  C   UNL     1      -8.676   7.632  69.028  1.00  0.00    -0.136 C  
BRANCH  27  28
HETATM   28  O   UNL     1      -8.532   7.160  67.678  1.00  0.00    -0.119 OA 
BRANCH  28  29
HETATM   29  C   UNL     1      -8.665   5.802  67.539  1.00  0.00    -0.107 A  
HETATM   30  C   UNL     1      -8.804   5.147  66.312  1.00  0.00    -0.124 A  
HETATM   31  C   UNL     1      -8.921   3.756  66.265  1.00  0.00    -0.136 A  
HETATM   32  C   UNL     1      -8.892   3.012  67.442  1.00  0.00    -0.162 A  
HETATM   33  C   UNL     1      -8.739   3.648  68.680  1.00  0.00    -0.139 A  
HETATM   34  C   UNL     1      -8.708   2.843  69.956  1.00  0.00    -0.069 C  
HETATM   35  C   UNL     1      -8.613   5.048  68.716  1.00  0.00    -0.090 A  
HETATM   36  F   UNL     1      -8.887   1.505  69.757  1.00  0.00    -0.076 F  
HETATM   37  F   UNL     1      -9.680   3.217  70.834  1.00  0.00    -0.219 F  
HETATM   38  F   UNL     1      -7.530   2.962  70.626  1.00  0.00    -0.036 F  
ENDBRANCH  28  29
ENDBRANCH  27  28
ENDBRANCH  24  27
ENDBRANCH  23  24
ENDBRANCH  20  22
ENDBRANCH  12  13
ENDBRANCH  11  12
ENDBRANCH   9  10
ENDBRANCH   8   9
ENDBRANCH   7   8
ENDBRANCH   5   7
ENDBRANCH   4   5
ENDBRANCH   2   4
TORSDOF 13
ENDMDL
MODEL      327
REMARK 921   NORMALIZED FREE ENERGY PREDICTED BY IDOCK:   -3.98 KCAL/MOL
REMARK 922        TOTAL FREE ENERGY PREDICTED BY IDOCK:   -9.23 KCAL/MOL
REMARK 923 INTER-LIGAND FREE ENERGY PREDICTED BY IDOCK:   -8.54 KCAL/MOL
REMARK 924 INTRA-LIGAND FREE ENERGY PREDICTED BY IDOCK:   -0.69 KCAL/MOL
REMARK 927      BINDING AFFINITY PREDICTED BY RF-SCORE:    0.00 PKD
ROOT
HETATM    1  C   UNL     1      -7.915   9.607  63.450  1.00  0.00    -0.145 C  
HETATM    2  C   UNL     1      -7.214   8.539  64.282  1.00  0.00    -0.095 C  
HETATM    3  C   UNL     1      -6.630   9.144  65.555  1.00  0.00    -0.068 C  
ENDROOT
BRANCH   2   4
HETATM    4  O   UNL     1      -8.170   7.539  64.676  1.00  0.00    -0.126 OA 
BRANCH   4   5
HETATM    5  C   UNL     1      -8.796   7.780  65.863  1.00  0.00    -0.142 C  
HETATM    6  O   UNL     1      -9.434   8.790  66.129  1.00  0.00    -0.218 OA 
BRANCH   5   7
HETATM    7  C   UNL     1      -8.543   6.650  66.826  1.00  0.00    -0.118 C  
BRANCH   7   8
HETATM    8  C   UNL     1      -9.833   6.300  67.567  1.00  0.00    -0.139 C  
BRANCH   8   9
HETATM    9  C   UNL     1     -10.205   7.306  68.652  1.00  0.00    -0.191 C  
BRANCH   9  10
HETATM   10  C   UNL     1      -9.458   7.080  69.938  1.00  0.00    -0.157 C  
HETATM   11  C   UNL     1      -9.445   7.904  70.997  1.00  0.00    -0.172 C  
BRANCH  11  12
HETATM   12  C   UNL     1     -10.114   9.249  71.072  1.00  0.00    -0.373 C  
BRANCH  12  13
HETATM   13  C   UNL     1     -11.611   9.196  70.739  1.00  0.00    -0.329 C  
HETATM   14  C   UNL     1     -12.495   8.502  71.783  1.00  0.00    -0.342 C  
HETATM   15  O   UNL     1     -12.072   8.796  73.110  1.00  0.00    -0.088 OA 
HETATM   16  C   UNL     1     -13.873   9.117  71.565  1.00  0.00    -0.353 C  
HETATM   17  C   UNL     1     -13.575  10.589  71.298  1.00  0.00     0.104 C  
HETATM   18  H   UNL     1     -12.620   8.366  73.757  1.00  0.00     0.000 HD 
HETATM   19  O   UNL     1     -13.482  11.295  72.539  1.00  0.00    -0.493 OA 
HETATM   20  C   UNL     1     -12.205  10.623  70.576  1.00  0.00    -0.449 C  
HETATM   21  H   UNL     1     -13.296  12.212  72.373  1.00  0.00     0.000 HD 
BRANCH  20  22
HETATM   22  C   UNL     1     -12.208  11.006  69.107  1.00  0.00    -0.229 C  
HETATM   23  C   UNL     1     -11.177  11.525  68.414  1.00  0.00    -0.314 C  
BRANCH  23  24
HETATM   24  C   UNL     1     -11.180  11.963  66.965  1.00  0.00    -0.323 C  
HETATM   25  H   UNL     1     -12.464  12.757  65.715  1.00  0.00     0.000 HD 
HETATM   26  O   UNL     1     -12.462  12.483  66.624  1.00  0.00    -0.352 OA 
BRANCH  24  27
HETATM   27  C   UNL     1     -10.095  13.032  66.726  1.00  0.00    -0.247 C  
BRANCH  27  28
HETATM   28  O   UNL     1      -9.583  13.540  67.970  1.00  0.00    -0.207 OA 
BRANCH  28  29
HETATM   29  C   UNL     1     -10.044  14.790  68.299  1.00  0.00    -0.221 A  
HETATM   30  C   UNL     1     -10.644  15.110  69.520  1.00  0.00    -0.277 A  
HETATM   31  C   UNL     1     -11.072  16.415  69.775  1.00  0.00    -0.305 A  
HETATM   32  C   UNL     1     -10.895  17.408  68.814  1.00  0.00    -0.081 A  
HETATM   33  C   UNL     1     -10.282  17.112  67.591  1.00  0.00    -0.329 A  
HETATM   34  C   UNL     1     -10.090  18.186  66.549  1.00  0.00    -0.386 C  
HETATM   35  C   UNL     1      -9.847  15.796  67.348  1.00  0.00    -0.233 A  
HETATM   36  F   UNL     1     -10.604  19.395  66.917  1.00  0.00    -0.449 F  
HETATM   37  F   UNL     1     -10.686  17.878  65.364  1.00  0.00    -0.408 F  
HETATM   38  F   UNL     1      -8.779  18.414  66.263  1.00  0.00    -0.282 F  
ENDBRANCH  28  29
ENDBRANCH  27  28
ENDBRANCH  24  27
ENDBRANCH  23  24
ENDBRANCH  20  22
ENDBRANCH  12  13
ENDBRANCH  11  12
ENDBRANCH   9  10
ENDBRANCH   8   9
ENDBRANCH   7   8
ENDBRANCH   5   7
ENDBRANCH   4   5
ENDBRANCH   2   4
TORSDOF 13
ENDMDL
MODEL      328
REMARK 921   NORMALIZED FREE ENERGY PREDICTED BY IDOCK:   -3.98 KCAL/MOL
REMARK 922        TOTAL FREE ENERGY PREDICTED BY IDOCK:   -9.22 KCAL/MOL
REMARK 923 INTER-LIGAND FREE ENERGY PREDICTED BY IDOCK:   -7.43 KCAL/MOL
REMARK 924 INTRA-LIGAND FREE ENERGY PREDICTED BY IDOCK:   -1.80 KCAL/MOL
REMARK 927      BINDING AFFINITY PREDICTED BY RF-SCORE:    0.00 PKD
ROOT
HETATM    1  C   UNL     1     -12.391  12.434  63.908  1.00  0.00    -0.602 C  
HETATM    2  C   UNL     1     -11.750  13.623  64.615  1.00  0.00    -0.388 C  
HETATM    3  C   UNL     1     -12.320  14.936  64.088  1.00  0.00    -0.212 C  
ENDROOT
BRANCH   2   4
HETATM    4  O   UNL     1     -12.045  13.555  66.022  1.00  0.00    -0.396 OA 
BRANCH   4   5
HETATM    5  C   UNL     1     -10.952  13.507  66.836  1.00  0.00    -0.288 C  
HETATM    6  O   UNL     1     -10.005  14.280  66.785  1.00  0.00    -0.252 OA 
BRANCH   5   7
HETATM    7  C   UNL     1     -11.048  12.330  67.769  1.00  0.00    -0.304 C  
BRANCH   7   8
HETATM    8  C   UNL     1     -10.908  11.029  66.980  1.00  0.00    -0.334 C  
BRANCH   8   9
HETATM    9  C   UNL     1     -11.024   9.776  67.843  1.00  0.00    -0.246 C  
BRANCH   9  10
HETATM   10  C   UNL     1     -10.193   8.633  67.327  1.00  0.00    -0.337 C  
HETATM   11  C   UNL     1     -10.199   7.377  67.801  1.00  0.00    -0.250 C  
BRANCH  11  12
HETATM   12  C   UNL     1     -10.981   6.891  68.990  1.00  0.00    -0.225 C  
BRANCH  12  13
HETATM   13  C   UNL     1     -10.897   7.839  70.194  1.00  0.00    -0.248 C  
HETATM   14  C   UNL     1     -12.242   8.319  70.752  1.00  0.00     0.003 C  
HETATM   15  O   UNL     1     -13.220   7.284  70.730  1.00  0.00    -0.596 OA 
HETATM   16  C   UNL     1     -11.935   8.665  72.205  1.00  0.00    -0.449 C  
HETATM   17  C   UNL     1     -10.983   7.558  72.648  1.00  0.00    -0.336 C  
HETATM   18  H   UNL     1     -14.054   7.582  71.077  1.00  0.00     0.000 HD 
HETATM   19  O   UNL     1     -11.736   6.428  73.102  1.00  0.00    -0.434 OA 
HETATM   20  C   UNL     1     -10.166   7.169  71.392  1.00  0.00    -0.203 C  
HETATM   21  H   UNL     1     -11.143   5.739  73.377  1.00  0.00     0.000 HD 
BRANCH  20  22
HETATM   22  C   UNL     1      -8.699   7.561  71.373  1.00  0.00    -0.129 C  
HETATM   23  C   UNL     1      -8.116   8.436  70.533  1.00  0.00    -0.107 C  
BRANCH  23  24
HETATM   24  C   UNL     1      -6.647   8.794  70.464  1.00  0.00    -0.042 C  
HETATM   25  H   UNL     1      -5.032   8.411  71.507  1.00  0.00     0.000 HD 
HETATM   26  O   UNL     1      -5.954   8.186  71.550  1.00  0.00    -0.034 OA 
BRANCH  24  27
HETATM   27  C   UNL     1      -6.044   8.328  69.123  1.00  0.00    -0.039 C  
BRANCH  27  28
HETATM   28  O   UNL     1      -7.003   7.585  68.353  1.00  0.00    -0.074 OA 
BRANCH  28  29
HETATM   29  C   UNL     1      -6.756   6.236  68.296  1.00  0.00    -0.068 A  
HETATM   30  C   UNL     1      -5.499   5.677  68.055  1.00  0.00    -0.008 A  
HETATM   31  C   UNL     1      -5.338   4.289  68.028  1.00  0.00    -0.015 A  
HETATM   32  C   UNL     1      -6.432   3.455  68.250  1.00  0.00    -0.037 A  
HETATM   33  C   UNL     1      -7.697   3.996  68.509  1.00  0.00    -0.065 A  
HETATM   34  C   UNL     1      -8.882   3.094  68.749  1.00  0.00    -0.116 C  
HETATM   35  C   UNL     1      -7.846   5.394  68.542  1.00  0.00    -0.088 A  
HETATM   36  F   UNL     1      -8.583   1.767  68.639  1.00  0.00    -0.070 F  
HETATM   37  F   UNL     1      -9.896   3.316  67.867  1.00  0.00    -0.230 F  
HETATM   38  F   UNL     1      -9.420   3.249  69.989  1.00  0.00    -0.208 F  
ENDBRANCH  28  29
ENDBRANCH  27  28
ENDBRANCH  24  27
ENDBRANCH  23  24
ENDBRANCH  20  22
ENDBRANCH  12  13
ENDBRANCH  11  12
ENDBRANCH   9  10
ENDBRANCH   8   9
ENDBRANCH   7   8
ENDBRANCH   5   7
ENDBRANCH   4   5
ENDBRANCH   2   4
TORSDOF 13
ENDMDL
MODEL      329
REMARK 921   NORMALIZED FREE ENERGY PREDICTED BY IDOCK:   -3.97 KCAL/MOL
REMARK 922        TOTAL FREE ENERGY PREDICTED BY IDOCK:   -9.21 KCAL/MOL
REMARK 923 INTER-LIGAND FREE ENERGY PREDICTED BY IDOCK:   -6.63 KCAL/MOL
REMARK 924 INTRA-LIGAND FREE ENERGY PREDICTED BY IDOCK:   -2.58 KCAL/MOL
REMARK 927      BINDING AFFINITY PREDICTED BY RF-SCORE:    0.00 PKD
ROOT
HETATM    1  C   UNL     1     -10.656   9.303  68.645  1.00  0.00    -0.219 C  
HETATM    2  C   UNL     1     -10.496   8.836  70.088  1.00  0.00    -0.213 C  
HETATM    3  C   UNL     1      -9.195   9.362  70.685  1.00  0.00    -0.303 C  
ENDROOT
BRANCH   2   4
HETATM    4  O   UNL     1     -11.579   9.358  70.879  1.00  0.00    -0.277 OA 
BRANCH   4   5
HETATM    5  C   UNL     1     -12.113   8.478  71.773  1.00  0.00    -0.333 C  
HETATM    6  O   UNL     1     -12.610   8.785  72.848  1.00  0.00    -0.288 OA 
BRANCH   5   7
HETATM    7  C   UNL     1     -11.949   7.066  71.278  1.00  0.00    -0.388 C  
BRANCH   7   8
HETATM    8  C   UNL     1     -11.636   6.137  72.451  1.00  0.00    -0.338 C  
BRANCH   8   9
HETATM    9  C   UNL     1     -10.663   5.016  72.098  1.00  0.00    -0.227 C  
BRANCH   9  10
HETATM   10  C   UNL     1      -9.364   5.526  71.537  1.00  0.00    -0.172 C  
HETATM   11  C   UNL     1      -8.973   5.446  70.256  1.00  0.00    -0.158 C  
BRANCH  11  12
HETATM   12  C   UNL     1      -9.726   4.761  69.149  1.00  0.00    -0.258 C  
BRANCH  12  13
HETATM   13  C   UNL     1      -8.952   4.730  67.824  1.00  0.00    -0.122 C  
HETATM   14  C   UNL     1      -8.640   3.332  67.275  1.00  0.00    -0.110 C  
HETATM   15  O   UNL     1      -9.719   2.429  67.489  1.00  0.00    -0.397 OA 
HETATM   16  C   UNL     1      -8.481   3.553  65.776  1.00  0.00    -0.108 C  
HETATM   17  C   UNL     1      -9.579   4.558  65.439  1.00  0.00    -0.179 C  
HETATM   18  H   UNL     1      -9.525   1.563  67.149  1.00  0.00     0.000 HD 
HETATM   19  O   UNL     1     -10.805   3.866  65.184  1.00  0.00    -0.500 OA 
HETATM   20  C   UNL     1      -9.737   5.453  66.693  1.00  0.00    -0.174 C  
HETATM   21  H   UNL     1     -11.488   4.492  64.975  1.00  0.00     0.000 HD 
BRANCH  20  22
HETATM   22  C   UNL     1      -9.257   6.889  66.583  1.00  0.00    -0.185 C  
HETATM   23  C   UNL     1      -9.389   7.697  65.515  1.00  0.00     0.346 C  
BRANCH  23  24
HETATM   24  C   UNL     1      -8.867   9.110  65.369  1.00  0.00    -0.196 C  
HETATM   25  H   UNL     1      -7.415  10.005  64.403  1.00  0.00     0.000 HD 
HETATM   26  O   UNL     1      -7.743   9.118  64.494  1.00  0.00    -0.106 OA 
BRANCH  24  27
HETATM   27  C   UNL     1      -9.972  10.035  64.820  1.00  0.00    -0.178 C  
BRANCH  27  28
HETATM   28  O   UNL     1      -9.528  11.401  64.769  1.00  0.00    -0.216 OA 
BRANCH  28  29
HETATM   29  C   UNL     1      -9.461  12.018  65.993  1.00  0.00    -0.219 A  
HETATM   30  C   UNL     1     -10.543  12.642  66.619  1.00  0.00    -0.267 A  
HETATM   31  C   UNL     1     -10.386  13.234  67.874  1.00  0.00    -0.239 A  
HETATM   32  C   UNL     1      -9.149  13.198  68.513  1.00  0.00    -0.053 A  
HETATM   33  C   UNL     1      -8.056  12.563  67.910  1.00  0.00    -0.163 A  
HETATM   34  C   UNL     1      -6.715  12.524  68.601  1.00  0.00    -0.087 C  
HETATM   35  C   UNL     1      -8.227  11.963  66.650  1.00  0.00    -0.088 A  
HETATM   36  F   UNL     1      -6.701  13.188  69.793  1.00  0.00    -0.091 F  
HETATM   37  F   UNL     1      -5.725  13.087  67.855  1.00  0.00    -0.079 F  
HETATM   38  F   UNL     1      -6.303  11.257  68.880  1.00  0.00    -0.047 F  
ENDBRANCH  28  29
ENDBRANCH  27  28
ENDBRANCH  24  27
ENDBRANCH  23  24
ENDBRANCH  20  22
ENDBRANCH  12  13
ENDBRANCH  11  12
ENDBRANCH   9  10
ENDBRANCH   8   9
ENDBRANCH   7   8
ENDBRANCH   5   7
ENDBRANCH   4   5
ENDBRANCH   2   4
TORSDOF 13
ENDMDL
MODEL      330
REMARK 921   NORMALIZED FREE ENERGY PREDICTED BY IDOCK:   -3.96 KCAL/MOL
REMARK 922        TOTAL FREE ENERGY PREDICTED BY IDOCK:   -9.20 KCAL/MOL
REMARK 923 INTER-LIGAND FREE ENERGY PREDICTED BY IDOCK:   -8.74 KCAL/MOL
REMARK 924 INTRA-LIGAND FREE ENERGY PREDICTED BY IDOCK:   -0.45 KCAL/MOL
REMARK 927      BINDING AFFINITY PREDICTED BY RF-SCORE:    0.00 PKD
ROOT
HETATM    1  C   UNL     1     -12.965  11.784  63.421  1.00  0.00    -0.177 C  
HETATM    2  C   UNL     1     -11.606  12.051  64.060  1.00  0.00    -0.411 C  
HETATM    3  C   UNL     1     -10.487  11.437  63.225  1.00  0.00    -0.397 C  
ENDROOT
BRANCH   2   4
HETATM    4  O   UNL     1     -11.378  13.471  64.115  1.00  0.00    -0.382 OA 
BRANCH   4   5
HETATM    5  C   UNL     1     -10.325  13.853  64.892  1.00  0.00    -0.406 C  
HETATM    6  O   UNL     1      -9.929  15.004  65.021  1.00  0.00    -0.307 OA 
BRANCH   5   7
HETATM    7  C   UNL     1      -9.679  12.649  65.524  1.00  0.00    -0.110 C  
BRANCH   7   8
HETATM    8  C   UNL     1      -9.797  12.736  67.046  1.00  0.00    -0.231 C  
BRANCH   8   9
HETATM    9  C   UNL     1      -9.919  11.376  67.727  1.00  0.00    -0.192 C  
BRANCH   9  10
HETATM   10  C   UNL     1     -10.693  11.437  69.015  1.00  0.00    -0.245 C  
HETATM   11  C   UNL     1     -11.626  12.350  69.332  1.00  0.00    -0.371 C  
BRANCH  11  12
HETATM   12  C   UNL     1     -12.019  13.532  68.489  1.00  0.00    -0.379 C  
BRANCH  12  13
HETATM   13  C   UNL     1     -11.741  14.877  69.172  1.00  0.00    -0.338 C  
HETATM   14  C   UNL     1     -12.863  15.404  70.075  1.00  0.00    -0.064 C  
HETATM   15  O   UNL     1     -13.490  14.354  70.803  1.00  0.00    -0.427 OA 
HETATM   16  C   UNL     1     -12.145  16.317  71.061  1.00  0.00    -0.048 C  
HETATM   17  C   UNL     1     -10.852  15.568  71.373  1.00  0.00     0.036 C  
HETATM   18  H   UNL     1     -14.186  14.681  71.363  1.00  0.00     0.000 HD 
HETATM   19  O   UNL     1     -11.079  14.638  72.436  1.00  0.00     0.008 OA 
HETATM   20  C   UNL     1     -10.481  14.801  70.080  1.00  0.00     0.078 C  
HETATM   21  H   UNL     1     -10.275  14.171  72.630  1.00  0.00     0.000 HD 
BRANCH  20  22
HETATM   22  C   UNL     1      -9.270  15.293  69.307  1.00  0.00    -0.233 C  
HETATM   23  C   UNL     1      -8.009  14.839  69.423  1.00  0.00    -0.065 C  
BRANCH  23  24
HETATM   24  C   UNL     1      -6.783  15.356  68.702  1.00  0.00    -0.102 C  
HETATM   25  H   UNL     1      -6.317  15.886  66.873  1.00  0.00     0.000 HD 
HETATM   26  O   UNL     1      -7.087  15.562  67.326  1.00  0.00    -0.195 OA 
BRANCH  24  27
HETATM   27  C   UNL     1      -6.302  16.674  69.341  1.00  0.00    -0.215 C  
BRANCH  27  28
HETATM   28  O   UNL     1      -7.377  17.621  69.450  1.00  0.00    -0.101 OA 
BRANCH  28  29
HETATM   29  C   UNL     1      -7.473  18.489  68.392  1.00  0.00    -0.296 A  
HETATM   30  C   UNL     1      -6.414  19.265  67.913  1.00  0.00    -0.254 A  
HETATM   31  C   UNL     1      -6.600  20.114  66.819  1.00  0.00    -0.247 A  
HETATM   32  C   UNL     1      -7.842  20.185  66.194  1.00  0.00    -0.270 A  
HETATM   33  C   UNL     1      -8.912  19.405  66.649  1.00  0.00    -0.385 A  
HETATM   34  C   UNL     1     -10.259  19.482  65.973  1.00  0.00    -0.478 C  
HETATM   35  C   UNL     1      -8.712  18.547  67.746  1.00  0.00    -0.290 A  
HETATM   36  F   UNL     1     -10.303  20.391  64.956  1.00  0.00    -0.340 F  
HETATM   37  F   UNL     1     -11.255  19.840  66.830  1.00  0.00    -0.546 F  
HETATM   38  F   UNL     1     -10.642  18.297  65.425  1.00  0.00    -0.366 F  
ENDBRANCH  28  29
ENDBRANCH  27  28
ENDBRANCH  24  27
ENDBRANCH  23  24
ENDBRANCH  20  22
ENDBRANCH  12  13
ENDBRANCH  11  12
ENDBRANCH   9  10
ENDBRANCH   8   9
ENDBRANCH   7   8
ENDBRANCH   5   7
ENDBRANCH   4   5
ENDBRANCH   2   4
TORSDOF 13
ENDMDL
MODEL      331
REMARK 921   NORMALIZED FREE ENERGY PREDICTED BY IDOCK:   -3.95 KCAL/MOL
REMARK 922        TOTAL FREE ENERGY PREDICTED BY IDOCK:   -9.18 KCAL/MOL
REMARK 923 INTER-LIGAND FREE ENERGY PREDICTED BY IDOCK:   -7.29 KCAL/MOL
REMARK 924 INTRA-LIGAND FREE ENERGY PREDICTED BY IDOCK:   -1.89 KCAL/MOL
REMARK 927      BINDING AFFINITY PREDICTED BY RF-SCORE:    0.00 PKD
ROOT
HETATM    1  C   UNL     1     -13.675  13.333  72.351  1.00  0.00    -0.678 C  
HETATM    2  C   UNL     1     -12.721  13.356  71.162  1.00  0.00    -0.328 C  
HETATM    3  C   UNL     1     -12.883  12.097  70.315  1.00  0.00     0.257 C  
ENDROOT
BRANCH   2   4
HETATM    4  O   UNL     1     -13.033  14.484  70.325  1.00  0.00    -0.289 OA 
BRANCH   4   5
HETATM    5  C   UNL     1     -11.951  15.136  69.813  1.00  0.00    -0.334 C  
HETATM    6  O   UNL     1     -11.262  15.942  70.424  1.00  0.00    -0.322 OA 
BRANCH   5   7
HETATM    7  C   UNL     1     -11.756  14.767  68.366  1.00  0.00    -0.343 C  
BRANCH   7   8
HETATM    8  C   UNL     1     -10.426  14.033  68.192  1.00  0.00    -0.243 C  
BRANCH   8   9
HETATM    9  C   UNL     1     -10.571  12.651  67.560  1.00  0.00    -0.236 C  
BRANCH   9  10
HETATM   10  C   UNL     1     -11.479  12.650  66.361  1.00  0.00    -0.409 C  
HETATM   11  C   UNL     1     -11.106  12.426  65.091  1.00  0.00    -0.348 C  
BRANCH  11  12
HETATM   12  C   UNL     1      -9.696  12.208  64.615  1.00  0.00    -0.059 C  
BRANCH  12  13
HETATM   13  C   UNL     1      -9.379  10.735  64.327  1.00  0.00    -0.281 C  
HETATM   14  C   UNL     1      -8.949  10.421  62.889  1.00  0.00    -0.255 C  
HETATM   15  O   UNL     1      -8.117  11.444  62.352  1.00  0.00    -0.530 OA 
HETATM   16  C   UNL     1      -8.124   9.146  63.021  1.00  0.00    -0.162 C  
HETATM   17  C   UNL     1      -7.322   9.364  64.301  1.00  0.00    -0.109 C  
HETATM   18  H   UNL     1      -7.850  11.250  61.461  1.00  0.00     0.000 HD 
HETATM   19  O   UNL     1      -6.121  10.081  64.000  1.00  0.00    -0.116 OA 
HETATM   20  C   UNL     1      -8.221  10.219  65.228  1.00  0.00    -0.161 C  
HETATM   21  H   UNL     1      -5.622  10.217  64.797  1.00  0.00     0.000 HD 
BRANCH  20  22
HETATM   22  C   UNL     1      -8.800   9.535  66.453  1.00  0.00    -0.164 C  
HETATM   23  C   UNL     1     -10.023   8.983  66.559  1.00  0.00    -0.355 C  
BRANCH  23  24
HETATM   24  C   UNL     1     -10.635   8.349  67.789  1.00  0.00    -0.171 C  
HETATM   25  H   UNL     1     -11.396   6.608  68.270  1.00  0.00     0.000 HD 
HETATM   26  O   UNL     1     -11.012   7.006  67.498  1.00  0.00    -0.262 OA 
BRANCH  24  27
HETATM   27  C   UNL     1      -9.633   8.376  68.961  1.00  0.00    -0.160 C  
BRANCH  27  28
HETATM   28  O   UNL     1     -10.045   7.493  70.017  1.00  0.00    -0.194 OA 
BRANCH  28  29
HETATM   29  C   UNL     1      -9.575   6.209  69.894  1.00  0.00    -0.159 A  
HETATM   30  C   UNL     1     -10.313   5.067  70.217  1.00  0.00    -0.299 A  
HETATM   31  C   UNL     1      -9.756   3.797  70.046  1.00  0.00    -0.211 A  
HETATM   32  C   UNL     1      -8.464   3.663  69.545  1.00  0.00    -0.097 A  
HETATM   33  C   UNL     1      -7.713   4.794  69.201  1.00  0.00    -0.071 A  
HETATM   34  C   UNL     1      -6.313   4.649  68.660  1.00  0.00    -0.036 C  
HETATM   35  C   UNL     1      -8.286   6.068  69.369  1.00  0.00    -0.115 A  
HETATM   36  F   UNL     1      -5.887   3.354  68.599  1.00  0.00    -0.020 F  
HETATM   37  F   UNL     1      -5.389   5.305  69.416  1.00  0.00    -0.003 F  
HETATM   38  F   UNL     1      -6.183   5.139  67.397  1.00  0.00    -0.029 F  
ENDBRANCH  28  29
ENDBRANCH  27  28
ENDBRANCH  24  27
ENDBRANCH  23  24
ENDBRANCH  20  22
ENDBRANCH  12  13
ENDBRANCH  11  12
ENDBRANCH   9  10
ENDBRANCH   8   9
ENDBRANCH   7   8
ENDBRANCH   5   7
ENDBRANCH   4   5
ENDBRANCH   2   4
TORSDOF 13
ENDMDL
MODEL      332
REMARK 921   NORMALIZED FREE ENERGY PREDICTED BY IDOCK:   -3.95 KCAL/MOL
REMARK 922        TOTAL FREE ENERGY PREDICTED BY IDOCK:   -9.17 KCAL/MOL
REMARK 923 INTER-LIGAND FREE ENERGY PREDICTED BY IDOCK:   -8.33 KCAL/MOL
REMARK 924 INTRA-LIGAND FREE ENERGY PREDICTED BY IDOCK:   -0.84 KCAL/MOL
REMARK 927      BINDING AFFINITY PREDICTED BY RF-SCORE:    0.00 PKD
ROOT
HETATM    1  C   UNL     1      -6.424  20.663  64.437  1.00  0.00    -0.306 C  
HETATM    2  C   UNL     1      -6.513  19.157  64.660  1.00  0.00     0.071 C  
HETATM    3  C   UNL     1      -5.128  18.562  64.892  1.00  0.00    -0.196 C  
ENDROOT
BRANCH   2   4
HETATM    4  O   UNL     1      -7.300  18.896  65.836  1.00  0.00    -0.318 OA 
BRANCH   4   5
HETATM    5  C   UNL     1      -8.243  19.840  66.117  1.00  0.00    -0.344 C  
HETATM    6  O   UNL     1      -9.176  20.140  65.385  1.00  0.00    -0.051 OA 
BRANCH   5   7
HETATM    7  C   UNL     1      -7.939  20.505  67.433  1.00  0.00    -0.349 C  
BRANCH   7   8
HETATM    8  C   UNL     1      -8.453  19.640  68.583  1.00  0.00    -0.310 C  
BRANCH   8   9
HETATM    9  C   UNL     1      -9.958  19.757  68.809  1.00  0.00    -0.510 C  
BRANCH   9  10
HETATM   10  C   UNL     1     -10.753  18.828  67.932  1.00  0.00    -0.347 C  
HETATM   11  C   UNL     1     -10.697  17.487  67.951  1.00  0.00    -0.340 C  
BRANCH  11  12
HETATM   12  C   UNL     1      -9.771  16.659  68.798  1.00  0.00    -0.254 C  
BRANCH  12  13
HETATM   13  C   UNL     1      -8.853  15.748  67.972  1.00  0.00    -0.176 C  
HETATM   14  C   UNL     1      -7.362  16.107  68.006  1.00  0.00    -0.129 C  
HETATM   15  O   UNL     1      -6.954  16.541  69.299  1.00  0.00    -0.215 OA 
HETATM   16  C   UNL     1      -6.660  14.791  67.692  1.00  0.00    -0.181 C  
HETATM   17  C   UNL     1      -7.476  13.753  68.456  1.00  0.00    -0.119 C  
HETATM   18  H   UNL     1      -6.030  16.763  69.320  1.00  0.00     0.000 HD 
HETATM   19  O   UNL     1      -6.999  13.660  69.802  1.00  0.00    -0.336 OA 
HETATM   20  C   UNL     1      -8.935  14.273  68.456  1.00  0.00    -0.185 C  
HETATM   21  H   UNL     1      -7.508  13.013  70.278  1.00  0.00     0.000 HD 
BRANCH  20  22
HETATM   22  C   UNL     1      -9.938  13.516  67.605  1.00  0.00    -0.229 C  
HETATM   23  C   UNL     1     -10.005  13.511  66.260  1.00  0.00    -0.302 C  
BRANCH  23  24
HETATM   24  C   UNL     1     -11.032  12.808  65.400  1.00  0.00    -0.283 C  
HETATM   25  H   UNL     1     -11.347  12.537  63.484  1.00  0.00     0.000 HD 
HETATM   26  O   UNL     1     -10.702  12.978  64.025  1.00  0.00    -0.400 OA 
BRANCH  24  27
HETATM   27  C   UNL     1     -11.087  11.307  65.749  1.00  0.00    -0.084 C  
BRANCH  27  28
HETATM   28  O   UNL     1      -9.827  10.846  66.262  1.00  0.00    -0.202 OA 
BRANCH  28  29
HETATM   29  C   UNL     1      -9.931   9.854  67.205  1.00  0.00    -0.200 A  
HETATM   30  C   UNL     1      -9.912  10.076  68.584  1.00  0.00    -0.176 A  
HETATM   31  C   UNL     1     -10.038   9.005  69.472  1.00  0.00    -0.199 A  
HETATM   32  C   UNL     1     -10.191   7.709  68.986  1.00  0.00    -0.211 A  
HETATM   33  C   UNL     1     -10.228   7.467  67.607  1.00  0.00    -0.275 A  
HETATM   34  C   UNL     1     -10.393   6.064  67.079  1.00  0.00    -0.240 C  
HETATM   35  C   UNL     1     -10.109   8.554  66.721  1.00  0.00    -0.369 A  
HETATM   36  F   UNL     1     -10.449   5.119  68.062  1.00  0.00    -0.219 F  
HETATM   37  F   UNL     1      -9.367   5.687  66.265  1.00  0.00    -0.143 F  
HETATM   38  F   UNL     1     -11.530   5.906  66.349  1.00  0.00    -0.198 F  
ENDBRANCH  28  29
ENDBRANCH  27  28
ENDBRANCH  24  27
ENDBRANCH  23  24
ENDBRANCH  20  22
ENDBRANCH  12  13
ENDBRANCH  11  12
ENDBRANCH   9  10
ENDBRANCH   8   9
ENDBRANCH   7   8
ENDBRANCH   5   7
ENDBRANCH   4   5
ENDBRANCH   2   4
TORSDOF 13
ENDMDL
MODEL      333
REMARK 921   NORMALIZED FREE ENERGY PREDICTED BY IDOCK:   -3.94 KCAL/MOL
REMARK 922        TOTAL FREE ENERGY PREDICTED BY IDOCK:   -9.16 KCAL/MOL
REMARK 923 INTER-LIGAND FREE ENERGY PREDICTED BY IDOCK:   -7.22 KCAL/MOL
REMARK 924 INTRA-LIGAND FREE ENERGY PREDICTED BY IDOCK:   -1.94 KCAL/MOL
REMARK 927      BINDING AFFINITY PREDICTED BY RF-SCORE:    0.00 PKD
ROOT
HETATM    1  C   UNL     1      -5.853   4.147  66.308  1.00  0.00    -0.023 C  
HETATM    2  C   UNL     1      -6.796   2.998  66.645  1.00  0.00    -0.052 C  
HETATM    3  C   UNL     1      -6.529   2.476  68.054  1.00  0.00    -0.032 C  
ENDROOT
BRANCH   2   4
HETATM    4  O   UNL     1      -8.154   3.471  66.608  1.00  0.00    -0.090 OA 
BRANCH   4   5
HETATM    5  C   UNL     1      -8.328   4.751  67.043  1.00  0.00    -0.106 C  
HETATM    6  O   UNL     1      -7.942   5.185  68.120  1.00  0.00    -0.087 OA 
BRANCH   5   7
HETATM    7  C   UNL     1      -9.117   5.543  66.034  1.00  0.00    -0.162 C  
BRANCH   7   8
HETATM    8  C   UNL     1      -8.254   5.822  64.803  1.00  0.00    -0.135 C  
BRANCH   8   9
HETATM    9  C   UNL     1      -8.080   7.308  64.504  1.00  0.00    -0.071 C  
BRANCH   9  10
HETATM   10  C   UNL     1      -7.544   8.080  65.678  1.00  0.00    -0.084 C  
HETATM   11  C   UNL     1      -8.156   9.104  66.294  1.00  0.00    -0.111 C  
BRANCH  11  12
HETATM   12  C   UNL     1      -9.462   9.724  65.879  1.00  0.00    -0.285 C  
BRANCH  12  13
HETATM   13  C   UNL     1     -10.087  10.600  66.973  1.00  0.00    -0.255 C  
HETATM   14  C   UNL     1     -11.244   9.960  67.750  1.00  0.00    -0.003 C  
HETATM   15  O   UNL     1     -11.015   8.576  67.993  1.00  0.00    -0.475 OA 
HETATM   16  C   UNL     1     -11.241  10.695  69.085  1.00  0.00    -0.324 C  
HETATM   17  C   UNL     1      -9.758  10.850  69.410  1.00  0.00     0.009 C  
HETATM   18  H   UNL     1     -11.732   8.181  68.474  1.00  0.00     0.000 HD 
HETATM   19  O   UNL     1      -9.286   9.677  70.081  1.00  0.00    -0.226 OA 
HETATM   20  C   UNL     1      -9.036  10.997  68.048  1.00  0.00    -0.152 C  
HETATM   21  H   UNL     1      -8.363   9.774  70.282  1.00  0.00     0.000 HD 
BRANCH  20  22
HETATM   22  C   UNL     1      -8.462  12.363  67.714  1.00  0.00    -0.169 C  
HETATM   23  C   UNL     1      -7.848  13.203  68.567  1.00  0.00    -0.105 C  
BRANCH  23  24
HETATM   24  C   UNL     1      -7.321  14.589  68.263  1.00  0.00    -0.120 C  
HETATM   25  H   UNL     1      -6.081  15.396  66.977  1.00  0.00     0.000 HD 
HETATM   26  O   UNL     1      -6.412  14.526  67.168  1.00  0.00    -0.221 OA 
BRANCH  24  27
HETATM   27  C   UNL     1      -8.485  15.544  67.930  1.00  0.00    -0.143 C  
BRANCH  27  28
HETATM   28  O   UNL     1      -8.948  15.349  66.584  1.00  0.00    -0.242 OA 
BRANCH  28  29
HETATM   29  C   UNL     1     -10.170  14.730  66.492  1.00  0.00    -0.276 A  
HETATM   30  C   UNL     1     -11.163  14.803  67.472  1.00  0.00    -0.339 A  
HETATM   31  C   UNL     1     -12.384  14.150  67.288  1.00  0.00    -0.182 A  
HETATM   32  C   UNL     1     -12.620  13.427  66.120  1.00  0.00    -0.294 A  
HETATM   33  C   UNL     1     -11.644  13.354  65.120  1.00  0.00    -0.329 A  
HETATM   34  C   UNL     1     -11.898  12.571  63.856  1.00  0.00    -0.463 C  
HETATM   35  C   UNL     1     -10.421  14.023  65.312  1.00  0.00    -0.398 A  
HETATM   36  F   UNL     1     -13.110  11.945  63.841  1.00  0.00    -0.565 F  
HETATM   37  F   UNL     1     -10.975  11.590  63.654  1.00  0.00    -0.385 F  
HETATM   38  F   UNL     1     -11.871  13.349  62.740  1.00  0.00    -0.328 F  
ENDBRANCH  28  29
ENDBRANCH  27  28
ENDBRANCH  24  27
ENDBRANCH  23  24
ENDBRANCH  20  22
ENDBRANCH  12  13
ENDBRANCH  11  12
ENDBRANCH   9  10
ENDBRANCH   8   9
ENDBRANCH   7   8
ENDBRANCH   5   7
ENDBRANCH   4   5
ENDBRANCH   2   4
TORSDOF 13
ENDMDL
MODEL      334
REMARK 921   NORMALIZED FREE ENERGY PREDICTED BY IDOCK:   -3.92 KCAL/MOL
REMARK 922        TOTAL FREE ENERGY PREDICTED BY IDOCK:   -9.11 KCAL/MOL
REMARK 923 INTER-LIGAND FREE ENERGY PREDICTED BY IDOCK:   -6.93 KCAL/MOL
REMARK 924 INTRA-LIGAND FREE ENERGY PREDICTED BY IDOCK:   -2.18 KCAL/MOL
REMARK 927      BINDING AFFINITY PREDICTED BY RF-SCORE:    0.00 PKD
ROOT
HETATM    1  C   UNL     1      -8.230   8.567  65.211  1.00  0.00    -0.149 C  
HETATM    2  C   UNL     1      -9.358   9.117  66.077  1.00  0.00    -0.238 C  
HETATM    3  C   UNL     1     -10.120   7.984  66.756  1.00  0.00    -0.357 C  
ENDROOT
BRANCH   2   4
HETATM    4  O   UNL     1      -8.800   9.946  67.113  1.00  0.00    -0.137 OA 
BRANCH   4   5
HETATM    5  C   UNL     1      -7.943   9.308  67.960  1.00  0.00    -0.100 C  
HETATM    6  O   UNL     1      -8.271   8.739  68.992  1.00  0.00    -0.114 OA 
BRANCH   5   7
HETATM    7  C   UNL     1      -6.525   9.454  67.476  1.00  0.00    -0.063 C  
BRANCH   7   8
HETATM    8  C   UNL     1      -5.585   8.648  68.373  1.00  0.00    -0.038 C  
BRANCH   8   9
HETATM    9  C   UNL     1      -5.447   7.187  67.954  1.00  0.00    -0.021 C  
BRANCH   9  10
HETATM   10  C   UNL     1      -5.564   6.236  69.113  1.00  0.00    -0.016 C  
HETATM   11  C   UNL     1      -5.870   4.931  69.033  1.00  0.00    -0.020 C  
BRANCH  11  12
HETATM   12  C   UNL     1      -6.230   4.189  67.776  1.00  0.00    -0.036 C  
BRANCH  12  13
HETATM   13  C   UNL     1      -7.539   4.677  67.142  1.00  0.00    -0.086 C  
HETATM   14  C   UNL     1      -7.478   4.965  65.637  1.00  0.00    -0.078 C  
HETATM   15  O   UNL     1      -6.668   4.015  64.952  1.00  0.00    -0.046 OA 
HETATM   16  C   UNL     1      -8.920   4.799  65.172  1.00  0.00    -0.152 C  
HETATM   17  C   UNL     1      -9.418   3.591  65.959  1.00  0.00    -0.137 C  
HETATM   18  H   UNL     1      -6.630   4.194  64.019  1.00  0.00     0.000 HD 
HETATM   19  O   UNL     1      -9.079   2.388  65.261  1.00  0.00    -0.132 OA 
HETATM   20  C   UNL     1      -8.677   3.631  67.317  1.00  0.00    -0.127 C  
HETATM   21  H   UNL     1      -9.390   1.635  65.752  1.00  0.00     0.000 HD 
BRANCH  20  22
HETATM   22  C   UNL     1      -9.500   3.980  68.545  1.00  0.00    -0.215 C  
HETATM   23  C   UNL     1      -9.629   5.198  69.101  1.00  0.00    -0.207 C  
BRANCH  23  24
HETATM   24  C   UNL     1     -10.399   5.552  70.355  1.00  0.00    -0.276 C  
HETATM   25  H   UNL     1      -9.986   5.862  72.246  1.00  0.00     0.000 HD 
HETATM   26  O   UNL     1      -9.503   5.641  71.459  1.00  0.00    -0.149 OA 
BRANCH  24  27
HETATM   27  C   UNL     1     -11.142   6.890  70.168  1.00  0.00    -0.299 C  
BRANCH  27  28
HETATM   28  O   UNL     1     -10.874   7.791  71.255  1.00  0.00    -0.228 OA 
BRANCH  28  29
HETATM   29  C   UNL     1     -11.493   9.010  71.142  1.00  0.00    -0.308 A  
HETATM   30  C   UNL     1     -12.397   9.522  72.077  1.00  0.00    -0.404 A  
HETATM   31  C   UNL     1     -12.971  10.781  71.887  1.00  0.00    -0.524 A  
HETATM   32  C   UNL     1     -12.637  11.538  70.766  1.00  0.00    -0.390 A  
HETATM   33  C   UNL     1     -11.722  11.050  69.826  1.00  0.00    -0.410 A  
HETATM   34  C   UNL     1     -11.360  11.869  68.611  1.00  0.00    -0.276 C  
HETATM   35  C   UNL     1     -11.144   9.784  70.031  1.00  0.00    -0.311 A  
HETATM   36  F   UNL     1     -12.038  13.050  68.533  1.00  0.00    -0.344 F  
HETATM   37  F   UNL     1     -11.623  11.217  67.444  1.00  0.00    -0.346 F  
HETATM   38  F   UNL     1     -10.040  12.197  68.571  1.00  0.00    -0.198 F  
ENDBRANCH  28  29
ENDBRANCH  27  28
ENDBRANCH  24  27
ENDBRANCH  23  24
ENDBRANCH  20  22
ENDBRANCH  12  13
ENDBRANCH  11  12
ENDBRANCH   9  10
ENDBRANCH   8   9
ENDBRANCH   7   8
ENDBRANCH   5   7
ENDBRANCH   4   5
ENDBRANCH   2   4
TORSDOF 13
ENDMDL
MODEL      335
REMARK 921   NORMALIZED FREE ENERGY PREDICTED BY IDOCK:   -3.90 KCAL/MOL
REMARK 922        TOTAL FREE ENERGY PREDICTED BY IDOCK:   -9.09 KCAL/MOL
REMARK 923 INTER-LIGAND FREE ENERGY PREDICTED BY IDOCK:   -8.38 KCAL/MOL
REMARK 924 INTRA-LIGAND FREE ENERGY PREDICTED BY IDOCK:   -0.71 KCAL/MOL
REMARK 927      BINDING AFFINITY PREDICTED BY RF-SCORE:    0.00 PKD
ROOT
HETATM    1  C   UNL     1      -9.591   2.258  71.283  1.00  0.00    -0.221 C  
HETATM    2  C   UNL     1      -9.180   3.661  71.715  1.00  0.00    -0.119 C  
HETATM    3  C   UNL     1      -7.962   3.610  72.631  1.00  0.00    -0.073 C  
ENDROOT
BRANCH   2   4
HETATM    4  O   UNL     1      -8.816   4.428  70.553  1.00  0.00    -0.086 OA 
BRANCH   4   5
HETATM    5  C   UNL     1      -9.867   4.882  69.812  1.00  0.00    -0.221 C  
HETATM    6  O   UNL     1     -10.890   5.372  70.272  1.00  0.00    -0.266 OA 
BRANCH   5   7
HETATM    7  C   UNL     1      -9.617   4.641  68.347  1.00  0.00    -0.212 C  
BRANCH   7   8
HETATM    8  C   UNL     1      -8.622   5.672  67.814  1.00  0.00    -0.101 C  
BRANCH   8   9
HETATM    9  C   UNL     1      -8.021   5.298  66.463  1.00  0.00    -0.104 C  
BRANCH   9  10
HETATM   10  C   UNL     1      -8.226   6.362  65.419  1.00  0.00    -0.142 C  
HETATM   11  C   UNL     1      -8.261   7.686  65.640  1.00  0.00    -0.136 C  
BRANCH  11  12
HETATM   12  C   UNL     1      -8.181   8.354  66.985  1.00  0.00    -0.107 C  
BRANCH  12  13
HETATM   13  C   UNL     1      -9.043   9.620  67.081  1.00  0.00    -0.152 C  
HETATM   14  C   UNL     1     -10.555   9.399  66.958  1.00  0.00    -0.201 C  
HETATM   15  O   UNL     1     -10.969   8.207  67.617  1.00  0.00    -0.508 OA 
HETATM   16  C   UNL     1     -11.161  10.592  67.688  1.00  0.00    -0.385 C  
HETATM   17  C   UNL     1     -10.252  10.776  68.900  1.00  0.00    -0.203 C  
HETATM   18  H   UNL     1     -11.906   8.071  67.542  1.00  0.00     0.000 HD 
HETATM   19  O   UNL     1     -10.694   9.930  69.966  1.00  0.00    -0.249 OA 
HETATM   20  C   UNL     1      -8.838  10.342  68.442  1.00  0.00    -0.136 C  
HETATM   21  H   UNL     1     -10.127  10.044  70.720  1.00  0.00     0.000 HD 
BRANCH  20  22
HETATM   22  C   UNL     1      -7.797  11.436  68.283  1.00  0.00    -0.132 C  
HETATM   23  C   UNL     1      -7.965  12.745  68.547  1.00  0.00    -0.095 C  
BRANCH  23  24
HETATM   24  C   UNL     1      -6.956  13.854  68.340  1.00  0.00    -0.102 C  
HETATM   25  H   UNL     1      -5.584  14.311  67.017  1.00  0.00     0.000 HD 
HETATM   26  O   UNL     1      -6.218  13.614  67.146  1.00  0.00    -0.229 OA 
BRANCH  24  27
HETATM   27  C   UNL     1      -7.670  15.218  68.257  1.00  0.00    -0.112 C  
BRANCH  27  28
HETATM   28  O   UNL     1      -7.872  15.616  66.891  1.00  0.00    -0.221 OA 
BRANCH  28  29
HETATM   29  C   UNL     1      -7.801  16.971  66.683  1.00  0.00    -0.264 A  
HETATM   30  C   UNL     1      -6.783  17.603  65.964  1.00  0.00    -0.296 A  
HETATM   31  C   UNL     1      -6.798  18.989  65.791  1.00  0.00    -0.311 A  
HETATM   32  C   UNL     1      -7.835  19.748  66.327  1.00  0.00    -0.340 A  
HETATM   33  C   UNL     1      -8.873  19.133  67.038  1.00  0.00    -0.318 A  
HETATM   34  C   UNL     1      -9.996  19.954  67.621  1.00  0.00    -0.419 C  
HETATM   35  C   UNL     1      -8.852  17.735  67.199  1.00  0.00    -0.251 A  
HETATM   36  F   UNL     1      -9.848  21.295  67.417  1.00  0.00    -0.618 F  
HETATM   37  F   UNL     1     -10.113  19.798  68.968  1.00  0.00    -0.483 F  
HETATM   38  F   UNL     1     -11.210  19.633  67.097  1.00  0.00    -0.567 F  
ENDBRANCH  28  29
ENDBRANCH  27  28
ENDBRANCH  24  27
ENDBRANCH  23  24
ENDBRANCH  20  22
ENDBRANCH  12  13
ENDBRANCH  11  12
ENDBRANCH   9  10
ENDBRANCH   8   9
ENDBRANCH   7   8
ENDBRANCH   5   7
ENDBRANCH   4   5
ENDBRANCH   2   4
TORSDOF 13
ENDMDL
MODEL      336
REMARK 921   NORMALIZED FREE ENERGY PREDICTED BY IDOCK:   -3.89 KCAL/MOL
REMARK 922        TOTAL FREE ENERGY PREDICTED BY IDOCK:   -9.07 KCAL/MOL
REMARK 923 INTER-LIGAND FREE ENERGY PREDICTED BY IDOCK:   -7.47 KCAL/MOL
REMARK 924 INTRA-LIGAND FREE ENERGY PREDICTED BY IDOCK:   -1.61 KCAL/MOL
REMARK 927      BINDING AFFINITY PREDICTED BY RF-SCORE:    0.00 PKD
ROOT
HETATM    1  C   UNL     1      -6.950   3.305  67.237  1.00  0.00    -0.053 C  
HETATM    2  C   UNL     1      -8.116   2.322  67.231  1.00  0.00    -0.071 C  
HETATM    3  C   UNL     1      -8.451   1.875  68.650  1.00  0.00    -0.085 C  
ENDROOT
BRANCH   2   4
HETATM    4  O   UNL     1      -9.282   2.971  66.693  1.00  0.00    -0.162 OA 
BRANCH   4   5
HETATM    5  C   UNL     1      -9.443   4.270  67.074  1.00  0.00    -0.184 C  
HETATM    6  O   UNL     1      -9.376   4.677  68.226  1.00  0.00    -0.122 OA 
BRANCH   5   7
HETATM    7  C   UNL     1      -9.774   5.127  65.881  1.00  0.00    -0.159 C  
BRANCH   7   8
HETATM    8  C   UNL     1      -8.556   5.233  64.964  1.00  0.00    -0.150 C  
BRANCH   8   9
HETATM    9  C   UNL     1      -8.131   6.670  64.678  1.00  0.00    -0.088 C  
BRANCH   9  10
HETATM   10  C   UNL     1      -7.568   7.363  65.888  1.00  0.00    -0.089 C  
HETATM   11  C   UNL     1      -8.000   8.525  66.403  1.00  0.00    -0.099 C  
BRANCH  11  12
HETATM   12  C   UNL     1      -9.080   9.395  65.822  1.00  0.00    -0.249 C  
BRANCH  12  13
HETATM   13  C   UNL     1      -9.765  10.283  66.870  1.00  0.00    -0.229 C  
HETATM   14  C   UNL     1     -11.030   9.695  67.507  1.00  0.00    -0.096 C  
HETATM   15  O   UNL     1     -10.903   8.295  67.736  1.00  0.00    -0.472 OA 
HETATM   16  C   UNL     1     -11.125  10.400  68.855  1.00  0.00    -0.296 C  
HETATM   17  C   UNL     1      -9.677  10.465  69.333  1.00  0.00    -0.200 C  
HETATM   18  H   UNL     1     -11.687   7.932  68.131  1.00  0.00     0.000 HD 
HETATM   19  O   UNL     1      -9.342   9.253  70.017  1.00  0.00    -0.177 OA 
HETATM   20  C   UNL     1      -8.812  10.598  68.056  1.00  0.00    -0.130 C  
HETATM   21  H   UNL     1      -8.440   9.293  70.315  1.00  0.00     0.000 HD 
BRANCH  20  22
HETATM   22  C   UNL     1      -8.132  11.935  67.818  1.00  0.00    -0.146 C  
HETATM   23  C   UNL     1      -7.521  12.697  68.743  1.00  0.00    -0.044 C  
BRANCH  23  24
HETATM   24  C   UNL     1      -6.889  14.057  68.533  1.00  0.00    -0.104 C  
HETATM   25  H   UNL     1      -6.570  15.266  67.024  1.00  0.00     0.000 HD 
HETATM   26  O   UNL     1      -6.967  14.413  67.156  1.00  0.00    -0.173 OA 
BRANCH  24  27
HETATM   27  C   UNL     1      -7.601  15.118  69.396  1.00  0.00    -0.210 C  
BRANCH  27  28
HETATM   28  O   UNL     1      -8.703  15.709  68.689  1.00  0.00    -0.172 OA 
BRANCH  28  29
HETATM   29  C   UNL     1      -9.936  15.267  69.097  1.00  0.00    -0.238 A  
HETATM   30  C   UNL     1     -10.783  14.472  68.320  1.00  0.00    -0.243 A  
HETATM   31  C   UNL     1     -12.018  14.057  68.823  1.00  0.00    -0.382 A  
HETATM   32  C   UNL     1     -12.409  14.428  70.108  1.00  0.00    -0.406 A  
HETATM   33  C   UNL     1     -11.569  15.211  70.908  1.00  0.00    -0.380 A  
HETATM   34  C   UNL     1     -11.991  15.614  72.299  1.00  0.00    -0.467 C  
HETATM   35  C   UNL     1     -10.323  15.617  70.395  1.00  0.00    -0.106 A  
HETATM   36  F   UNL     1     -13.242  15.181  72.632  1.00  0.00    -0.367 F  
HETATM   37  F   UNL     1     -12.014  16.965  72.469  1.00  0.00    -0.499 F  
HETATM   38  F   UNL     1     -11.163  15.127  73.263  1.00  0.00    -0.416 F  
ENDBRANCH  28  29
ENDBRANCH  27  28
ENDBRANCH  24  27
ENDBRANCH  23  24
ENDBRANCH  20  22
ENDBRANCH  12  13
ENDBRANCH  11  12
ENDBRANCH   9  10
ENDBRANCH   8   9
ENDBRANCH   7   8
ENDBRANCH   5   7
ENDBRANCH   4   5
ENDBRANCH   2   4
TORSDOF 13
ENDMDL
MODEL      337
REMARK 921   NORMALIZED FREE ENERGY PREDICTED BY IDOCK:   -3.85 KCAL/MOL
REMARK 922        TOTAL FREE ENERGY PREDICTED BY IDOCK:   -9.00 KCAL/MOL
REMARK 923 INTER-LIGAND FREE ENERGY PREDICTED BY IDOCK:   -8.02 KCAL/MOL
REMARK 924 INTRA-LIGAND FREE ENERGY PREDICTED BY IDOCK:   -0.98 KCAL/MOL
REMARK 927      BINDING AFFINITY PREDICTED BY RF-SCORE:    0.00 PKD
ROOT
HETATM    1  C   UNL     1      -9.689   7.371  66.494  1.00  0.00    -0.225 C  
HETATM    2  C   UNL     1      -9.624   8.861  66.814  1.00  0.00    -0.202 C  
HETATM    3  C   UNL     1     -10.103   9.690  65.626  1.00  0.00    -0.231 C  
ENDROOT
BRANCH   2   4
HETATM    4  O   UNL     1     -10.495   9.147  67.923  1.00  0.00    -0.227 OA 
BRANCH   4   5
HETATM    5  C   UNL     1      -9.859   9.455  69.088  1.00  0.00    -0.174 C  
HETATM    6  O   UNL     1     -10.393   9.505  70.188  1.00  0.00    -0.218 OA 
BRANCH   5   7
HETATM    7  C   UNL     1      -8.414   9.783  68.823  1.00  0.00    -0.122 C  
BRANCH   7   8
HETATM    8  C   UNL     1      -8.148  11.254  69.146  1.00  0.00     0.019 C  
BRANCH   8   9
HETATM    9  C   UNL     1      -9.191  12.204  68.564  1.00  0.00    -0.100 C  
BRANCH   9  10
HETATM   10  C   UNL     1      -8.595  13.496  68.076  1.00  0.00    -0.177 C  
HETATM   11  C   UNL     1      -8.784  14.707  68.624  1.00  0.00    -0.174 C  
BRANCH  11  12
HETATM   12  C   UNL     1      -9.690  15.014  69.784  1.00  0.00    -0.007 C  
BRANCH  12  13
HETATM   13  C   UNL     1     -11.002  14.218  69.751  1.00  0.00    -0.112 C  
HETATM   14  C   UNL     1     -11.538  13.772  71.116  1.00  0.00     0.596 C  
HETATM   15  O   UNL     1     -11.338  14.769  72.113  1.00  0.00    -0.395 OA 
HETATM   16  C   UNL     1     -13.036  13.608  70.888  1.00  0.00    -0.184 C  
HETATM   17  C   UNL     1     -13.396  14.786  69.987  1.00  0.00     0.545 C  
HETATM   18  H   UNL     1     -11.670  14.492  72.959  1.00  0.00     0.000 HD 
HETATM   19  O   UNL     1     -13.668  15.940  70.787  1.00  0.00    -0.637 OA 
HETATM   20  C   UNL     1     -12.149  15.045  69.106  1.00  0.00    -0.261 C  
HETATM   21  H   UNL     1     -13.892  16.674  70.226  1.00  0.00     0.000 HD 
BRANCH  20  22
HETATM   22  C   UNL     1     -12.259  14.695  67.632  1.00  0.00    -0.082 C  
HETATM   23  C   UNL     1     -11.952  13.513  67.066  1.00  0.00    -0.440 C  
BRANCH  23  24
HETATM   24  C   UNL     1     -12.002  13.166  65.594  1.00  0.00    -0.415 C  
HETATM   25  H   UNL     1     -13.274  13.376  64.118  1.00  0.00     0.000 HD 
HETATM   26  O   UNL     1     -13.243  13.595  65.042  1.00  0.00    -0.729 OA 
BRANCH  24  27
HETATM   27  C   UNL     1     -10.831  13.834  64.846  1.00  0.00    -0.391 C  
BRANCH  27  28
HETATM   28  O   UNL     1     -11.061  15.242  64.672  1.00  0.00    -0.385 OA 
BRANCH  28  29
HETATM   29  C   UNL     1     -10.189  16.044  65.365  1.00  0.00    -0.302 A  
HETATM   30  C   UNL     1      -8.930  15.635  65.812  1.00  0.00    -0.028 A  
HETATM   31  C   UNL     1      -8.102  16.526  66.500  1.00  0.00    -0.341 A  
HETATM   32  C   UNL     1      -8.526  17.831  66.736  1.00  0.00    -0.269 A  
HETATM   33  C   UNL     1      -9.777  18.266  66.283  1.00  0.00    -0.293 A  
HETATM   34  C   UNL     1     -10.238  19.679  66.540  1.00  0.00    -0.480 C  
HETATM   35  C   UNL     1     -10.600  17.363  65.585  1.00  0.00    -0.158 A  
HETATM   36  F   UNL     1      -9.348  20.415  67.268  1.00  0.00    -0.445 F  
HETATM   37  F   UNL     1     -11.409  19.730  67.233  1.00  0.00    -0.489 F  
HETATM   38  F   UNL     1     -10.446  20.382  65.394  1.00  0.00    -0.487 F  
ENDBRANCH  28  29
ENDBRANCH  27  28
ENDBRANCH  24  27
ENDBRANCH  23  24
ENDBRANCH  20  22
ENDBRANCH  12  13
ENDBRANCH  11  12
ENDBRANCH   9  10
ENDBRANCH   8   9
ENDBRANCH   7   8
ENDBRANCH   5   7
ENDBRANCH   4   5
ENDBRANCH   2   4
TORSDOF 13
ENDMDL
MODEL      338
REMARK 921   NORMALIZED FREE ENERGY PREDICTED BY IDOCK:   -3.83 KCAL/MOL
REMARK 922        TOTAL FREE ENERGY PREDICTED BY IDOCK:   -8.96 KCAL/MOL
REMARK 923 INTER-LIGAND FREE ENERGY PREDICTED BY IDOCK:   -7.40 KCAL/MOL
REMARK 924 INTRA-LIGAND FREE ENERGY PREDICTED BY IDOCK:   -1.56 KCAL/MOL
REMARK 927      BINDING AFFINITY PREDICTED BY RF-SCORE:    0.00 PKD
ROOT
HETATM    1  C   UNL     1     -12.658  10.831  71.282  1.00  0.00    -0.532 C  
HETATM    2  C   UNL     1     -11.764   9.612  71.477  1.00  0.00    -0.400 C  
HETATM    3  C   UNL     1     -12.600   8.366  71.751  1.00  0.00    -0.378 C  
ENDROOT
BRANCH   2   4
HETATM    4  O   UNL     1     -11.015   9.375  70.271  1.00  0.00    -0.237 OA 
BRANCH   4   5
HETATM    5  C   UNL     1      -9.668   9.542  70.389  1.00  0.00    -0.271 C  
HETATM    6  O   UNL     1      -8.992   9.155  71.333  1.00  0.00    -0.283 OA 
BRANCH   5   7
HETATM    7  C   UNL     1      -9.134  10.325  69.219  1.00  0.00    -0.206 C  
BRANCH   7   8
HETATM    8  C   UNL     1      -7.606  10.342  69.260  1.00  0.00    -0.132 C  
BRANCH   8   9
HETATM    9  C   UNL     1      -6.989  11.520  68.510  1.00  0.00    -0.083 C  
BRANCH   9  10
HETATM   10  C   UNL     1      -7.645  11.772  67.180  1.00  0.00    -0.155 C  
HETATM   11  C   UNL     1      -8.340  12.868  66.840  1.00  0.00    -0.047 C  
BRANCH  11  12
HETATM   12  C   UNL     1      -8.662  14.022  67.750  1.00  0.00    -0.185 C  
BRANCH  12  13
HETATM   13  C   UNL     1     -10.066  13.931  68.362  1.00  0.00    -0.237 C  
HETATM   14  C   UNL     1     -10.214  14.530  69.766  1.00  0.00     0.213 C  
HETATM   15  O   UNL     1      -9.450  15.723  69.913  1.00  0.00    -0.204 OA 
HETATM   16  C   UNL     1     -11.693  14.886  69.861  1.00  0.00    -0.347 C  
HETATM   17  C   UNL     1     -12.022  15.437  68.477  1.00  0.00    -0.181 C  
HETATM   18  H   UNL     1      -9.542  16.094  70.784  1.00  0.00     0.000 HD 
HETATM   19  O   UNL     1     -11.713  16.834  68.430  1.00  0.00     0.030 OA 
HETATM   20  C   UNL     1     -11.115  14.670  67.484  1.00  0.00    -0.319 C  
HETATM   21  H   UNL     1     -11.918  17.178  67.568  1.00  0.00     0.000 HD 
BRANCH  20  22
HETATM   22  C   UNL     1     -11.791  13.675  66.558  1.00  0.00    -0.441 C  
HETATM   23  C   UNL     1     -11.494  13.459  65.263  1.00  0.00    -0.318 C  
BRANCH  23  24
HETATM   24  C   UNL     1     -12.195  12.512  64.312  1.00  0.00    -0.452 C  
HETATM   25  H   UNL     1     -13.406  12.663  62.779  1.00  0.00     0.000 HD 
HETATM   26  O   UNL     1     -12.966  13.258  63.376  1.00  0.00    -0.349 OA 
BRANCH  24  27
HETATM   27  C   UNL     1     -11.163  11.637  63.571  1.00  0.00    -0.373 C  
BRANCH  27  28
HETATM   28  O   UNL     1     -10.574  10.668  64.454  1.00  0.00    -0.308 OA 
BRANCH  28  29
HETATM   29  C   UNL     1      -9.308  10.277  64.097  1.00  0.00    -0.287 A  
HETATM   30  C   UNL     1      -8.764  10.447  62.821  1.00  0.00    -0.222 A  
HETATM   31  C   UNL     1      -7.458  10.030  62.550  1.00  0.00    -0.134 A  
HETATM   32  C   UNL     1      -6.689   9.449  63.555  1.00  0.00    -0.095 A  
HETATM   33  C   UNL     1      -7.210   9.283  64.844  1.00  0.00    -0.102 A  
HETATM   34  C   UNL     1      -6.378   8.652  65.933  1.00  0.00    -0.056 C  
HETATM   35  C   UNL     1      -8.523   9.714  65.108  1.00  0.00    -0.159 A  
HETATM   36  F   UNL     1      -5.146   8.248  65.507  1.00  0.00    -0.029 F  
HETATM   37  F   UNL     1      -6.965   7.545  66.465  1.00  0.00    -0.062 F  
HETATM   38  F   UNL     1      -6.149   9.496  66.976  1.00  0.00    -0.058 F  
ENDBRANCH  28  29
ENDBRANCH  27  28
ENDBRANCH  24  27
ENDBRANCH  23  24
ENDBRANCH  20  22
ENDBRANCH  12  13
ENDBRANCH  11  12
ENDBRANCH   9  10
ENDBRANCH   8   9
ENDBRANCH   7   8
ENDBRANCH   5   7
ENDBRANCH   4   5
ENDBRANCH   2   4
TORSDOF 13
ENDMDL
MODEL      339
REMARK 921   NORMALIZED FREE ENERGY PREDICTED BY IDOCK:   -3.80 KCAL/MOL
REMARK 922        TOTAL FREE ENERGY PREDICTED BY IDOCK:   -8.91 KCAL/MOL
REMARK 923 INTER-LIGAND FREE ENERGY PREDICTED BY IDOCK:   -7.77 KCAL/MOL
REMARK 924 INTRA-LIGAND FREE ENERGY PREDICTED BY IDOCK:   -1.14 KCAL/MOL
REMARK 927      BINDING AFFINITY PREDICTED BY RF-SCORE:    0.00 PKD
ROOT
HETATM    1  C   UNL     1      -9.541   8.843  71.727  1.00  0.00    -0.353 C  
HETATM    2  C   UNL     1      -9.409   7.566  72.550  1.00  0.00    -0.153 C  
HETATM    3  C   UNL     1     -10.684   7.301  73.344  1.00  0.00    -0.415 C  
ENDROOT
BRANCH   2   4
HETATM    4  O   UNL     1      -9.209   6.449  71.666  1.00  0.00    -0.145 OA 
BRANCH   4   5
HETATM    5  C   UNL     1     -10.285   5.623  71.533  1.00  0.00    -0.208 C  
HETATM    6  O   UNL     1     -11.307   5.893  70.917  1.00  0.00    -0.270 OA 
BRANCH   5   7
HETATM    7  C   UNL     1     -10.063   4.349  72.304  1.00  0.00    -0.253 C  
BRANCH   7   8
HETATM    8  C   UNL     1      -8.987   3.507  71.617  1.00  0.00    -0.158 C  
BRANCH   8   9
HETATM    9  C   UNL     1      -9.546   2.321  70.837  1.00  0.00    -0.185 C  
BRANCH   9  10
HETATM   10  C   UNL     1      -8.560   1.755  69.852  1.00  0.00    -0.094 C  
HETATM   11  C   UNL     1      -8.572   1.950  68.524  1.00  0.00    -0.095 C  
BRANCH  11  12
HETATM   12  C   UNL     1      -9.619   2.710  67.758  1.00  0.00    -0.046 C  
BRANCH  12  13
HETATM   13  C   UNL     1      -9.057   3.436  66.528  1.00  0.00    -0.172 C  
HETATM   14  C   UNL     1      -8.693   2.537  65.341  1.00  0.00    -0.118 C  
HETATM   15  O   UNL     1      -9.631   1.479  65.174  1.00  0.00    -0.317 OA 
HETATM   16  C   UNL     1      -8.788   3.464  64.135  1.00  0.00    -0.097 C  
HETATM   17  C   UNL     1     -10.019   4.316  64.429  1.00  0.00    -0.083 C  
HETATM   18  H   UNL     1      -9.405   0.922  64.437  1.00  0.00     0.000 HD 
HETATM   19  O   UNL     1     -11.194   3.640  63.971  1.00  0.00    -0.499 OA 
HETATM   20  C   UNL     1     -10.074   4.471  65.968  1.00  0.00    -0.282 C  
HETATM   21  H   UNL     1     -11.961   4.170  64.155  1.00  0.00     0.000 HD 
BRANCH  20  22
HETATM   22  C   UNL     1      -9.763   5.844  66.537  1.00  0.00    -0.185 C  
HETATM   23  C   UNL     1     -10.059   6.283  67.775  1.00  0.00    -0.174 C  
BRANCH  23  24
HETATM   24  C   UNL     1      -9.807   7.665  68.337  1.00  0.00    -0.166 C  
HETATM   25  H   UNL     1      -8.268   8.859  68.560  1.00  0.00     0.000 HD 
HETATM   26  O   UNL     1      -8.427   7.991  68.207  1.00  0.00    -0.122 OA 
BRANCH  24  27
HETATM   27  C   UNL     1     -10.670   8.709  67.601  1.00  0.00    -0.124 C  
BRANCH  27  28
HETATM   28  O   UNL     1      -9.948   9.303  66.509  1.00  0.00    -0.234 OA 
BRANCH  28  29
HETATM   29  C   UNL     1     -10.353  10.575  66.192  1.00  0.00    -0.210 A  
HETATM   30  C   UNL     1     -10.651  11.005  64.896  1.00  0.00    -0.328 A  
HETATM   31  C   UNL     1     -11.069  12.318  64.668  1.00  0.00    -0.358 A  
HETATM   32  C   UNL     1     -11.200  13.205  65.734  1.00  0.00    -0.309 A  
HETATM   33  C   UNL     1     -10.921  12.789  67.042  1.00  0.00    -0.295 A  
HETATM   34  C   UNL     1     -11.061  13.749  68.198  1.00  0.00    -0.259 C  
HETATM   35  C   UNL     1     -10.508  11.462  67.262  1.00  0.00    -0.241 A  
HETATM   36  F   UNL     1     -11.425  15.007  67.816  1.00  0.00    -0.296 F  
HETATM   37  F   UNL     1      -9.902  13.898  68.897  1.00  0.00    -0.214 F  
HETATM   38  F   UNL     1     -11.997  13.352  69.102  1.00  0.00    -0.314 F  
ENDBRANCH  28  29
ENDBRANCH  27  28
ENDBRANCH  24  27
ENDBRANCH  23  24
ENDBRANCH  20  22
ENDBRANCH  12  13
ENDBRANCH  11  12
ENDBRANCH   9  10
ENDBRANCH   8   9
ENDBRANCH   7   8
ENDBRANCH   5   7
ENDBRANCH   4   5
ENDBRANCH   2   4
TORSDOF 13
ENDMDL
MODEL      340
REMARK 921   NORMALIZED FREE ENERGY PREDICTED BY IDOCK:   -3.80 KCAL/MOL
REMARK 922        TOTAL FREE ENERGY PREDICTED BY IDOCK:   -8.91 KCAL/MOL
REMARK 923 INTER-LIGAND FREE ENERGY PREDICTED BY IDOCK:   -7.64 KCAL/MOL
REMARK 924 INTRA-LIGAND FREE ENERGY PREDICTED BY IDOCK:   -1.27 KCAL/MOL
REMARK 927      BINDING AFFINITY PREDICTED BY RF-SCORE:    0.00 PKD
ROOT
HETATM    1  C   UNL     1      -6.934  10.362  62.861  1.00  0.00    -0.099 C  
HETATM    2  C   UNL     1      -6.139   9.705  63.985  1.00  0.00    -0.102 C  
HETATM    3  C   UNL     1      -6.503  10.320  65.333  1.00  0.00    -0.123 C  
ENDROOT
BRANCH   2   4
HETATM    4  O   UNL     1      -6.467   8.305  64.044  1.00  0.00    -0.066 OA 
BRANCH   4   5
HETATM    5  C   UNL     1      -7.683   8.023  64.591  1.00  0.00    -0.126 C  
HETATM    6  O   UNL     1      -8.751   8.473  64.198  1.00  0.00    -0.036 OA 
BRANCH   5   7
HETATM    7  C   UNL     1      -7.521   7.123  65.787  1.00  0.00    -0.081 C  
BRANCH   7   8
HETATM    8  C   UNL     1      -8.672   6.118  65.840  1.00  0.00    -0.158 C  
BRANCH   8   9
HETATM    9  C   UNL     1      -9.350   6.039  67.204  1.00  0.00    -0.121 C  
BRANCH   9  10
HETATM   10  C   UNL     1      -8.881   4.867  68.022  1.00  0.00    -0.112 C  
HETATM   11  C   UNL     1      -8.597   4.884  69.334  1.00  0.00    -0.100 C  
BRANCH  11  12
HETATM   12  C   UNL     1      -8.620   6.098  70.221  1.00  0.00    -0.140 C  
BRANCH  12  13
HETATM   13  C   UNL     1      -9.960   6.291  70.943  1.00  0.00    -0.219 C  
HETATM   14  C   UNL     1     -10.371   5.155  71.888  1.00  0.00    -0.212 C  
HETATM   15  O   UNL     1      -9.253   4.628  72.595  1.00  0.00    -0.125 OA 
HETATM   16  C   UNL     1     -11.304   5.827  72.888  1.00  0.00    -0.298 C  
HETATM   17  C   UNL     1     -10.646   7.180  73.145  1.00  0.00    -0.336 C  
HETATM   18  H   UNL     1      -9.507   3.924  73.180  1.00  0.00     0.000 HD 
HETATM   19  O   UNL     1      -9.667   7.051  74.181  1.00  0.00    -0.266 OA 
HETATM   20  C   UNL     1      -9.952   7.576  71.819  1.00  0.00    -0.200 C  
HETATM   21  H   UNL     1      -9.258   7.893  74.341  1.00  0.00     0.000 HD 
BRANCH  20  22
HETATM   22  C   UNL     1     -10.559   8.726  71.036  1.00  0.00    -0.293 C  
HETATM   23  C   UNL     1     -10.321   9.031  69.747  1.00  0.00    -0.219 C  
BRANCH  23  24
HETATM   24  C   UNL     1     -10.874  10.205  68.969  1.00  0.00    -0.224 C  
HETATM   25  H   UNL     1     -10.494  12.121  68.811  1.00  0.00     0.000 HD 
HETATM   26  O   UNL     1     -10.146  11.384  69.299  1.00  0.00    -0.090 OA 
BRANCH  24  27
HETATM   27  C   UNL     1     -10.785   9.934  67.454  1.00  0.00    -0.260 C  
BRANCH  27  28
HETATM   28  O   UNL     1      -9.760  10.734  66.842  1.00  0.00    -0.172 OA 
BRANCH  28  29
HETATM   29  C   UNL     1     -10.214  11.571  65.854  1.00  0.00    -0.244 A  
HETATM   30  C   UNL     1     -10.804  11.135  64.665  1.00  0.00    -0.295 A  
HETATM   31  C   UNL     1     -11.250  12.062  63.718  1.00  0.00    -0.516 A  
HETATM   32  C   UNL     1     -11.114  13.427  63.960  1.00  0.00    -0.282 A  
HETATM   33  C   UNL     1     -10.540  13.884  65.152  1.00  0.00    -0.391 A  
HETATM   34  C   UNL     1     -10.392  15.362  65.415  1.00  0.00    -0.394 C  
HETATM   35  C   UNL     1     -10.102  12.943  66.102  1.00  0.00    -0.281 A  
HETATM   36  F   UNL     1     -10.822  16.141  64.380  1.00  0.00    -0.401 F  
HETATM   37  F   UNL     1      -9.099  15.727  65.637  1.00  0.00    -0.350 F  
HETATM   38  F   UNL     1     -11.093  15.776  66.505  1.00  0.00    -0.306 F  
ENDBRANCH  28  29
ENDBRANCH  27  28
ENDBRANCH  24  27
ENDBRANCH  23  24
ENDBRANCH  20  22
ENDBRANCH  12  13
ENDBRANCH  11  12
ENDBRANCH   9  10
ENDBRANCH   8   9
ENDBRANCH   7   8
ENDBRANCH   5   7
ENDBRANCH   4   5
ENDBRANCH   2   4
TORSDOF 13
ENDMDL
MODEL      341
REMARK 921   NORMALIZED FREE ENERGY PREDICTED BY IDOCK:   -3.77 KCAL/MOL
REMARK 922        TOTAL FREE ENERGY PREDICTED BY IDOCK:   -8.85 KCAL/MOL
REMARK 923 INTER-LIGAND FREE ENERGY PREDICTED BY IDOCK:   -7.94 KCAL/MOL
REMARK 924 INTRA-LIGAND FREE ENERGY PREDICTED BY IDOCK:   -0.91 KCAL/MOL
REMARK 927      BINDING AFFINITY PREDICTED BY RF-SCORE:    0.00 PKD
ROOT
HETATM    1  C   UNL     1      -7.884   4.800  66.023  1.00  0.00    -0.095 C  
HETATM    2  C   UNL     1      -8.968   3.736  65.883  1.00  0.00    -0.135 C  
HETATM    3  C   UNL     1      -8.458   2.380  66.362  1.00  0.00    -0.100 C  
ENDROOT
BRANCH   2   4
HETATM    4  O   UNL     1     -10.092   4.092  66.707  1.00  0.00    -0.182 OA 
BRANCH   4   5
HETATM    5  C   UNL     1      -9.797   4.300  68.022  1.00  0.00    -0.047 C  
HETATM    6  O   UNL     1      -9.290   3.473  68.767  1.00  0.00    -0.152 OA 
BRANCH   5   7
HETATM    7  C   UNL     1     -10.240   5.676  68.445  1.00  0.00    -0.247 C  
BRANCH   7   8
HETATM    8  C   UNL     1     -10.926   6.383  67.276  1.00  0.00    -0.474 C  
BRANCH   8   9
HETATM    9  C   UNL     1     -10.103   7.522  66.683  1.00  0.00    -0.263 C  
BRANCH   9  10
HETATM   10  C   UNL     1     -10.463   8.864  67.261  1.00  0.00    -0.348 C  
HETATM   11  C   UNL     1     -10.533  10.020  66.582  1.00  0.00    -0.244 C  
BRANCH  11  12
HETATM   12  C   UNL     1     -10.190  10.209  65.131  1.00  0.00    -0.233 C  
BRANCH  12  13
HETATM   13  C   UNL     1     -10.167  11.683  64.705  1.00  0.00    -0.327 C  
HETATM   14  C   UNL     1     -11.129  12.057  63.571  1.00  0.00    -0.443 C  
HETATM   15  O   UNL     1     -12.370  11.370  63.684  1.00  0.00    -0.448 OA 
HETATM   16  C   UNL     1     -11.378  13.547  63.776  1.00  0.00    -0.115 C  
HETATM   17  C   UNL     1     -11.483  13.691  65.291  1.00  0.00    -0.308 C  
HETATM   18  H   UNL     1     -12.966  11.602  62.981  1.00  0.00     0.000 HD 
HETATM   19  O   UNL     1     -12.828  13.433  65.707  1.00  0.00    -0.385 OA 
HETATM   20  C   UNL     1     -10.539  12.620  65.889  1.00  0.00    -0.297 C  
HETATM   21  H   UNL     1     -12.894  13.522  66.651  1.00  0.00     0.000 HD 
BRANCH  20  22
HETATM   22  C   UNL     1      -9.270  13.115  66.560  1.00  0.00    -0.185 C  
HETATM   23  C   UNL     1      -8.278  12.352  67.057  1.00  0.00    -0.141 C  
BRANCH  23  24
HETATM   24  C   UNL     1      -7.035  12.827  67.778  1.00  0.00    -0.131 C  
HETATM   25  H   UNL     1      -5.459  13.908  67.348  1.00  0.00     0.000 HD 
HETATM   26  O   UNL     1      -6.239  13.610  66.895  1.00  0.00     0.156 OA 
BRANCH  24  27
HETATM   27  C   UNL     1      -7.420  13.655  69.021  1.00  0.00     0.021 C  
BRANCH  27  28
HETATM   28  O   UNL     1      -7.389  15.063  68.736  1.00  0.00    -0.111 OA 
BRANCH  28  29
HETATM   29  C   UNL     1      -8.594  15.699  68.906  1.00  0.00    -0.211 A  
HETATM   30  C   UNL     1      -8.799  17.064  68.690  1.00  0.00    -0.267 A  
HETATM   31  C   UNL     1     -10.066  17.624  68.875  1.00  0.00    -0.351 A  
HETATM   32  C   UNL     1     -11.133  16.821  69.270  1.00  0.00    -0.113 A  
HETATM   33  C   UNL     1     -10.952  15.448  69.477  1.00  0.00    -0.276 A  
HETATM   34  C   UNL     1     -12.107  14.578  69.905  1.00  0.00    -0.336 C  
HETATM   35  C   UNL     1      -9.674  14.893  69.279  1.00  0.00    -0.147 A  
HETATM   36  F   UNL     1     -13.266  15.272  70.097  1.00  0.00    -0.261 F  
HETATM   37  F   UNL     1     -11.868  13.930  71.079  1.00  0.00    -0.374 F  
HETATM   38  F   UNL     1     -12.403  13.610  68.995  1.00  0.00    -0.371 F  
ENDBRANCH  28  29
ENDBRANCH  27  28
ENDBRANCH  24  27
ENDBRANCH  23  24
ENDBRANCH  20  22
ENDBRANCH  12  13
ENDBRANCH  11  12
ENDBRANCH   9  10
ENDBRANCH   8   9
ENDBRANCH   7   8
ENDBRANCH   5   7
ENDBRANCH   4   5
ENDBRANCH   2   4
TORSDOF 13
ENDMDL
MODEL      342
REMARK 921   NORMALIZED FREE ENERGY PREDICTED BY IDOCK:   -3.76 KCAL/MOL
REMARK 922        TOTAL FREE ENERGY PREDICTED BY IDOCK:   -8.84 KCAL/MOL
REMARK 923 INTER-LIGAND FREE ENERGY PREDICTED BY IDOCK:   -6.19 KCAL/MOL
REMARK 924 INTRA-LIGAND FREE ENERGY PREDICTED BY IDOCK:   -2.65 KCAL/MOL
REMARK 927      BINDING AFFINITY PREDICTED BY RF-SCORE:    0.00 PKD
ROOT
HETATM    1  C   UNL     1      -9.312   7.867  66.368  1.00  0.00    -0.247 C  
HETATM    2  C   UNL     1      -8.945   9.328  66.605  1.00  0.00    -0.140 C  
HETATM    3  C   UNL     1      -9.350  10.188  65.412  1.00  0.00    -0.269 C  
ENDROOT
BRANCH   2   4
HETATM    4  O   UNL     1      -9.659   9.817  67.755  1.00  0.00    -0.134 OA 
BRANCH   4   5
HETATM    5  C   UNL     1      -8.904   9.962  68.880  1.00  0.00    -0.145 C  
HETATM    6  O   UNL     1      -9.312   9.808  70.024  1.00  0.00    -0.225 OA 
BRANCH   5   7
HETATM    7  C   UNL     1      -7.509  10.400  68.521  1.00  0.00    -0.089 C  
BRANCH   7   8
HETATM    8  C   UNL     1      -7.369  11.908  68.724  1.00  0.00    -0.105 C  
BRANCH   8   9
HETATM    9  C   UNL     1      -8.629  12.691  68.368  1.00  0.00    -0.122 C  
BRANCH   9  10
HETATM   10  C   UNL     1      -8.361  14.153  68.137  1.00  0.00    -0.161 C  
HETATM   11  C   UNL     1      -8.786  15.164  68.911  1.00  0.00    -0.205 C  
BRANCH  11  12
HETATM   12  C   UNL     1      -9.678  15.034  70.115  1.00  0.00     0.265 C  
BRANCH  12  13
HETATM   13  C   UNL     1     -11.009  14.336  69.805  1.00  0.00    -0.112 C  
HETATM   14  C   UNL     1     -11.678  13.633  70.992  1.00  0.00     0.324 C  
HETATM   15  O   UNL     1     -11.529  14.377  72.197  1.00  0.00    -0.089 OA 
HETATM   16  C   UNL     1     -13.155  13.605  70.619  1.00  0.00    -0.038 C  
HETATM   17  C   UNL     1     -13.393  14.968  69.975  1.00  0.00     0.444 C  
HETATM   18  H   UNL     1     -11.944  13.941  72.933  1.00  0.00     0.000 HD 
HETATM   19  O   UNL     1     -13.692  15.934  70.989  1.00  0.00    -0.569 OA 
HETATM   20  C   UNL     1     -12.066  15.345  69.273  1.00  0.00    -0.283 C  
HETATM   21  H   UNL     1     -13.839  16.783  70.588  1.00  0.00     0.000 HD 
BRANCH  20  22
HETATM   22  C   UNL     1     -12.059  15.331  67.754  1.00  0.00     0.184 C  
HETATM   23  C   UNL     1     -11.623  14.330  66.966  1.00  0.00    -0.406 C  
BRANCH  23  24
HETATM   24  C   UNL     1     -11.557  14.323  65.454  1.00  0.00    -0.346 C  
HETATM   25  H   UNL     1     -12.776  14.710  63.968  1.00  0.00     0.000 HD 
HETATM   26  O   UNL     1     -12.817  14.716  64.918  1.00  0.00    -0.509 OA 
BRANCH  24  27
HETATM   27  C   UNL     1     -10.451  15.277  64.961  1.00  0.00    -0.382 C  
BRANCH  27  28
HETATM   28  O   UNL     1     -10.839  16.651  65.123  1.00  0.00    -0.565 OA 
BRANCH  28  29
HETATM   29  C   UNL     1     -10.046  17.362  65.988  1.00  0.00    -0.262 A  
HETATM   30  C   UNL     1     -10.535  18.215  66.981  1.00  0.00    -0.385 A  
HETATM   31  C   UNL     1      -9.652  18.890  67.827  1.00  0.00    -0.357 A  
HETATM   32  C   UNL     1      -8.278  18.709  67.690  1.00  0.00    -0.274 A  
HETATM   33  C   UNL     1      -7.769  17.847  66.712  1.00  0.00    -0.251 A  
HETATM   34  C   UNL     1      -6.280  17.652  66.562  1.00  0.00    -0.205 C  
HETATM   35  C   UNL     1      -8.666  17.166  65.870  1.00  0.00    -0.009 A  
HETATM   36  F   UNL     1      -5.545  18.415  67.421  1.00  0.00    -0.139 F  
HETATM   37  F   UNL     1      -5.834  17.968  65.315  1.00  0.00    -0.207 F  
HETATM   38  F   UNL     1      -5.893  16.367  66.786  1.00  0.00    -0.182 F  
ENDBRANCH  28  29
ENDBRANCH  27  28
ENDBRANCH  24  27
ENDBRANCH  23  24
ENDBRANCH  20  22
ENDBRANCH  12  13
ENDBRANCH  11  12
ENDBRANCH   9  10
ENDBRANCH   8   9
ENDBRANCH   7   8
ENDBRANCH   5   7
ENDBRANCH   4   5
ENDBRANCH   2   4
TORSDOF 13
ENDMDL
MODEL      343
REMARK 921   NORMALIZED FREE ENERGY PREDICTED BY IDOCK:   -3.72 KCAL/MOL
REMARK 922        TOTAL FREE ENERGY PREDICTED BY IDOCK:   -8.77 KCAL/MOL
REMARK 923 INTER-LIGAND FREE ENERGY PREDICTED BY IDOCK:   -6.56 KCAL/MOL
REMARK 924 INTRA-LIGAND FREE ENERGY PREDICTED BY IDOCK:   -2.22 KCAL/MOL
REMARK 927      BINDING AFFINITY PREDICTED BY RF-SCORE:    0.00 PKD
ROOT
HETATM    1  C   UNL     1     -12.397  15.108  68.752  1.00  0.00     0.027 C  
HETATM    2  C   UNL     1     -11.699  14.946  67.406  1.00  0.00    -0.293 C  
HETATM    3  C   UNL     1     -10.183  14.990  67.575  1.00  0.00    -0.234 C  
ENDROOT
BRANCH   2   4
HETATM    4  O   UNL     1     -12.035  13.663  66.848  1.00  0.00    -0.386 OA 
BRANCH   4   5
HETATM    5  C   UNL     1     -12.519  13.700  65.574  1.00  0.00    -0.503 C  
HETATM    6  O   UNL     1     -12.980  14.693  65.027  1.00  0.00    -0.465 OA 
BRANCH   5   7
HETATM    7  C   UNL     1     -12.462  12.330  64.953  1.00  0.00    -0.327 C  
BRANCH   7   8
HETATM    8  C   UNL     1     -11.120  11.671  65.273  1.00  0.00    -0.298 C  
BRANCH   8   9
HETATM    9  C   UNL     1      -9.977  12.152  64.385  1.00  0.00    -0.240 C  
BRANCH   9  10
HETATM   10  C   UNL     1     -10.016  11.550  63.007  1.00  0.00    -0.352 C  
HETATM   11  C   UNL     1      -9.122  10.687  62.499  1.00  0.00    -0.326 C  
BRANCH  11  12
HETATM   12  C   UNL     1      -7.867  10.218  63.183  1.00  0.00    -0.144 C  
BRANCH  12  13
HETATM   13  C   UNL     1      -8.052   8.893  63.935  1.00  0.00    -0.163 C  
HETATM   14  C   UNL     1      -7.376   7.673  63.299  1.00  0.00    -0.090 C  
HETATM   15  O   UNL     1      -6.107   8.003  62.743  1.00  0.00    -0.075 OA 
HETATM   16  C   UNL     1      -7.160   6.720  64.469  1.00  0.00    -0.061 C  
HETATM   17  C   UNL     1      -6.738   7.639  65.612  1.00  0.00    -0.045 C  
HETATM   18  H   UNL     1      -5.689   7.246  62.349  1.00  0.00     0.000 HD 
HETATM   19  O   UNL     1      -5.325   7.856  65.558  1.00  0.00    -0.028 OA 
HETATM   20  C   UNL     1      -7.480   8.978  65.379  1.00  0.00    -0.089 C  
HETATM   21  H   UNL     1      -5.062   8.429  66.270  1.00  0.00     0.000 HD 
BRANCH  20  22
HETATM   22  C   UNL     1      -8.597   9.327  66.346  1.00  0.00    -0.141 C  
HETATM   23  C   UNL     1      -8.463   9.952  67.530  1.00  0.00    -0.115 C  
BRANCH  23  24
HETATM   24  C   UNL     1      -9.557  10.257  68.530  1.00  0.00    -0.161 C  
HETATM   25  H   UNL     1     -10.494  11.851  69.183  1.00  0.00     0.000 HD 
HETATM   26  O   UNL     1      -9.807  11.660  68.555  1.00  0.00    -0.197 OA 
BRANCH  24  27
HETATM   27  C   UNL     1     -10.847   9.496  68.162  1.00  0.00    -0.156 C  
BRANCH  27  28
HETATM   28  O   UNL     1     -10.578   8.106  67.918  1.00  0.00    -0.212 OA 
BRANCH  28  29
HETATM   29  C   UNL     1     -10.367   7.365  69.054  1.00  0.00    -0.210 A  
HETATM   30  C   UNL     1     -11.253   7.312  70.133  1.00  0.00    -0.264 A  
HETATM   31  C   UNL     1     -10.961   6.519  71.246  1.00  0.00    -0.309 A  
HETATM   32  C   UNL     1      -9.787   5.770  71.281  1.00  0.00    -0.223 A  
HETATM   33  C   UNL     1      -8.894   5.798  70.203  1.00  0.00    -0.144 A  
HETATM   34  C   UNL     1      -7.621   4.988  70.241  1.00  0.00    -0.063 C  
HETATM   35  C   UNL     1      -9.201   6.593  69.084  1.00  0.00    -0.136 A  
HETATM   36  F   UNL     1      -7.447   4.307  71.411  1.00  0.00    -0.052 F  
HETATM   37  F   UNL     1      -6.507   5.757  70.095  1.00  0.00    -0.032 F  
HETATM   38  F   UNL     1      -7.564   4.051  69.256  1.00  0.00    -0.053 F  
ENDBRANCH  28  29
ENDBRANCH  27  28
ENDBRANCH  24  27
ENDBRANCH  23  24
ENDBRANCH  20  22
ENDBRANCH  12  13
ENDBRANCH  11  12
ENDBRANCH   9  10
ENDBRANCH   8   9
ENDBRANCH   7   8
ENDBRANCH   5   7
ENDBRANCH   4   5
ENDBRANCH   2   4
TORSDOF 13
ENDMDL
MODEL      344
REMARK 921   NORMALIZED FREE ENERGY PREDICTED BY IDOCK:   -3.72 KCAL/MOL
REMARK 922        TOTAL FREE ENERGY PREDICTED BY IDOCK:   -8.77 KCAL/MOL
REMARK 923 INTER-LIGAND FREE ENERGY PREDICTED BY IDOCK:   -6.43 KCAL/MOL
REMARK 924 INTRA-LIGAND FREE ENERGY PREDICTED BY IDOCK:   -2.34 KCAL/MOL
REMARK 927      BINDING AFFINITY PREDICTED BY RF-SCORE:    0.00 PKD
ROOT
HETATM    1  C   UNL     1      -7.947   4.907  66.050  1.00  0.00    -0.107 C  
HETATM    2  C   UNL     1      -9.214   4.097  65.801  1.00  0.00    -0.148 C  
HETATM    3  C   UNL     1      -9.019   2.645  66.225  1.00  0.00    -0.143 C  
ENDROOT
BRANCH   2   4
HETATM    4  O   UNL     1     -10.287   4.639  66.592  1.00  0.00    -0.237 OA 
BRANCH   4   5
HETATM    5  C   UNL     1     -10.023   4.740  67.925  1.00  0.00    -0.102 C  
HETATM    6  O   UNL     1      -9.532   3.856  68.613  1.00  0.00    -0.156 OA 
BRANCH   5   7
HETATM    7  C   UNL     1     -10.478   6.078  68.447  1.00  0.00    -0.290 C  
BRANCH   7   8
HETATM    8  C   UNL     1     -11.195   6.850  67.340  1.00  0.00    -0.217 C  
BRANCH   8   9
HETATM    9  C   UNL     1     -10.450   8.104  66.890  1.00  0.00    -0.379 C  
BRANCH   9  10
HETATM   10  C   UNL     1     -10.869   9.334  67.649  1.00  0.00    -0.188 C  
HETATM   11  C   UNL     1     -10.953  10.577  67.149  1.00  0.00    -0.294 C  
BRANCH  11  12
HETATM   12  C   UNL     1     -10.570  10.991  65.755  1.00  0.00    -0.260 C  
BRANCH  12  13
HETATM   13  C   UNL     1     -10.398  12.508  65.603  1.00  0.00    -0.294 C  
HETATM   14  C   UNL     1     -11.143  13.142  64.422  1.00  0.00    -0.381 C  
HETATM   15  O   UNL     1     -12.422  12.549  64.227  1.00  0.00    -0.487 OA 
HETATM   16  C   UNL     1     -11.340  14.592  64.847  1.00  0.00    -0.403 C  
HETATM   17  C   UNL     1     -11.680  14.492  66.331  1.00  0.00    -0.363 C  
HETATM   18  H   UNL     1     -12.884  12.943  63.495  1.00  0.00     0.000 HD 
HETATM   19  O   UNL     1     -13.086  14.279  66.491  1.00  0.00    -0.254 OA 
HETATM   20  C   UNL     1     -10.904  13.264  66.865  1.00  0.00    -0.286 C  
HETATM   21  H   UNL     1     -13.297  14.217  67.415  1.00  0.00     0.000 HD 
BRANCH  20  22
HETATM   22  C   UNL     1      -9.734  13.535  67.795  1.00  0.00    -0.226 C  
HETATM   23  C   UNL     1      -9.003  14.663  67.852  1.00  0.00    -0.174 C  
BRANCH  23  24
HETATM   24  C   UNL     1      -7.800  14.928  68.732  1.00  0.00    -0.149 C  
HETATM   25  H   UNL     1      -7.449  15.125  70.650  1.00  0.00     0.000 HD 
HETATM   26  O   UNL     1      -8.204  14.958  70.098  1.00  0.00     0.243 OA 
BRANCH  24  27
HETATM   27  C   UNL     1      -6.731  13.838  68.520  1.00  0.00    -0.094 C  
BRANCH  27  28
HETATM   28  O   UNL     1      -6.892  12.762  69.459  1.00  0.00    -0.029 OA 
BRANCH  28  29
HETATM   29  C   UNL     1      -7.022  11.525  68.880  1.00  0.00    -0.100 A  
HETATM   30  C   UNL     1      -7.249  10.344  69.592  1.00  0.00    -0.148 A  
HETATM   31  C   UNL     1      -7.382   9.128  68.917  1.00  0.00    -0.074 A  
HETATM   32  C   UNL     1      -7.297   9.088  67.527  1.00  0.00    -0.081 A  
HETATM   33  C   UNL     1      -7.085  10.262  66.794  1.00  0.00    -0.094 A  
HETATM   34  C   UNL     1      -6.991  10.220  65.289  1.00  0.00    -0.130 C  
HETATM   35  C   UNL     1      -6.961  11.482  67.483  1.00  0.00    -0.102 A  
HETATM   36  F   UNL     1      -7.087   8.959  64.776  1.00  0.00    -0.083 F  
HETATM   37  F   UNL     1      -5.812  10.718  64.824  1.00  0.00    -0.135 F  
HETATM   38  F   UNL     1      -7.971  10.941  64.680  1.00  0.00    -0.065 F  
ENDBRANCH  28  29
ENDBRANCH  27  28
ENDBRANCH  24  27
ENDBRANCH  23  24
ENDBRANCH  20  22
ENDBRANCH  12  13
ENDBRANCH  11  12
ENDBRANCH   9  10
ENDBRANCH   8   9
ENDBRANCH   7   8
ENDBRANCH   5   7
ENDBRANCH   4   5
ENDBRANCH   2   4
TORSDOF 13
ENDMDL
MODEL      345
REMARK 921   NORMALIZED FREE ENERGY PREDICTED BY IDOCK:   -3.72 KCAL/MOL
REMARK 922        TOTAL FREE ENERGY PREDICTED BY IDOCK:   -8.77 KCAL/MOL
REMARK 923 INTER-LIGAND FREE ENERGY PREDICTED BY IDOCK:   -7.53 KCAL/MOL
REMARK 924 INTRA-LIGAND FREE ENERGY PREDICTED BY IDOCK:   -1.24 KCAL/MOL
REMARK 927      BINDING AFFINITY PREDICTED BY RF-SCORE:    0.00 PKD
ROOT
HETATM    1  C   UNL     1     -13.806  15.271  71.348  1.00  0.00    -0.603 C  
HETATM    2  C   UNL     1     -12.770  15.667  70.302  1.00  0.00    -0.206 C  
HETATM    3  C   UNL     1     -11.389  15.809  70.935  1.00  0.00    -0.426 C  
ENDROOT
BRANCH   2   4
HETATM    4  O   UNL     1     -12.684  14.634  69.303  1.00  0.00     0.013 OA 
BRANCH   4   5
HETATM    5  C   UNL     1     -12.004  13.517  69.689  1.00  0.00    -0.337 C  
HETATM    6  O   UNL     1     -12.166  12.929  70.750  1.00  0.00    -0.367 OA 
BRANCH   5   7
HETATM    7  C   UNL     1     -10.981  13.144  68.650  1.00  0.00    -0.296 C  
BRANCH   7   8
HETATM    8  C   UNL     1     -11.667  12.450  67.473  1.00  0.00    -0.425 C  
BRANCH   8   9
HETATM    9  C   UNL     1     -11.763  13.321  66.224  1.00  0.00    -0.412 C  
BRANCH   9  10
HETATM   10  C   UNL     1     -10.443  13.482  65.522  1.00  0.00    -0.304 C  
HETATM   11  C   UNL     1      -9.861  12.576  64.721  1.00  0.00    -0.084 C  
BRANCH  11  12
HETATM   12  C   UNL     1     -10.382  11.194  64.434  1.00  0.00    -0.407 C  
BRANCH  12  13
HETATM   13  C   UNL     1      -9.357  10.091  64.729  1.00  0.00    -0.330 C  
HETATM   14  C   UNL     1      -8.902   9.271  63.516  1.00  0.00    -0.118 C  
HETATM   15  O   UNL     1      -8.757  10.082  62.355  1.00  0.00    -0.171 OA 
HETATM   16  C   UNL     1      -7.527   8.750  63.918  1.00  0.00    -0.117 C  
HETATM   17  C   UNL     1      -6.892   9.930  64.648  1.00  0.00    -0.126 C  
HETATM   18  H   UNL     1      -8.475   9.573  61.604  1.00  0.00     0.000 HD 
HETATM   19  O   UNL     1      -6.260  10.797  63.701  1.00  0.00    -0.370 OA 
HETATM   20  C   UNL     1      -8.055  10.678  65.344  1.00  0.00    -0.106 C  
HETATM   21  H   UNL     1      -5.864  11.532  64.155  1.00  0.00     0.000 HD 
BRANCH  20  22
HETATM   22  C   UNL     1      -8.126  10.590  66.858  1.00  0.00    -0.120 C  
HETATM   23  C   UNL     1      -8.213   9.464  67.590  1.00  0.00    -0.114 C  
BRANCH  23  24
HETATM   24  C   UNL     1      -8.341   9.362  69.095  1.00  0.00    -0.125 C  
HETATM   25  H   UNL     1      -7.341   9.988  70.660  1.00  0.00     0.000 HD 
HETATM   26  O   UNL     1      -7.260  10.052  69.716  1.00  0.00    -0.092 OA 
BRANCH  24  27
HETATM   27  C   UNL     1      -9.686   9.957  69.560  1.00  0.00    -0.220 C  
BRANCH  27  28
HETATM   28  O   UNL     1      -9.762  10.010  70.994  1.00  0.00     0.177 OA 
BRANCH  28  29
HETATM   29  C   UNL     1     -10.606   9.079  71.548  1.00  0.00    -0.345 A  
HETATM   30  C   UNL     1     -11.845   9.382  72.116  1.00  0.00    -0.180 A  
HETATM   31  C   UNL     1     -12.645   8.367  72.646  1.00  0.00    -0.224 A  
HETATM   32  C   UNL     1     -12.213   7.043  72.602  1.00  0.00     0.172 A  
HETATM   33  C   UNL     1     -10.981   6.717  72.022  1.00  0.00    -0.274 A  
HETATM   34  C   UNL     1     -10.511   5.284  71.975  1.00  0.00    -0.222 C  
HETATM   35  C   UNL     1     -10.187   7.746  71.485  1.00  0.00    -0.216 A  
HETATM   36  F   UNL     1     -11.372   4.412  72.577  1.00  0.00    -0.127 F  
HETATM   37  F   UNL     1      -9.313   5.105  72.597  1.00  0.00    -0.136 F  
HETATM   38  F   UNL     1     -10.350   4.824  70.705  1.00  0.00    -0.294 F  
ENDBRANCH  28  29
ENDBRANCH  27  28
ENDBRANCH  24  27
ENDBRANCH  23  24
ENDBRANCH  20  22
ENDBRANCH  12  13
ENDBRANCH  11  12
ENDBRANCH   9  10
ENDBRANCH   8   9
ENDBRANCH   7   8
ENDBRANCH   5   7
ENDBRANCH   4   5
ENDBRANCH   2   4
TORSDOF 13
ENDMDL
MODEL      346
REMARK 921   NORMALIZED FREE ENERGY PREDICTED BY IDOCK:   -3.70 KCAL/MOL
REMARK 922        TOTAL FREE ENERGY PREDICTED BY IDOCK:   -8.74 KCAL/MOL
REMARK 923 INTER-LIGAND FREE ENERGY PREDICTED BY IDOCK:   -6.66 KCAL/MOL
REMARK 924 INTRA-LIGAND FREE ENERGY PREDICTED BY IDOCK:   -2.08 KCAL/MOL
REMARK 927      BINDING AFFINITY PREDICTED BY RF-SCORE:    0.00 PKD
ROOT
HETATM    1  C   UNL     1     -11.302  13.683  67.471  1.00  0.00    -0.335 C  
HETATM    2  C   UNL     1     -10.324  13.632  66.302  1.00  0.00    -0.293 C  
HETATM    3  C   UNL     1      -8.914  13.991  66.761  1.00  0.00    -0.217 C  
ENDROOT
BRANCH   2   4
HETATM    4  O   UNL     1     -10.282  12.293  65.776  1.00  0.00    -0.244 OA 
BRANCH   4   5
HETATM    5  C   UNL     1     -10.300  12.210  64.416  1.00  0.00    -0.319 C  
HETATM    6  O   UNL     1     -10.321  13.167  63.654  1.00  0.00    -0.231 OA 
BRANCH   5   7
HETATM    7  C   UNL     1     -10.351  10.769  63.982  1.00  0.00    -0.357 C  
BRANCH   7   8
HETATM    8  C   UNL     1      -9.334   9.951  64.778  1.00  0.00    -0.339 C  
BRANCH   8   9
HETATM    9  C   UNL     1      -7.900  10.108  64.279  1.00  0.00    -0.140 C  
BRANCH   9  10
HETATM   10  C   UNL     1      -7.696   9.535  62.903  1.00  0.00    -0.118 C  
HETATM   11  C   UNL     1      -7.188   8.325  62.621  1.00  0.00    -0.096 C  
BRANCH  11  12
HETATM   12  C   UNL     1      -6.654   7.341  63.624  1.00  0.00    -0.052 C  
BRANCH  12  13
HETATM   13  C   UNL     1      -7.685   6.281  64.036  1.00  0.00    -0.104 C  
HETATM   14  C   UNL     1      -7.657   4.982  63.223  1.00  0.00    -0.062 C  
HETATM   15  O   UNL     1      -6.327   4.590  62.900  1.00  0.00    -0.024 OA 
HETATM   16  C   UNL     1      -8.253   3.944  64.166  1.00  0.00    -0.091 C  
HETATM   17  C   UNL     1      -7.664   4.309  65.525  1.00  0.00    -0.086 C  
HETATM   18  H   UNL     1      -6.310   3.785  62.396  1.00  0.00     0.000 HD 
HETATM   19  O   UNL     1      -6.387   3.682  65.681  1.00  0.00    -0.031 OA 
HETATM   20  C   UNL     1      -7.491   5.847  65.516  1.00  0.00    -0.082 C  
HETATM   21  H   UNL     1      -6.019   3.909  66.527  1.00  0.00     0.000 HD 
BRANCH  20  22
HETATM   22  C   UNL     1      -8.421   6.653  66.406  1.00  0.00    -0.125 C  
HETATM   23  C   UNL     1      -8.268   6.882  67.724  1.00  0.00    -0.117 C  
BRANCH  23  24
HETATM   24  C   UNL     1      -9.214   7.634  68.635  1.00  0.00    -0.141 C  
HETATM   25  H   UNL     1      -9.377   9.458  69.333  1.00  0.00     0.000 HD 
HETATM   26  O   UNL     1      -8.783   8.986  68.761  1.00  0.00    -0.133 OA 
BRANCH  24  27
HETATM   27  C   UNL     1     -10.650   7.585  68.075  1.00  0.00    -0.155 C  
BRANCH  27  28
HETATM   28  O   UNL     1     -11.331   6.391  68.495  1.00  0.00    -0.303 OA 
BRANCH  28  29
HETATM   29  C   UNL     1     -11.268   6.153  69.845  1.00  0.00    -0.414 A  
HETATM   30  C   UNL     1     -11.928   6.919  70.810  1.00  0.00    -0.424 A  
HETATM   31  C   UNL     1     -11.818   6.594  72.164  1.00  0.00    -0.337 A  
HETATM   32  C   UNL     1     -11.056   5.497  72.559  1.00  0.00    -0.324 A  
HETATM   33  C   UNL     1     -10.400   4.708  71.607  1.00  0.00    -0.189 A  
HETATM   34  C   UNL     1      -9.573   3.520  72.034  1.00  0.00    -0.143 C  
HETATM   35  C   UNL     1     -10.524   5.038  70.245  1.00  0.00    -0.243 A  
HETATM   36  F   UNL     1      -9.516   3.359  73.388  1.00  0.00    -0.105 F  
HETATM   37  F   UNL     1      -8.279   3.607  71.619  1.00  0.00    -0.062 F  
HETATM   38  F   UNL     1     -10.048   2.343  71.543  1.00  0.00    -0.230 F  
ENDBRANCH  28  29
ENDBRANCH  27  28
ENDBRANCH  24  27
ENDBRANCH  23  24
ENDBRANCH  20  22
ENDBRANCH  12  13
ENDBRANCH  11  12
ENDBRANCH   9  10
ENDBRANCH   8   9
ENDBRANCH   7   8
ENDBRANCH   5   7
ENDBRANCH   4   5
ENDBRANCH   2   4
TORSDOF 13
ENDMDL
MODEL      347
REMARK 921   NORMALIZED FREE ENERGY PREDICTED BY IDOCK:   -3.70 KCAL/MOL
REMARK 922        TOTAL FREE ENERGY PREDICTED BY IDOCK:   -8.74 KCAL/MOL
REMARK 923 INTER-LIGAND FREE ENERGY PREDICTED BY IDOCK:   -7.05 KCAL/MOL
REMARK 924 INTRA-LIGAND FREE ENERGY PREDICTED BY IDOCK:   -1.69 KCAL/MOL
REMARK 927      BINDING AFFINITY PREDICTED BY RF-SCORE:    0.00 PKD
ROOT
HETATM    1  C   UNL     1     -11.766   8.951  72.065  1.00  0.00    -0.438 C  
HETATM    2  C   UNL     1     -11.733   9.100  70.548  1.00  0.00    -0.152 C  
HETATM    3  C   UNL     1     -11.366  10.527  70.153  1.00  0.00    -0.400 C  
ENDROOT
BRANCH   2   4
HETATM    4  O   UNL     1     -10.725   8.228  70.006  1.00  0.00    -0.237 OA 
BRANCH   4   5
HETATM    5  C   UNL     1      -9.503   8.805  69.827  1.00  0.00    -0.167 C  
HETATM    6  O   UNL     1      -8.852   9.358  70.703  1.00  0.00    -0.232 OA 
BRANCH   5   7
HETATM    7  C   UNL     1      -9.092   8.718  68.381  1.00  0.00    -0.141 C  
BRANCH   7   8
HETATM    8  C   UNL     1      -7.583   8.931  68.257  1.00  0.00    -0.092 C  
BRANCH   8   9
HETATM    9  C   UNL     1      -6.781   7.633  68.265  1.00  0.00    -0.062 C  
BRANCH   9  10
HETATM   10  C   UNL     1      -7.652   6.410  68.355  1.00  0.00    -0.100 C  
HETATM   11  C   UNL     1      -7.508   5.286  67.636  1.00  0.00    -0.083 C  
BRANCH  11  12
HETATM   12  C   UNL     1      -6.496   5.064  66.546  1.00  0.00    -0.041 C  
BRANCH  12  13
HETATM   13  C   UNL     1      -7.130   4.900  65.159  1.00  0.00    -0.063 C  
HETATM   14  C   UNL     1      -7.174   3.466  64.618  1.00  0.00    -0.066 C  
HETATM   15  O   UNL     1      -7.462   2.524  65.646  1.00  0.00    -0.066 OA 
HETATM   16  C   UNL     1      -8.337   3.480  63.633  1.00  0.00    -0.090 C  
HETATM   17  C   UNL     1      -9.389   4.341  64.326  1.00  0.00    -0.150 C  
HETATM   18  H   UNL     1      -7.490   1.635  65.310  1.00  0.00     0.000 HD 
HETATM   19  O   UNL     1     -10.174   3.529  65.205  1.00  0.00    -0.398 OA 
HETATM   20  C   UNL     1      -8.605   5.392  65.150  1.00  0.00    -0.149 C  
HETATM   21  H   UNL     1     -10.829   4.065  65.637  1.00  0.00     0.000 HD 
BRANCH  20  22
HETATM   22  C   UNL     1      -8.656   6.830  64.664  1.00  0.00     0.244 C  
HETATM   23  C   UNL     1      -7.614   7.568  64.240  1.00  0.00    -0.105 C  
BRANCH  23  24
HETATM   24  C   UNL     1      -7.639   9.018  63.806  1.00  0.00    -0.115 C  
HETATM   25  H   UNL     1      -8.381  10.051  62.315  1.00  0.00     0.000 HD 
HETATM   26  O   UNL     1      -8.366   9.141  62.587  1.00  0.00    -0.166 OA 
BRANCH  24  27
HETATM   27  C   UNL     1      -8.285   9.893  64.899  1.00  0.00    -0.146 C  
BRANCH  27  28
HETATM   28  O   UNL     1      -9.720   9.844  64.823  1.00  0.00    -0.309 OA 
BRANCH  28  29
HETATM   29  C   UNL     1     -10.321  11.075  64.739  1.00  0.00    -0.324 A  
HETATM   30  C   UNL     1     -11.064  11.513  63.639  1.00  0.00    -0.469 A  
HETATM   31  C   UNL     1     -11.653  12.780  63.646  1.00  0.00    -0.572 A  
HETATM   32  C   UNL     1     -11.509  13.611  64.755  1.00  0.00    -0.367 A  
HETATM   33  C   UNL     1     -10.781  13.185  65.873  1.00  0.00    -0.287 A  
HETATM   34  C   UNL     1     -10.624  14.084  67.074  1.00  0.00    -0.279 C  
HETATM   35  C   UNL     1     -10.199  11.904  65.859  1.00  0.00    -0.270 A  
HETATM   36  F   UNL     1     -11.207  15.307  66.914  1.00  0.00    -0.323 F  
HETATM   37  F   UNL     1      -9.319  14.335  67.372  1.00  0.00    -0.184 F  
HETATM   38  F   UNL     1     -11.174  13.558  68.202  1.00  0.00    -0.251 F  
ENDBRANCH  28  29
ENDBRANCH  27  28
ENDBRANCH  24  27
ENDBRANCH  23  24
ENDBRANCH  20  22
ENDBRANCH  12  13
ENDBRANCH  11  12
ENDBRANCH   9  10
ENDBRANCH   8   9
ENDBRANCH   7   8
ENDBRANCH   5   7
ENDBRANCH   4   5
ENDBRANCH   2   4
TORSDOF 13
ENDMDL
MODEL      348
REMARK 921   NORMALIZED FREE ENERGY PREDICTED BY IDOCK:   -3.66 KCAL/MOL
REMARK 922        TOTAL FREE ENERGY PREDICTED BY IDOCK:   -8.67 KCAL/MOL
REMARK 923 INTER-LIGAND FREE ENERGY PREDICTED BY IDOCK:   -7.14 KCAL/MOL
REMARK 924 INTRA-LIGAND FREE ENERGY PREDICTED BY IDOCK:   -1.53 KCAL/MOL
REMARK 927      BINDING AFFINITY PREDICTED BY RF-SCORE:    0.00 PKD
ROOT
HETATM    1  C   UNL     1      -8.740   6.799  65.261  1.00  0.00     0.060 C  
HETATM    2  C   UNL     1      -9.058   6.131  66.594  1.00  0.00    -0.139 C  
HETATM    3  C   UNL     1      -8.445   4.736  66.658  1.00  0.00    -0.106 C  
ENDROOT
BRANCH   2   4
HETATM    4  O   UNL     1      -8.486   6.906  67.663  1.00  0.00    -0.122 OA 
BRANCH   4   5
HETATM    5  C   UNL     1      -7.219   7.355  67.432  1.00  0.00    -0.093 C  
HETATM    6  O   UNL     1      -6.223   6.646  67.375  1.00  0.00    -0.030 OA 
BRANCH   5   7
HETATM    7  C   UNL     1      -7.210   8.856  67.316  1.00  0.00    -0.083 C  
BRANCH   7   8
HETATM    8  C   UNL     1      -7.761   9.479  68.599  1.00  0.00    -0.081 C  
BRANCH   8   9
HETATM    9  C   UNL     1      -7.092   8.957  69.867  1.00  0.00    -0.055 C  
BRANCH   9  10
HETATM   10  C   UNL     1      -7.835   9.339  71.117  1.00  0.00    -0.046 C  
HETATM   11  C   UNL     1      -8.215   8.501  72.095  1.00  0.00    -0.175 C  
BRANCH  11  12
HETATM   12  C   UNL     1      -8.037   7.008  72.090  1.00  0.00    -0.093 C  
BRANCH  12  13
HETATM   13  C   UNL     1      -9.348   6.247  71.855  1.00  0.00    -0.153 C  
HETATM   14  C   UNL     1      -9.208   4.731  71.668  1.00  0.00    -0.138 C  
HETATM   15  O   UNL     1      -8.214   4.184  72.528  1.00  0.00    -0.096 OA 
HETATM   16  C   UNL     1     -10.567   4.181  72.085  1.00  0.00    -0.026 C  
HETATM   17  C   UNL     1     -10.944   5.028  73.297  1.00  0.00    -0.318 C  
HETATM   18  H   UNL     1      -8.127   3.245  72.412  1.00  0.00     0.000 HD 
HETATM   19  O   UNL     1     -10.375   4.457  74.480  1.00  0.00    -0.218 OA 
HETATM   20  C   UNL     1     -10.329   6.427  73.048  1.00  0.00    -0.234 C  
HETATM   21  H   UNL     1     -10.610   4.985  75.235  1.00  0.00     0.000 HD 
BRANCH  20  22
HETATM   22  C   UNL     1     -11.292   7.561  72.744  1.00  0.00    -0.388 C  
HETATM   23  C   UNL     1     -11.695   7.963  71.524  1.00  0.00    -0.317 C  
BRANCH  23  24
HETATM   24  C   UNL     1     -12.609   9.125  71.201  1.00  0.00    -0.233 C  
HETATM   25  H   UNL     1     -14.066  10.087  72.092  1.00  0.00     0.000 HD 
HETATM   26  O   UNL     1     -13.492   9.358  72.294  1.00  0.00    -0.434 OA 
BRANCH  24  27
HETATM   27  C   UNL     1     -11.781  10.393  70.911  1.00  0.00    -0.360 C  
BRANCH  27  28
HETATM   28  O   UNL     1     -12.617  11.561  70.866  1.00  0.00    -0.369 OA 
BRANCH  28  29
HETATM   29  C   UNL     1     -12.186  12.529  69.994  1.00  0.00    -0.192 A  
HETATM   30  C   UNL     1     -12.337  13.902  70.206  1.00  0.00    -0.413 A  
HETATM   31  C   UNL     1     -11.855  14.818  69.268  1.00  0.00    -0.352 A  
HETATM   32  C   UNL     1     -11.212  14.366  68.118  1.00  0.00    -0.300 A  
HETATM   33  C   UNL     1     -11.037  12.995  67.894  1.00  0.00    -0.282 A  
HETATM   34  C   UNL     1     -10.343  12.504  66.647  1.00  0.00    -0.227 C  
HETATM   35  C   UNL     1     -11.520  12.081  68.849  1.00  0.00    -0.356 A  
HETATM   36  F   UNL     1      -9.975  13.510  65.801  1.00  0.00    -0.271 F  
HETATM   37  F   UNL     1     -11.123  11.669  65.908  1.00  0.00    -0.329 F  
HETATM   38  F   UNL     1      -9.202  11.814  66.918  1.00  0.00    -0.170 F  
ENDBRANCH  28  29
ENDBRANCH  27  28
ENDBRANCH  24  27
ENDBRANCH  23  24
ENDBRANCH  20  22
ENDBRANCH  12  13
ENDBRANCH  11  12
ENDBRANCH   9  10
ENDBRANCH   8   9
ENDBRANCH   7   8
ENDBRANCH   5   7
ENDBRANCH   4   5
ENDBRANCH   2   4
TORSDOF 13
ENDMDL
MODEL      349
REMARK 921   NORMALIZED FREE ENERGY PREDICTED BY IDOCK:   -3.66 KCAL/MOL
REMARK 922        TOTAL FREE ENERGY PREDICTED BY IDOCK:   -8.66 KCAL/MOL
REMARK 923 INTER-LIGAND FREE ENERGY PREDICTED BY IDOCK:   -8.38 KCAL/MOL
REMARK 924 INTRA-LIGAND FREE ENERGY PREDICTED BY IDOCK:   -0.28 KCAL/MOL
REMARK 927      BINDING AFFINITY PREDICTED BY RF-SCORE:    0.00 PKD
ROOT
HETATM    1  C   UNL     1      -9.167  12.298  68.311  1.00  0.00    -0.189 C  
HETATM    2  C   UNL     1     -10.472  13.075  68.442  1.00  0.00    -0.252 C  
HETATM    3  C   UNL     1     -11.647  12.126  68.651  1.00  0.00    -0.372 C  
ENDROOT
BRANCH   2   4
HETATM    4  O   UNL     1     -10.399  13.937  69.592  1.00  0.00     0.185 OA 
BRANCH   4   5
HETATM    5  C   UNL     1      -9.763  15.124  69.381  1.00  0.00    -0.202 C  
HETATM    6  O   UNL     1      -8.554  15.295  69.458  1.00  0.00    -0.246 OA 
BRANCH   5   7
HETATM    7  C   UNL     1     -10.765  16.211  69.099  1.00  0.00    -0.292 C  
BRANCH   7   8
HETATM    8  C   UNL     1     -10.041  17.482  68.654  1.00  0.00    -0.361 C  
BRANCH   8   9
HETATM    9  C   UNL     1      -9.345  17.346  67.304  1.00  0.00    -0.238 C  
BRANCH   9  10
HETATM   10  C   UNL     1     -10.305  17.386  66.146  1.00  0.00    -0.329 C  
HETATM   11  C   UNL     1     -10.527  16.391  65.272  1.00  0.00    -0.285 C  
BRANCH  11  12
HETATM   12  C   UNL     1      -9.801  15.074  65.237  1.00  0.00    -0.249 C  
BRANCH  12  13
HETATM   13  C   UNL     1     -10.746  13.866  65.275  1.00  0.00    -0.352 C  
HETATM   14  C   UNL     1     -12.243  14.197  65.269  1.00  0.00    -0.434 C  
HETATM   15  O   UNL     1     -12.535  15.300  64.418  1.00  0.00    -0.402 OA 
HETATM   16  C   UNL     1     -12.894  12.948  64.686  1.00  0.00    -0.323 C  
HETATM   17  C   UNL     1     -11.939  12.527  63.573  1.00  0.00    -0.543 C  
HETATM   18  H   UNL     1     -13.463  15.505  64.415  1.00  0.00     0.000 HD 
HETATM   19  O   UNL     1     -12.262  13.230  62.369  1.00  0.00    -0.150 OA 
HETATM   20  C   UNL     1     -10.523  12.935  64.049  1.00  0.00    -0.395 C  
HETATM   21  H   UNL     1     -11.667  12.968  61.676  1.00  0.00     0.000 HD 
BRANCH  20  22
HETATM   22  C   UNL     1      -9.572  11.814  64.431  1.00  0.00    -0.085 C  
HETATM   23  C   UNL     1      -9.785  10.495  64.269  1.00  0.00    -0.391 C  
BRANCH  23  24
HETATM   24  C   UNL     1      -8.873   9.365  64.695  1.00  0.00    -0.200 C  
HETATM   25  H   UNL     1      -7.500   8.243  63.858  1.00  0.00     0.000 HD 
HETATM   26  O   UNL     1      -8.072   8.953  63.591  1.00  0.00    -0.151 OA 
BRANCH  24  27
HETATM   27  C   UNL     1      -7.973   9.814  65.864  1.00  0.00    -0.111 C  
BRANCH  27  28
HETATM   28  O   UNL     1      -7.733   8.733  66.780  1.00  0.00    -0.092 OA 
BRANCH  28  29
HETATM   29  C   UNL     1      -8.658   7.721  66.711  1.00  0.00    -0.132 A  
HETATM   30  C   UNL     1      -9.933   7.782  67.279  1.00  0.00    -0.277 A  
HETATM   31  C   UNL     1     -10.816   6.707  67.147  1.00  0.00    -0.471 A  
HETATM   32  C   UNL     1     -10.430   5.570  66.441  1.00  0.00    -0.294 A  
HETATM   33  C   UNL     1      -9.162   5.495  65.852  1.00  0.00    -0.158 A  
HETATM   34  C   UNL     1      -8.743   4.264  65.088  1.00  0.00    -0.126 C  
HETATM   35  C   UNL     1      -8.284   6.587  65.983  1.00  0.00    -0.127 A  
HETATM   36  F   UNL     1      -9.686   3.278  65.089  1.00  0.00    -0.161 F  
HETATM   37  F   UNL     1      -7.614   3.693  65.594  1.00  0.00    -0.073 F  
HETATM   38  F   UNL     1      -8.480   4.521  63.778  1.00  0.00    -0.098 F  
ENDBRANCH  28  29
ENDBRANCH  27  28
ENDBRANCH  24  27
ENDBRANCH  23  24
ENDBRANCH  20  22
ENDBRANCH  12  13
ENDBRANCH  11  12
ENDBRANCH   9  10
ENDBRANCH   8   9
ENDBRANCH   7   8
ENDBRANCH   5   7
ENDBRANCH   4   5
ENDBRANCH   2   4
TORSDOF 13
ENDMDL
MODEL      350
REMARK 921   NORMALIZED FREE ENERGY PREDICTED BY IDOCK:   -3.65 KCAL/MOL
REMARK 922        TOTAL FREE ENERGY PREDICTED BY IDOCK:   -8.65 KCAL/MOL
REMARK 923 INTER-LIGAND FREE ENERGY PREDICTED BY IDOCK:   -7.82 KCAL/MOL
REMARK 924 INTRA-LIGAND FREE ENERGY PREDICTED BY IDOCK:   -0.83 KCAL/MOL
REMARK 927      BINDING AFFINITY PREDICTED BY RF-SCORE:    0.00 PKD
ROOT
HETATM    1  C   UNL     1      -6.725   9.242  64.005  1.00  0.00    -0.091 C  
HETATM    2  C   UNL     1      -6.213   7.856  64.382  1.00  0.00    -0.053 C  
HETATM    3  C   UNL     1      -6.001   7.751  65.889  1.00  0.00    -0.038 C  
ENDROOT
BRANCH   2   4
HETATM    4  O   UNL     1      -7.193   6.870  64.012  1.00  0.00    -0.058 OA 
BRANCH   4   5
HETATM    5  C   UNL     1      -8.101   6.571  64.984  1.00  0.00    -0.127 C  
HETATM    6  O   UNL     1      -8.800   7.389  65.567  1.00  0.00    -0.092 OA 
BRANCH   5   7
HETATM    7  C   UNL     1      -8.082   5.095  65.280  1.00  0.00    -0.120 C  
BRANCH   7   8
HETATM    8  C   UNL     1      -9.505   4.538  65.237  1.00  0.00    -0.175 C  
BRANCH   8   9
HETATM    9  C   UNL     1     -10.328   4.871  66.478  1.00  0.00    -0.311 C  
BRANCH   9  10
HETATM   10  C   UNL     1      -9.797   4.215  67.723  1.00  0.00    -0.108 C  
HETATM   11  C   UNL     1      -9.398   4.848  68.838  1.00  0.00    -0.180 C  
BRANCH  11  12
HETATM   12  C   UNL     1      -9.334   6.339  69.027  1.00  0.00    -0.127 C  
BRANCH  12  13
HETATM   13  C   UNL     1     -10.685   6.955  69.412  1.00  0.00    -0.275 C  
HETATM   14  C   UNL     1     -11.391   6.306  70.608  1.00  0.00    -0.343 C  
HETATM   15  O   UNL     1     -10.467   5.929  71.624  1.00  0.00    -0.218 OA 
HETATM   16  C   UNL     1     -12.287   7.412  71.152  1.00  0.00    -0.349 C  
HETATM   17  C   UNL     1     -11.426   8.666  71.035  1.00  0.00    -0.278 C  
HETATM   18  H   UNL     1     -10.905   5.527  72.365  1.00  0.00     0.000 HD 
HETATM   19  O   UNL     1     -10.600   8.795  72.197  1.00  0.00    -0.340 OA 
HETATM   20  C   UNL     1     -10.536   8.457  69.785  1.00  0.00    -0.220 C  
HETATM   21  H   UNL     1     -10.064   9.576  72.123  1.00  0.00     0.000 HD 
BRANCH  20  22
HETATM   22  C   UNL     1     -10.840   9.314  68.568  1.00  0.00    -0.119 C  
HETATM   23  C   UNL     1      -9.988  10.146  67.942  1.00  0.00    -0.190 C  
BRANCH  23  24
HETATM   24  C   UNL     1     -10.291  11.047  66.765  1.00  0.00    -0.238 C  
HETATM   25  H   UNL     1     -11.860  11.969  66.038  1.00  0.00     0.000 HD 
HETATM   26  O   UNL     1     -11.670  11.403  66.777  1.00  0.00    -0.474 OA 
BRANCH  24  27
HETATM   27  C   UNL     1      -9.416  12.316  66.822  1.00  0.00    -0.222 C  
BRANCH  27  28
HETATM   28  O   UNL     1      -9.285  12.797  68.169  1.00  0.00    -0.204 OA 
BRANCH  28  29
HETATM   29  C   UNL     1     -10.088  13.871  68.464  1.00  0.00    -0.234 A  
HETATM   30  C   UNL     1     -11.324  13.775  69.108  1.00  0.00    -0.329 A  
HETATM   31  C   UNL     1     -12.068  14.926  69.379  1.00  0.00    -0.297 A  
HETATM   32  C   UNL     1     -11.577  16.177  69.016  1.00  0.00    -0.298 A  
HETATM   33  C   UNL     1     -10.333  16.296  68.383  1.00  0.00    -0.271 A  
HETATM   34  C   UNL     1      -9.800  17.651  67.988  1.00  0.00    -0.310 C  
HETATM   35  C   UNL     1      -9.588  15.132  68.122  1.00  0.00    -0.205 A  
HETATM   36  F   UNL     1     -10.659  18.673  68.269  1.00  0.00    -0.374 F  
HETATM   37  F   UNL     1      -9.542  17.743  66.654  1.00  0.00    -0.265 F  
HETATM   38  F   UNL     1      -8.636  17.964  68.620  1.00  0.00    -0.286 F  
ENDBRANCH  28  29
ENDBRANCH  27  28
ENDBRANCH  24  27
ENDBRANCH  23  24
ENDBRANCH  20  22
ENDBRANCH  12  13
ENDBRANCH  11  12
ENDBRANCH   9  10
ENDBRANCH   8   9
ENDBRANCH   7   8
ENDBRANCH   5   7
ENDBRANCH   4   5
ENDBRANCH   2   4
TORSDOF 13
ENDMDL
MODEL      351
REMARK 921   NORMALIZED FREE ENERGY PREDICTED BY IDOCK:   -3.64 KCAL/MOL
REMARK 922        TOTAL FREE ENERGY PREDICTED BY IDOCK:   -8.62 KCAL/MOL
REMARK 923 INTER-LIGAND FREE ENERGY PREDICTED BY IDOCK:   -7.97 KCAL/MOL
REMARK 924 INTRA-LIGAND FREE ENERGY PREDICTED BY IDOCK:   -0.65 KCAL/MOL
REMARK 927      BINDING AFFINITY PREDICTED BY RF-SCORE:    0.00 PKD
ROOT
HETATM    1  C   UNL     1      -7.839   1.601  67.318  1.00  0.00    -0.060 C  
HETATM    2  C   UNL     1      -9.186   2.245  67.630  1.00  0.00    -0.168 C  
HETATM    3  C   UNL     1      -9.079   3.155  68.850  1.00  0.00    -0.208 C  
ENDROOT
BRANCH   2   4
HETATM    4  O   UNL     1      -9.593   3.059  66.516  1.00  0.00    -0.067 OA 
BRANCH   4   5
HETATM    5  C   UNL     1      -9.451   4.402  66.704  1.00  0.00    -0.179 C  
HETATM    6  O   UNL     1     -10.329   5.151  67.110  1.00  0.00    -0.209 OA 
BRANCH   5   7
HETATM    7  C   UNL     1      -8.074   4.845  66.284  1.00  0.00    -0.107 C  
BRANCH   7   8
HETATM    8  C   UNL     1      -8.124   6.289  65.784  1.00  0.00    -0.126 C  
BRANCH   8   9
HETATM    9  C   UNL     1      -7.611   7.305  66.801  1.00  0.00    -0.100 C  
BRANCH   9  10
HETATM   10  C   UNL     1      -7.028   8.532  66.155  1.00  0.00    -0.076 C  
HETATM   11  C   UNL     1      -7.725   9.562  65.649  1.00  0.00    -0.101 C  
BRANCH  11  12
HETATM   12  C   UNL     1      -9.223   9.651  65.561  1.00  0.00    -0.291 C  
BRANCH  12  13
HETATM   13  C   UNL     1      -9.845  10.471  66.699  1.00  0.00    -0.246 C  
HETATM   14  C   UNL     1     -11.014   9.802  67.433  1.00  0.00    -0.106 C  
HETATM   15  O   UNL     1     -10.801   8.405  67.600  1.00  0.00    -0.483 OA 
HETATM   16  C   UNL     1     -11.011  10.461  68.807  1.00  0.00    -0.287 C  
HETATM   17  C   UNL     1      -9.529  10.582  69.148  1.00  0.00    -0.191 C  
HETATM   18  H   UNL     1     -11.525   7.990  68.055  1.00  0.00     0.000 HD 
HETATM   19  O   UNL     1      -9.073   9.369  69.755  1.00  0.00    -0.163 OA 
HETATM   20  C   UNL     1      -8.797  10.797  67.801  1.00  0.00    -0.130 C  
HETATM   21  H   UNL     1      -8.150   9.444  69.967  1.00  0.00     0.000 HD 
BRANCH  20  22
HETATM   22  C   UNL     1      -8.207  12.172  67.546  1.00  0.00    -0.167 C  
HETATM   23  C   UNL     1      -7.315  12.816  68.321  1.00  0.00    -0.117 C  
BRANCH  23  24
HETATM   24  C   UNL     1      -6.760  14.209  68.111  1.00  0.00    -0.124 C  
HETATM   25  H   UNL     1      -5.146  15.001  67.333  1.00  0.00     0.000 HD 
HETATM   26  O   UNL     1      -5.494  14.127  67.464  1.00  0.00    -0.338 OA 
BRANCH  24  27
HETATM   27  C   UNL     1      -7.735  15.052  67.264  1.00  0.00    -0.202 C  
BRANCH  27  28
HETATM   28  O   UNL     1      -7.030  16.022  66.472  1.00  0.00    -0.171 OA 
BRANCH  28  29
HETATM   29  C   UNL     1      -7.202  17.319  66.886  1.00  0.00    -0.200 A  
HETATM   30  C   UNL     1      -6.202  18.093  67.481  1.00  0.00    -0.179 A  
HETATM   31  C   UNL     1      -6.463  19.412  67.859  1.00  0.00    -0.251 A  
HETATM   32  C   UNL     1      -7.722  19.966  67.636  1.00  0.00    -0.326 A  
HETATM   33  C   UNL     1      -8.733  19.212  67.028  1.00  0.00    -0.313 A  
HETATM   34  C   UNL     1     -10.097  19.810  66.788  1.00  0.00    -0.444 C  
HETATM   35  C   UNL     1      -8.457  17.887  66.643  1.00  0.00    -0.281 A  
HETATM   36  F   UNL     1     -10.219  21.085  67.257  1.00  0.00    -0.477 F  
HETATM   37  F   UNL     1     -11.092  19.101  67.388  1.00  0.00    -0.541 F  
HETATM   38  F   UNL     1     -10.421  19.870  65.467  1.00  0.00    -0.537 F  
ENDBRANCH  28  29
ENDBRANCH  27  28
ENDBRANCH  24  27
ENDBRANCH  23  24
ENDBRANCH  20  22
ENDBRANCH  12  13
ENDBRANCH  11  12
ENDBRANCH   9  10
ENDBRANCH   8   9
ENDBRANCH   7   8
ENDBRANCH   5   7
ENDBRANCH   4   5
ENDBRANCH   2   4
TORSDOF 13
ENDMDL
MODEL      352
REMARK 921   NORMALIZED FREE ENERGY PREDICTED BY IDOCK:   -3.63 KCAL/MOL
REMARK 922        TOTAL FREE ENERGY PREDICTED BY IDOCK:   -8.60 KCAL/MOL
REMARK 923 INTER-LIGAND FREE ENERGY PREDICTED BY IDOCK:   -8.00 KCAL/MOL
REMARK 924 INTRA-LIGAND FREE ENERGY PREDICTED BY IDOCK:   -0.60 KCAL/MOL
REMARK 927      BINDING AFFINITY PREDICTED BY RF-SCORE:    0.00 PKD
ROOT
HETATM    1  C   UNL     1      -9.080   9.696  64.122  1.00  0.00    -0.256 C  
HETATM    2  C   UNL     1      -9.564  11.119  64.378  1.00  0.00    -0.250 C  
HETATM    3  C   UNL     1      -9.319  12.000  63.157  1.00  0.00     0.285 C  
ENDROOT
BRANCH   2   4
HETATM    4  O   UNL     1     -10.982  11.102  64.622  1.00  0.00    -0.281 OA 
BRANCH   4   5
HETATM    5  C   UNL     1     -11.647  12.221  64.219  1.00  0.00    -0.371 C  
HETATM    6  O   UNL     1     -11.626  12.681  63.086  1.00  0.00    -0.442 OA 
BRANCH   5   7
HETATM    7  C   UNL     1     -12.367  12.848  65.384  1.00  0.00    -0.538 C  
BRANCH   7   8
HETATM    8  C   UNL     1     -11.467  12.833  66.620  1.00  0.00    -0.404 C  
BRANCH   8   9
HETATM    9  C   UNL     1     -10.423  13.945  66.627  1.00  0.00    -0.272 C  
BRANCH   9  10
HETATM   10  C   UNL     1     -10.958  15.244  67.166  1.00  0.00    -0.331 C  
HETATM   11  C   UNL     1     -10.702  15.759  68.379  1.00  0.00    -0.281 C  
BRANCH  11  12
HETATM   12  C   UNL     1      -9.892  15.098  69.460  1.00  0.00    -0.191 C  
BRANCH  12  13
HETATM   13  C   UNL     1     -10.753  14.546  70.604  1.00  0.00     0.456 C  
HETATM   14  C   UNL     1     -11.191  15.573  71.655  1.00  0.00    -0.314 C  
HETATM   15  O   UNL     1     -11.516  16.826  71.064  1.00  0.00    -0.523 OA 
HETATM   16  C   UNL     1     -12.460  14.973  72.249  1.00  0.00    -0.429 C  
HETATM   17  C   UNL     1     -13.180  14.379  71.041  1.00  0.00    -0.333 C  
HETATM   18  H   UNL     1     -11.788  17.462  71.716  1.00  0.00     0.000 HD 
HETATM   19  O   UNL     1     -13.978  15.387  70.412  1.00  0.00    -0.603 OA 
HETATM   20  C   UNL     1     -12.068  13.914  70.069  1.00  0.00    -0.411 C  
HETATM   21  H   UNL     1     -14.426  15.017  69.660  1.00  0.00     0.000 HD 
BRANCH  20  22
HETATM   22  C   UNL     1     -11.879  12.417  69.901  1.00  0.00    -0.376 C  
HETATM   23  C   UNL     1     -10.713  11.776  69.696  1.00  0.00     0.157 C  
BRANCH  23  24
HETATM   24  C   UNL     1     -10.514  10.293  69.471  1.00  0.00    -0.244 C  
HETATM   25  H   UNL     1     -11.634   8.685  69.469  1.00  0.00     0.000 HD 
HETATM   26  O   UNL     1     -11.759   9.616  69.610  1.00  0.00    -0.019 OA 
BRANCH  24  27
HETATM   27  C   UNL     1      -9.926  10.038  68.068  1.00  0.00    -0.150 C  
BRANCH  27  28
HETATM   28  O   UNL     1     -10.795   9.205  67.284  1.00  0.00    -0.233 OA 
BRANCH  28  29
HETATM   29  C   UNL     1     -10.340   7.921  67.113  1.00  0.00    -0.328 A  
HETATM   30  C   UNL     1     -11.129   6.779  67.278  1.00  0.00    -0.394 A  
HETATM   31  C   UNL     1     -10.584   5.510  67.069  1.00  0.00    -0.332 A  
HETATM   32  C   UNL     1      -9.251   5.377  66.687  1.00  0.00    -0.132 A  
HETATM   33  C   UNL     1      -8.448   6.508  66.502  1.00  0.00    -0.120 A  
HETATM   34  C   UNL     1      -7.004   6.365  66.089  1.00  0.00    -0.066 C  
HETATM   35  C   UNL     1      -9.009   7.782  66.706  1.00  0.00    -0.163 A  
HETATM   36  F   UNL     1      -6.600   5.067  65.975  1.00  0.00    -0.040 F  
HETATM   37  F   UNL     1      -6.147   6.940  66.977  1.00  0.00    -0.029 F  
HETATM   38  F   UNL     1      -6.741   6.940  64.884  1.00  0.00    -0.042 F  
ENDBRANCH  28  29
ENDBRANCH  27  28
ENDBRANCH  24  27
ENDBRANCH  23  24
ENDBRANCH  20  22
ENDBRANCH  12  13
ENDBRANCH  11  12
ENDBRANCH   9  10
ENDBRANCH   8   9
ENDBRANCH   7   8
ENDBRANCH   5   7
ENDBRANCH   4   5
ENDBRANCH   2   4
TORSDOF 13
ENDMDL
MODEL      353
REMARK 921   NORMALIZED FREE ENERGY PREDICTED BY IDOCK:   -3.59 KCAL/MOL
REMARK 922        TOTAL FREE ENERGY PREDICTED BY IDOCK:   -8.55 KCAL/MOL
REMARK 923 INTER-LIGAND FREE ENERGY PREDICTED BY IDOCK:   -6.34 KCAL/MOL
REMARK 924 INTRA-LIGAND FREE ENERGY PREDICTED BY IDOCK:   -2.20 KCAL/MOL
REMARK 927      BINDING AFFINITY PREDICTED BY RF-SCORE:    0.00 PKD
ROOT
HETATM    1  C   UNL     1     -11.198  11.980  64.649  1.00  0.00    -0.380 C  
HETATM    2  C   UNL     1      -9.986  12.603  65.333  1.00  0.00    -0.214 C  
HETATM    3  C   UNL     1     -10.126  14.120  65.403  1.00  0.00    -0.359 C  
ENDROOT
BRANCH   2   4
HETATM    4  O   UNL     1      -9.897  12.112  66.682  1.00  0.00    -0.203 OA 
BRANCH   4   5
HETATM    5  C   UNL     1      -8.861  11.257  66.915  1.00  0.00    -0.165 C  
HETATM    6  O   UNL     1      -7.785  11.284  66.334  1.00  0.00    -0.148 OA 
BRANCH   5   7
HETATM    7  C   UNL     1      -9.249  10.236  67.951  1.00  0.00    -0.143 C  
BRANCH   7   8
HETATM    8  C   UNL     1      -9.898   9.029  67.271  1.00  0.00    -0.252 C  
BRANCH   8   9
HETATM    9  C   UNL     1     -10.786   8.209  68.203  1.00  0.00    -0.090 C  
BRANCH   9  10
HETATM   10  C   UNL     1     -10.697   6.731  67.941  1.00  0.00    -0.320 C  
HETATM   11  C   UNL     1     -10.878   5.758  68.848  1.00  0.00    -0.305 C  
BRANCH  11  12
HETATM   12  C   UNL     1     -11.128   5.961  70.316  1.00  0.00    -0.368 C  
BRANCH  12  13
HETATM   13  C   UNL     1     -10.278   7.087  70.921  1.00  0.00    -0.210 C  
HETATM   14  C   UNL     1     -11.000   7.992  71.926  1.00  0.00    -0.263 C  
HETATM   15  O   UNL     1     -11.894   7.254  72.753  1.00  0.00    -0.527 OA 
HETATM   16  C   UNL     1      -9.878   8.545  72.796  1.00  0.00    -0.213 C  
HETATM   17  C   UNL     1      -8.945   7.353  72.986  1.00  0.00    -0.147 C  
HETATM   18  H   UNL     1     -12.341   7.816  73.376  1.00  0.00     0.000 HD 
HETATM   19  O   UNL     1      -9.388   6.566  74.097  1.00  0.00    -0.160 OA 
HETATM   20  C   UNL     1      -9.048   6.519  71.685  1.00  0.00    -0.143 C  
HETATM   21  H   UNL     1      -8.807   5.823  74.214  1.00  0.00     0.000 HD 
BRANCH  20  22
HETATM   22  C   UNL     1      -7.839   6.519  70.767  1.00  0.00    -0.106 C  
HETATM   23  C   UNL     1      -7.522   7.462  69.860  1.00  0.00    -0.085 C  
BRANCH  23  24
HETATM   24  C   UNL     1      -6.353   7.448  68.899  1.00  0.00    -0.039 C  
HETATM   25  H   UNL     1      -4.403   7.608  69.019  1.00  0.00     0.000 HD 
HETATM   26  O   UNL     1      -5.137   7.616  69.623  1.00  0.00    -0.018 OA 
BRANCH  24  27
HETATM   27  C   UNL     1      -6.322   6.123  68.111  1.00  0.00    -0.043 C  
BRANCH  27  28
HETATM   28  O   UNL     1      -7.633   5.765  67.646  1.00  0.00    -0.087 OA 
BRANCH  28  29
HETATM   29  C   UNL     1      -7.741   5.674  66.281  1.00  0.00    -0.099 A  
HETATM   30  C   UNL     1      -6.920   6.358  65.380  1.00  0.00    -0.052 A  
HETATM   31  C   UNL     1      -7.092   6.194  64.004  1.00  0.00    -0.053 A  
HETATM   32  C   UNL     1      -8.081   5.339  63.521  1.00  0.00    -0.115 A  
HETATM   33  C   UNL     1      -8.904   4.633  64.407  1.00  0.00    -0.152 A  
HETATM   34  C   UNL     1      -9.976   3.708  63.885  1.00  0.00    -0.186 C  
HETATM   35  C   UNL     1      -8.716   4.799  65.791  1.00  0.00    -0.127 A  
HETATM   36  F   UNL     1     -10.061   3.691  62.523  1.00  0.00    -0.115 F  
HETATM   37  F   UNL     1     -11.219   4.046  64.327  1.00  0.00    -0.319 F  
HETATM   38  F   UNL     1      -9.782   2.414  64.259  1.00  0.00    -0.135 F  
ENDBRANCH  28  29
ENDBRANCH  27  28
ENDBRANCH  24  27
ENDBRANCH  23  24
ENDBRANCH  20  22
ENDBRANCH  12  13
ENDBRANCH  11  12
ENDBRANCH   9  10
ENDBRANCH   8   9
ENDBRANCH   7   8
ENDBRANCH   5   7
ENDBRANCH   4   5
ENDBRANCH   2   4
TORSDOF 13
ENDMDL
MODEL      354
REMARK 921   NORMALIZED FREE ENERGY PREDICTED BY IDOCK:   -3.59 KCAL/MOL
REMARK 922        TOTAL FREE ENERGY PREDICTED BY IDOCK:   -8.55 KCAL/MOL
REMARK 923 INTER-LIGAND FREE ENERGY PREDICTED BY IDOCK:   -7.61 KCAL/MOL
REMARK 924 INTRA-LIGAND FREE ENERGY PREDICTED BY IDOCK:   -0.94 KCAL/MOL
REMARK 927      BINDING AFFINITY PREDICTED BY RF-SCORE:    0.00 PKD
ROOT
HETATM    1  C   UNL     1      -9.990  13.650  65.237  1.00  0.00    -0.229 C  
HETATM    2  C   UNL     1     -10.856  14.826  64.799  1.00  0.00    -0.376 C  
HETATM    3  C   UNL     1     -12.295  14.379  64.562  1.00  0.00    -0.440 C  
ENDROOT
BRANCH   2   4
HETATM    4  O   UNL     1     -10.876  15.817  65.843  1.00  0.00    -0.321 OA 
BRANCH   4   5
HETATM    5  C   UNL     1     -10.013  16.857  65.664  1.00  0.00    -0.099 C  
HETATM    6  O   UNL     1      -8.793  16.771  65.701  1.00  0.00    -0.461 OA 
BRANCH   5   7
HETATM    7  C   UNL     1     -10.776  18.141  65.473  1.00  0.00     0.051 C  
BRANCH   7   8
HETATM    8  C   UNL     1     -10.165  19.242  66.340  1.00  0.00    -0.533 C  
BRANCH   8   9
HETATM    9  C   UNL     1     -10.329  19.001  67.837  1.00  0.00    -0.485 C  
BRANCH   9  10
HETATM   10  C   UNL     1      -9.398  17.942  68.363  1.00  0.00    -0.290 C  
HETATM   11  C   UNL     1      -9.692  17.031  69.304  1.00  0.00    -0.083 C  
BRANCH  11  12
HETATM   12  C   UNL     1     -10.984  16.943  70.068  1.00  0.00     0.142 C  
BRANCH  12  13
HETATM   13  C   UNL     1     -11.158  15.608  70.804  1.00  0.00    -0.382 C  
HETATM   14  C   UNL     1     -11.956  15.675  72.112  1.00  0.00    -0.460 C  
HETATM   15  O   UNL     1     -13.049  16.581  72.017  1.00  0.00     0.033 OA 
HETATM   16  C   UNL     1     -12.508  14.264  72.278  1.00  0.00    -0.278 C  
HETATM   17  C   UNL     1     -12.905  13.860  70.862  1.00  0.00    -0.300 C  
HETATM   18  H   UNL     1     -13.543  16.622  72.828  1.00  0.00     0.000 HD 
HETATM   19  O   UNL     1     -14.231  14.321  70.583  1.00  0.00    -0.070 OA 
HETATM   20  C   UNL     1     -11.900  14.567  69.919  1.00  0.00    -0.373 C  
HETATM   21  H   UNL     1     -14.478  14.071  69.701  1.00  0.00     0.000 HD 
BRANCH  20  22
HETATM   22  C   UNL     1     -10.884  13.690  69.210  1.00  0.00    -0.123 C  
HETATM   23  C   UNL     1     -11.060  12.413  68.823  1.00  0.00    -0.307 C  
BRANCH  23  24
HETATM   24  C   UNL     1     -10.040  11.509  68.166  1.00  0.00    -0.193 C  
HETATM   25  H   UNL     1      -8.771  10.131  68.743  1.00  0.00     0.000 HD 
HETATM   26  O   UNL     1      -9.412  10.698  69.155  1.00  0.00    -0.200 OA 
BRANCH  24  27
HETATM   27  C   UNL     1     -10.717  10.619  67.104  1.00  0.00    -0.272 C  
BRANCH  27  28
HETATM   28  O   UNL     1      -9.859  10.422  65.968  1.00  0.00    -0.208 OA 
BRANCH  28  29
HETATM   29  C   UNL     1      -9.377   9.143  65.842  1.00  0.00    -0.243 A  
HETATM   30  C   UNL     1      -9.842   8.052  66.580  1.00  0.00    -0.289 A  
HETATM   31  C   UNL     1      -9.301   6.780  66.375  1.00  0.00    -0.175 A  
HETATM   32  C   UNL     1      -8.298   6.593  65.427  1.00  0.00    -0.130 A  
HETATM   33  C   UNL     1      -7.828   7.670  64.667  1.00  0.00    -0.126 A  
HETATM   34  C   UNL     1      -6.741   7.469  63.641  1.00  0.00    -0.054 C  
HETATM   35  C   UNL     1      -8.386   8.945  64.875  1.00  0.00    -0.181 A  
HETATM   36  F   UNL     1      -6.274   6.187  63.591  1.00  0.00    -0.026 F  
HETATM   37  F   UNL     1      -5.649   8.249  63.875  1.00  0.00    -0.055 F  
HETATM   38  F   UNL     1      -7.149   7.762  62.376  1.00  0.00    -0.076 F  
ENDBRANCH  28  29
ENDBRANCH  27  28
ENDBRANCH  24  27
ENDBRANCH  23  24
ENDBRANCH  20  22
ENDBRANCH  12  13
ENDBRANCH  11  12
ENDBRANCH   9  10
ENDBRANCH   8   9
ENDBRANCH   7   8
ENDBRANCH   5   7
ENDBRANCH   4   5
ENDBRANCH   2   4
TORSDOF 13
ENDMDL
MODEL      355
REMARK 921   NORMALIZED FREE ENERGY PREDICTED BY IDOCK:   -3.59 KCAL/MOL
REMARK 922        TOTAL FREE ENERGY PREDICTED BY IDOCK:   -8.53 KCAL/MOL
REMARK 923 INTER-LIGAND FREE ENERGY PREDICTED BY IDOCK:   -5.91 KCAL/MOL
REMARK 924 INTRA-LIGAND FREE ENERGY PREDICTED BY IDOCK:   -2.63 KCAL/MOL
REMARK 927      BINDING AFFINITY PREDICTED BY RF-SCORE:    0.00 PKD
ROOT
HETATM    1  C   UNL     1     -12.295  14.188  68.269  1.00  0.00    -0.027 C  
HETATM    2  C   UNL     1     -10.823  14.178  67.870  1.00  0.00    -0.245 C  
HETATM    3  C   UNL     1      -9.938  14.531  69.061  1.00  0.00    -0.162 C  
ENDROOT
BRANCH   2   4
HETATM    4  O   UNL     1     -10.458  12.855  67.435  1.00  0.00    -0.231 OA 
BRANCH   4   5
HETATM    5  C   UNL     1      -9.652  12.814  66.336  1.00  0.00    -0.254 C  
HETATM    6  O   UNL     1      -9.209  13.795  65.753  1.00  0.00     0.051 OA 
BRANCH   5   7
HETATM    7  C   UNL     1      -9.431  11.389  65.904  1.00  0.00    -0.251 C  
BRANCH   7   8
HETATM    8  C   UNL     1      -8.617  10.646  66.963  1.00  0.00    -0.128 C  
BRANCH   8   9
HETATM    9  C   UNL     1      -7.146  11.051  66.998  1.00  0.00    -0.118 C  
BRANCH   9  10
HETATM   10  C   UNL     1      -6.482  10.950  65.652  1.00  0.00     0.023 C  
HETATM   11  C   UNL     1      -6.010   9.827  65.088  1.00  0.00    -0.083 C  
BRANCH  11  12
HETATM   12  C   UNL     1      -5.984   8.466  65.729  1.00  0.00    -0.048 C  
BRANCH  12  13
HETATM   13  C   UNL     1      -7.241   7.637  65.432  1.00  0.00    -0.065 C  
HETATM   14  C   UNL     1      -7.367   7.122  63.994  1.00  0.00    -0.081 C  
HETATM   15  O   UNL     1      -6.108   6.716  63.467  1.00  0.00    -0.036 OA 
HETATM   16  C   UNL     1      -8.259   5.892  64.120  1.00  0.00    -0.075 C  
HETATM   17  C   UNL     1      -7.775   5.224  65.404  1.00  0.00    -0.088 C  
HETATM   18  H   UNL     1      -6.186   6.396  62.576  1.00  0.00     0.000 HD 
HETATM   19  O   UNL     1      -6.670   4.363  65.113  1.00  0.00    -0.046 OA 
HETATM   20  C   UNL     1      -7.310   6.372  66.333  1.00  0.00    -0.081 C  
HETATM   21  H   UNL     1      -6.369   3.948  65.912  1.00  0.00     0.000 HD 
BRANCH  20  22
HETATM   22  C   UNL     1      -8.167   6.665  67.552  1.00  0.00    -0.122 C  
HETATM   23  C   UNL     1      -8.215   5.946  68.688  1.00  0.00    -0.109 C  
BRANCH  23  24
HETATM   24  C   UNL     1      -9.104   6.192  69.888  1.00  0.00    -0.143 C  
HETATM   25  H   UNL     1     -10.450   5.189  70.899  1.00  0.00     0.000 HD 
HETATM   26  O   UNL     1      -9.892   5.034  70.146  1.00  0.00    -0.191 OA 
BRANCH  24  27
HETATM   27  C   UNL     1      -8.250   6.538  71.125  1.00  0.00    -0.121 C  
BRANCH  27  28
HETATM   28  O   UNL     1      -8.488   7.887  71.560  1.00  0.00    -0.105 OA 
BRANCH  28  29
HETATM   29  C   UNL     1      -9.813   8.193  71.744  1.00  0.00    -0.194 A  
HETATM   30  C   UNL     1     -10.661   7.520  72.628  1.00  0.00    -0.338 A  
HETATM   31  C   UNL     1     -11.996   7.910  72.760  1.00  0.00    -0.223 A  
HETATM   32  C   UNL     1     -12.487   8.979  72.015  1.00  0.00    -0.460 A  
HETATM   33  C   UNL     1     -11.651   9.677  71.135  1.00  0.00    -0.456 A  
HETATM   34  C   UNL     1     -12.183  10.834  70.327  1.00  0.00    -0.348 C  
HETATM   35  C   UNL     1     -10.306   9.281  71.016  1.00  0.00    -0.388 A  
HETATM   36  F   UNL     1     -13.514  11.064  70.521  1.00  0.00    -0.108 F  
HETATM   37  F   UNL     1     -12.034  10.648  68.986  1.00  0.00    -0.340 F  
HETATM   38  F   UNL     1     -11.560  12.009  70.616  1.00  0.00    -0.321 F  
ENDBRANCH  28  29
ENDBRANCH  27  28
ENDBRANCH  24  27
ENDBRANCH  23  24
ENDBRANCH  20  22
ENDBRANCH  12  13
ENDBRANCH  11  12
ENDBRANCH   9  10
ENDBRANCH   8   9
ENDBRANCH   7   8
ENDBRANCH   5   7
ENDBRANCH   4   5
ENDBRANCH   2   4
TORSDOF 13
ENDMDL
MODEL      356
REMARK 921   NORMALIZED FREE ENERGY PREDICTED BY IDOCK:   -3.58 KCAL/MOL
REMARK 922        TOTAL FREE ENERGY PREDICTED BY IDOCK:   -8.53 KCAL/MOL
REMARK 923 INTER-LIGAND FREE ENERGY PREDICTED BY IDOCK:   -8.48 KCAL/MOL
REMARK 924 INTRA-LIGAND FREE ENERGY PREDICTED BY IDOCK:   -0.05 KCAL/MOL
REMARK 927      BINDING AFFINITY PREDICTED BY RF-SCORE:    0.00 PKD
ROOT
HETATM    1  C   UNL     1     -12.719  15.108  73.666  1.00  0.00    -0.683 C  
HETATM    2  C   UNL     1     -13.076  15.681  72.299  1.00  0.00    -0.456 C  
HETATM    3  C   UNL     1     -11.820  16.111  71.548  1.00  0.00    -0.528 C  
ENDROOT
BRANCH   2   4
HETATM    4  O   UNL     1     -13.726  14.666  71.513  1.00  0.00    -0.373 OA 
BRANCH   4   5
HETATM    5  C   UNL     1     -12.975  13.552  71.282  1.00  0.00    -0.304 C  
HETATM    6  O   UNL     1     -12.009  13.498  70.533  1.00  0.00    -0.326 OA 
BRANCH   5   7
HETATM    7  C   UNL     1     -13.541  12.376  72.034  1.00  0.00    -0.349 C  
BRANCH   7   8
HETATM    8  C   UNL     1     -12.943  11.077  71.494  1.00  0.00    -0.553 C  
BRANCH   8   9
HETATM    9  C   UNL     1     -13.454   9.828  72.205  1.00  0.00    -0.491 C  
BRANCH   9  10
HETATM   10  C   UNL     1     -13.330   8.587  71.364  1.00  0.00    -0.245 C  
HETATM   11  C   UNL     1     -12.497   7.560  71.593  1.00  0.00    -0.371 C  
BRANCH  11  12
HETATM   12  C   UNL     1     -11.472   7.489  72.692  1.00  0.00    -0.369 C  
BRANCH  12  13
HETATM   13  C   UNL     1     -10.087   7.056  72.196  1.00  0.00    -0.198 C  
HETATM   14  C   UNL     1      -8.960   7.130  73.234  1.00  0.00    -0.143 C  
HETATM   15  O   UNL     1      -9.408   6.734  74.526  1.00  0.00    -0.210 OA 
HETATM   16  C   UNL     1      -7.938   6.113  72.741  1.00  0.00    -0.106 C  
HETATM   17  C   UNL     1      -8.793   4.950  72.246  1.00  0.00    -0.127 C  
HETATM   18  H   UNL     1      -8.709   6.781  75.169  1.00  0.00     0.000 HD 
HETATM   19  O   UNL     1      -9.099   4.078  73.339  1.00  0.00    -0.102 OA 
HETATM   20  C   UNL     1     -10.098   5.581  71.702  1.00  0.00    -0.249 C  
HETATM   21  H   UNL     1      -9.632   3.354  73.031  1.00  0.00     0.000 HD 
BRANCH  20  22
HETATM   22  C   UNL     1     -10.305   5.553  70.198  1.00  0.00    -0.354 C  
HETATM   23  C   UNL     1      -9.481   6.067  69.267  1.00  0.00    -0.152 C  
BRANCH  23  24
HETATM   24  C   UNL     1      -9.700   6.097  67.770  1.00  0.00    -0.116 C  
HETATM   25  H   UNL     1     -10.418   4.885  66.407  1.00  0.00     0.000 HD 
HETATM   26  O   UNL     1     -10.281   4.867  67.347  1.00  0.00    -0.172 OA 
BRANCH  24  27
HETATM   27  C   UNL     1     -10.617   7.276  67.386  1.00  0.00    -0.300 C  
BRANCH  27  28
HETATM   28  O   UNL     1      -9.952   8.535  67.580  1.00  0.00    -0.173 OA 
BRANCH  28  29
HETATM   29  C   UNL     1      -9.114   8.894  66.554  1.00  0.00    -0.166 A  
HETATM   30  C   UNL     1      -8.591  10.177  66.379  1.00  0.00    -0.137 A  
HETATM   31  C   UNL     1      -7.733  10.449  65.311  1.00  0.00    -0.124 A  
HETATM   32  C   UNL     1      -7.387   9.437  64.418  1.00  0.00    -0.109 A  
HETATM   33  C   UNL     1      -7.889   8.141  64.585  1.00  0.00    -0.136 A  
HETATM   34  C   UNL     1      -7.516   7.044  63.618  1.00  0.00    -0.096 C  
HETATM   35  C   UNL     1      -8.745   7.876  65.669  1.00  0.00    -0.145 A  
HETATM   36  F   UNL     1      -6.715   7.471  62.599  1.00  0.00    -0.065 F  
HETATM   37  F   UNL     1      -8.603   6.481  63.021  1.00  0.00    -0.009 F  
HETATM   38  F   UNL     1      -6.842   6.023  64.214  1.00  0.00    -0.041 F  
ENDBRANCH  28  29
ENDBRANCH  27  28
ENDBRANCH  24  27
ENDBRANCH  23  24
ENDBRANCH  20  22
ENDBRANCH  12  13
ENDBRANCH  11  12
ENDBRANCH   9  10
ENDBRANCH   8   9
ENDBRANCH   7   8
ENDBRANCH   5   7
ENDBRANCH   4   5
ENDBRANCH   2   4
TORSDOF 13
ENDMDL
MODEL      357
REMARK 921   NORMALIZED FREE ENERGY PREDICTED BY IDOCK:   -3.58 KCAL/MOL
REMARK 922        TOTAL FREE ENERGY PREDICTED BY IDOCK:   -8.52 KCAL/MOL
REMARK 923 INTER-LIGAND FREE ENERGY PREDICTED BY IDOCK:   -6.73 KCAL/MOL
REMARK 924 INTRA-LIGAND FREE ENERGY PREDICTED BY IDOCK:   -1.79 KCAL/MOL
REMARK 927      BINDING AFFINITY PREDICTED BY RF-SCORE:    0.00 PKD
ROOT
HETATM    1  C   UNL     1      -9.582   2.458  71.204  1.00  0.00    -0.215 C  
HETATM    2  C   UNL     1     -10.026   2.844  72.610  1.00  0.00    -0.152 C  
HETATM    3  C   UNL     1     -10.510   1.619  73.379  1.00  0.00    -0.189 C  
ENDROOT
BRANCH   2   4
HETATM    4  O   UNL     1      -8.907   3.393  73.328  1.00  0.00    -0.081 OA 
BRANCH   4   5
HETATM    5  C   UNL     1      -8.259   4.410  72.691  1.00  0.00    -0.105 C  
HETATM    6  O   UNL     1      -7.453   4.268  71.782  1.00  0.00    -0.064 OA 
BRANCH   5   7
HETATM    7  C   UNL     1      -8.631   5.733  73.307  1.00  0.00    -0.118 C  
BRANCH   7   8
HETATM    8  C   UNL     1      -9.787   6.361  72.528  1.00  0.00    -0.175 C  
BRANCH   8   9
HETATM    9  C   UNL     1      -9.338   7.379  71.485  1.00  0.00    -0.154 C  
BRANCH   9  10
HETATM   10  C   UNL     1     -10.382   7.633  70.431  1.00  0.00    -0.214 C  
HETATM   11  C   UNL     1     -10.817   6.745  69.524  1.00  0.00    -0.315 C  
BRANCH  11  12
HETATM   12  C   UNL     1     -10.289   5.349  69.337  1.00  0.00    -0.339 C  
BRANCH  12  13
HETATM   13  C   UNL     1      -9.106   5.279  68.362  1.00  0.00    -0.125 C  
HETATM   14  C   UNL     1      -8.817   3.892  67.774  1.00  0.00    -0.114 C  
HETATM   15  O   UNL     1     -10.016   3.180  67.488  1.00  0.00    -0.204 OA 
HETATM   16  C   UNL     1      -8.105   4.191  66.460  1.00  0.00    -0.101 C  
HETATM   17  C   UNL     1      -8.858   5.396  65.905  1.00  0.00    -0.148 C  
HETATM   18  H   UNL     1      -9.836   2.321  67.124  1.00  0.00     0.000 HD 
HETATM   19  O   UNL     1      -9.997   4.952  65.160  1.00  0.00    -0.364 OA 
HETATM   20  C   UNL     1      -9.327   6.210  67.136  1.00  0.00    -0.124 C  
HETATM   21  H   UNL     1     -10.466   5.703  64.815  1.00  0.00     0.000 HD 
BRANCH  20  22
HETATM   22  C   UNL     1      -8.644   7.543  67.385  1.00  0.00    -0.118 C  
HETATM   23  C   UNL     1      -7.318   7.760  67.466  1.00  0.00    -0.092 C  
BRANCH  23  24
HETATM   24  C   UNL     1      -6.624   9.071  67.769  1.00  0.00    -0.061 C  
HETATM   25  H   UNL     1      -5.962  10.606  66.747  1.00  0.00     0.000 HD 
HETATM   26  O   UNL     1      -6.398   9.783  66.557  1.00  0.00    -0.067 OA 
BRANCH  24  27
HETATM   27  C   UNL     1      -7.479   9.920  68.731  1.00  0.00    -0.079 C  
BRANCH  27  28
HETATM   28  O   UNL     1      -7.710  11.235  68.198  1.00  0.00    -0.101 OA 
BRANCH  28  29
HETATM   29  C   UNL     1      -9.005  11.464  67.808  1.00  0.00    -0.147 A  
HETATM   30  C   UNL     1     -10.095  10.685  68.203  1.00  0.00    -0.179 A  
HETATM   31  C   UNL     1     -11.384  11.002  67.766  1.00  0.00    -0.365 A  
HETATM   32  C   UNL     1     -11.589  12.103  66.938  1.00  0.00    -0.408 A  
HETATM   33  C   UNL     1     -10.512  12.905  66.542  1.00  0.00    -0.275 A  
HETATM   34  C   UNL     1     -10.733  14.098  65.645  1.00  0.00    -0.313 C  
HETATM   35  C   UNL     1      -9.220  12.583  66.995  1.00  0.00    -0.214 A  
HETATM   36  F   UNL     1     -12.032  14.250  65.257  1.00  0.00    -0.341 F  
HETATM   37  F   UNL     1     -10.011  14.026  64.492  1.00  0.00    -0.409 F  
HETATM   38  F   UNL     1     -10.384  15.273  66.235  1.00  0.00    -0.259 F  
ENDBRANCH  28  29
ENDBRANCH  27  28
ENDBRANCH  24  27
ENDBRANCH  23  24
ENDBRANCH  20  22
ENDBRANCH  12  13
ENDBRANCH  11  12
ENDBRANCH   9  10
ENDBRANCH   8   9
ENDBRANCH   7   8
ENDBRANCH   5   7
ENDBRANCH   4   5
ENDBRANCH   2   4
TORSDOF 13
ENDMDL
MODEL      358
REMARK 921   NORMALIZED FREE ENERGY PREDICTED BY IDOCK:   -3.54 KCAL/MOL
REMARK 922        TOTAL FREE ENERGY PREDICTED BY IDOCK:   -8.46 KCAL/MOL
REMARK 923 INTER-LIGAND FREE ENERGY PREDICTED BY IDOCK:   -6.42 KCAL/MOL
REMARK 924 INTRA-LIGAND FREE ENERGY PREDICTED BY IDOCK:   -2.03 KCAL/MOL
REMARK 927      BINDING AFFINITY PREDICTED BY RF-SCORE:    0.00 PKD
ROOT
HETATM    1  C   UNL     1     -10.074  13.534  66.976  1.00  0.00    -0.244 C  
HETATM    2  C   UNL     1     -10.897  12.271  67.200  1.00  0.00    -0.244 C  
HETATM    3  C   UNL     1     -10.631  11.250  66.098  1.00  0.00    -0.312 C  
ENDROOT
BRANCH   2   4
HETATM    4  O   UNL     1     -10.514  11.670  68.450  1.00  0.00    -0.197 OA 
BRANCH   4   5
HETATM    5  C   UNL     1      -9.296  11.058  68.443  1.00  0.00    -0.179 C  
HETATM    6  O   UNL     1      -8.224  11.630  68.305  1.00  0.00    -0.142 OA 
BRANCH   5   7
HETATM    7  C   UNL     1      -9.460   9.566  68.570  1.00  0.00    -0.146 C  
BRANCH   7   8
HETATM    8  C   UNL     1     -10.315   9.240  69.794  1.00  0.00    -0.232 C  
BRANCH   8   9
HETATM    9  C   UNL     1      -9.555   9.342  71.114  1.00  0.00    -0.305 C  
BRANCH   9  10
HETATM   10  C   UNL     1      -8.188   8.718  71.047  1.00  0.00    -0.194 C  
HETATM   11  C   UNL     1      -7.595   8.014  72.024  1.00  0.00    -0.108 C  
BRANCH  11  12
HETATM   12  C   UNL     1      -8.153   7.780  73.401  1.00  0.00    -0.208 C  
BRANCH  12  13
HETATM   13  C   UNL     1      -8.840   6.415  73.547  1.00  0.00    -0.131 C  
HETATM   14  C   UNL     1     -10.196   6.432  74.264  1.00  0.00    -0.344 C  
HETATM   15  O   UNL     1     -10.963   7.580  73.914  1.00  0.00    -0.528 OA 
HETATM   16  C   UNL     1     -10.907   5.193  73.735  1.00  0.00    -0.345 C  
HETATM   17  C   UNL     1     -10.537   5.166  72.255  1.00  0.00    -0.218 C  
HETATM   18  H   UNL     1     -11.803   7.590  74.358  1.00  0.00     0.000 HD 
HETATM   19  O   UNL     1     -11.453   5.979  71.514  1.00  0.00    -0.281 OA 
HETATM   20  C   UNL     1      -9.113   5.767  72.161  1.00  0.00    -0.147 C  
HETATM   21  H   UNL     1     -11.222   5.963  70.593  1.00  0.00     0.000 HD 
BRANCH  20  22
HETATM   22  C   UNL     1      -7.982   4.815  71.816  1.00  0.00    -0.100 C  
HETATM   23  C   UNL     1      -7.993   3.876  70.852  1.00  0.00    -0.058 C  
BRANCH  23  24
HETATM   24  C   UNL     1      -6.896   2.882  70.533  1.00  0.00    -0.033 C  
HETATM   25  H   UNL     1      -6.786   1.014  69.950  1.00  0.00     0.000 HD 
HETATM   26  O   UNL     1      -7.474   1.638  70.150  1.00  0.00    -0.036 OA 
BRANCH  24  27
HETATM   27  C   UNL     1      -5.999   3.420  69.400  1.00  0.00    -0.023 C  
BRANCH  27  28
HETATM   28  O   UNL     1      -6.661   3.333  68.127  1.00  0.00    -0.036 OA 
BRANCH  28  29
HETATM   29  C   UNL     1      -7.069   4.542  67.621  1.00  0.00    -0.065 A  
HETATM   30  C   UNL     1      -6.199   5.549  67.195  1.00  0.00    -0.031 A  
HETATM   31  C   UNL     1      -6.705   6.746  66.680  1.00  0.00    -0.053 A  
HETATM   32  C   UNL     1      -8.081   6.936  66.580  1.00  0.00    -0.110 A  
HETATM   33  C   UNL     1      -8.969   5.933  66.987  1.00  0.00    -0.116 A  
HETATM   34  C   UNL     1     -10.460   6.139  66.880  1.00  0.00    -0.276 C  
HETATM   35  C   UNL     1      -8.449   4.729  67.497  1.00  0.00    -0.104 A  
HETATM   36  F   UNL     1     -10.803   7.373  66.410  1.00  0.00    -0.242 F  
HETATM   37  F   UNL     1     -11.092   6.014  68.080  1.00  0.00    -0.338 F  
HETATM   38  F   UNL     1     -11.056   5.246  66.045  1.00  0.00    -0.301 F  
ENDBRANCH  28  29
ENDBRANCH  27  28
ENDBRANCH  24  27
ENDBRANCH  23  24
ENDBRANCH  20  22
ENDBRANCH  12  13
ENDBRANCH  11  12
ENDBRANCH   9  10
ENDBRANCH   8   9
ENDBRANCH   7   8
ENDBRANCH   5   7
ENDBRANCH   4   5
ENDBRANCH   2   4
TORSDOF 13
ENDMDL
MODEL      359
REMARK 921   NORMALIZED FREE ENERGY PREDICTED BY IDOCK:   -3.53 KCAL/MOL
REMARK 922        TOTAL FREE ENERGY PREDICTED BY IDOCK:   -8.43 KCAL/MOL
REMARK 923 INTER-LIGAND FREE ENERGY PREDICTED BY IDOCK:   -6.39 KCAL/MOL
REMARK 924 INTRA-LIGAND FREE ENERGY PREDICTED BY IDOCK:   -2.04 KCAL/MOL
REMARK 927      BINDING AFFINITY PREDICTED BY RF-SCORE:    0.00 PKD
ROOT
HETATM    1  C   UNL     1      -8.553   3.265  70.077  1.00  0.00    -0.111 C  
HETATM    2  C   UNL     1      -8.620   4.788  70.054  1.00  0.00    -0.082 C  
HETATM    3  C   UNL     1      -9.799   5.264  69.211  1.00  0.00    -0.256 C  
ENDROOT
BRANCH   2   4
HETATM    4  O   UNL     1      -8.821   5.276  71.393  1.00  0.00    -0.131 OA 
BRANCH   4   5
HETATM    5  C   UNL     1      -7.744   5.906  71.942  1.00  0.00    -0.102 C  
HETATM    6  O   UNL     1      -7.614   6.169  73.130  1.00  0.00    -0.096 OA 
BRANCH   5   7
HETATM    7  C   UNL     1      -6.760   6.288  70.868  1.00  0.00    -0.058 C  
BRANCH   7   8
HETATM    8  C   UNL     1      -6.703   7.810  70.734  1.00  0.00    -0.038 C  
BRANCH   8   9
HETATM    9  C   UNL     1      -7.823   8.388  69.874  1.00  0.00    -0.101 C  
BRANCH   9  10
HETATM   10  C   UNL     1      -8.458   9.607  70.487  1.00  0.00    -0.128 C  
HETATM   11  C   UNL     1      -9.592   9.627  71.204  1.00  0.00     0.123 C  
BRANCH  11  12
HETATM   12  C   UNL     1     -10.486   8.447  71.467  1.00  0.00    -0.305 C  
BRANCH  12  13
HETATM   13  C   UNL     1     -11.903   8.628  70.906  1.00  0.00    -0.257 C  
HETATM   14  C   UNL     1     -12.654   7.332  70.579  1.00  0.00     0.120 C  
HETATM   15  O   UNL     1     -12.397   6.316  71.543  1.00  0.00    -0.197 OA 
HETATM   16  C   UNL     1     -14.124   7.726  70.670  1.00  0.00     0.667 C  
HETATM   17  C   UNL     1     -14.176   8.657  71.878  1.00  0.00    -0.427 C  
HETATM   18  H   UNL     1     -12.863   5.513  71.340  1.00  0.00     0.000 HD 
HETATM   19  O   UNL     1     -14.332   7.887  73.074  1.00  0.00    -0.351 OA 
HETATM   20  C   UNL     1     -12.814   9.394  71.907  1.00  0.00    -0.497 C  
HETATM   21  H   UNL     1     -14.364   8.468  73.826  1.00  0.00     0.000 HD 
BRANCH  20  22
HETATM   22  C   UNL     1     -12.819  10.871  71.558  1.00  0.00    -0.560 C  
HETATM   23  C   UNL     1     -13.402  11.858  72.263  1.00  0.00    -0.212 C  
BRANCH  23  24
HETATM   24  C   UNL     1     -13.465  13.326  71.900  1.00  0.00    -0.438 C  
HETATM   25  H   UNL     1     -13.095  15.034  72.787  1.00  0.00     0.000 HD 
HETATM   26  O   UNL     1     -13.056  14.113  73.015  1.00  0.00    -0.522 OA 
BRANCH  24  27
HETATM   27  C   UNL     1     -12.560  13.616  70.686  1.00  0.00    -0.296 C  
BRANCH  27  28
HETATM   28  O   UNL     1     -12.187  15.003  70.635  1.00  0.00    -0.280 OA 
BRANCH  28  29
HETATM   29  C   UNL     1     -11.000  15.244  69.991  1.00  0.00    -0.288 A  
HETATM   30  C   UNL     1      -9.997  14.288  69.807  1.00  0.00     0.532 A  
HETATM   31  C   UNL     1      -8.823  14.620  69.126  1.00  0.00    -0.024 A  
HETATM   32  C   UNL     1      -8.650  15.905  68.620  1.00  0.00    -0.198 A  
HETATM   33  C   UNL     1      -9.648  16.874  68.780  1.00  0.00    -0.268 A  
HETATM   34  C   UNL     1      -9.460  18.267  68.233  1.00  0.00    -0.308 C  
HETATM   35  C   UNL     1     -10.830  16.527  69.460  1.00  0.00    -0.315 A  
HETATM   36  F   UNL     1      -8.245  18.457  67.641  1.00  0.00    -0.243 F  
HETATM   37  F   UNL     1      -9.553  19.225  69.197  1.00  0.00    -0.414 F  
HETATM   38  F   UNL     1     -10.385  18.591  67.289  1.00  0.00    -0.333 F  
ENDBRANCH  28  29
ENDBRANCH  27  28
ENDBRANCH  24  27
ENDBRANCH  23  24
ENDBRANCH  20  22
ENDBRANCH  12  13
ENDBRANCH  11  12
ENDBRANCH   9  10
ENDBRANCH   8   9
ENDBRANCH   7   8
ENDBRANCH   5   7
ENDBRANCH   4   5
ENDBRANCH   2   4
TORSDOF 13
ENDMDL
MODEL      360
REMARK 921   NORMALIZED FREE ENERGY PREDICTED BY IDOCK:   -3.51 KCAL/MOL
REMARK 922        TOTAL FREE ENERGY PREDICTED BY IDOCK:   -8.40 KCAL/MOL
REMARK 923 INTER-LIGAND FREE ENERGY PREDICTED BY IDOCK:   -6.87 KCAL/MOL
REMARK 924 INTRA-LIGAND FREE ENERGY PREDICTED BY IDOCK:   -1.53 KCAL/MOL
REMARK 927      BINDING AFFINITY PREDICTED BY RF-SCORE:    0.00 PKD
ROOT
HETATM    1  C   UNL     1      -9.618  11.210  65.577  1.00  0.00    -0.263 C  
HETATM    2  C   UNL     1      -8.535  10.250  65.098  1.00  0.00    -0.168 C  
HETATM    3  C   UNL     1      -8.617  10.053  63.587  1.00  0.00    -0.204 C  
ENDROOT
BRANCH   2   4
HETATM    4  O   UNL     1      -7.241  10.807  65.393  1.00  0.00    -0.061 OA 
BRANCH   4   5
HETATM    5  C   UNL     1      -6.675  10.362  66.550  1.00  0.00    -0.099 C  
HETATM    6  O   UNL     1      -6.392  11.066  67.509  1.00  0.00    -0.058 OA 
BRANCH   5   7
HETATM    7  C   UNL     1      -6.391   8.886  66.459  1.00  0.00    -0.062 C  
BRANCH   7   8
HETATM    8  C   UNL     1      -7.580   8.094  67.004  1.00  0.00    -0.096 C  
BRANCH   8   9
HETATM    9  C   UNL     1      -8.233   8.736  68.224  1.00  0.00    -0.118 C  
BRANCH   9  10
HETATM   10  C   UNL     1      -7.586   8.321  69.517  1.00  0.00    -0.095 C  
HETATM   11  C   UNL     1      -7.880   7.220  70.226  1.00  0.00    -0.096 C  
BRANCH  11  12
HETATM   12  C   UNL     1      -8.965   6.230  69.904  1.00  0.00    -0.141 C  
BRANCH  12  13
HETATM   13  C   UNL     1     -10.177   6.341  70.838  1.00  0.00    -0.236 C  
HETATM   14  C   UNL     1     -10.172   5.391  72.041  1.00  0.00    -0.203 C  
HETATM   15  O   UNL     1      -8.866   5.240  72.588  1.00  0.00    -0.123 OA 
HETATM   16  C   UNL     1     -11.050   6.095  73.070  1.00  0.00    -0.250 C  
HETATM   17  C   UNL     1     -10.665   7.565  72.929  1.00  0.00    -0.358 C  
HETATM   18  H   UNL     1      -8.863   4.651  73.334  1.00  0.00     0.000 HD 
HETATM   19  O   UNL     1      -9.524   7.845  73.746  1.00  0.00    -0.309 OA 
HETATM   20  C   UNL     1     -10.300   7.770  71.438  1.00  0.00    -0.226 C  
HETATM   21  H   UNL     1      -9.285   8.760  73.659  1.00  0.00     0.000 HD 
BRANCH  20  22
HETATM   22  C   UNL     1     -11.262   8.591  70.598  1.00  0.00    -0.278 C  
HETATM   23  C   UNL     1     -11.178   9.910  70.345  1.00  0.00    -0.379 C  
BRANCH  23  24
HETATM   24  C   UNL     1     -12.157  10.753  69.557  1.00  0.00    -0.272 C  
HETATM   25  H   UNL     1     -14.101  10.997  69.489  1.00  0.00     0.000 HD 
HETATM   26  O   UNL     1     -13.486  10.469  69.984  1.00  0.00     0.105 OA 
BRANCH  24  27
HETATM   27  C   UNL     1     -11.849  12.252  69.747  1.00  0.00    -0.318 C  
BRANCH  27  28
HETATM   28  O   UNL     1     -10.843  12.697  68.823  1.00  0.00    -0.237 OA 
BRANCH  28  29
HETATM   29  C   UNL     1     -10.761  14.061  68.694  1.00  0.00    -0.259 A  
HETATM   30  C   UNL     1     -11.745  14.952  69.129  1.00  0.00    -0.338 A  
HETATM   31  C   UNL     1     -11.570  16.329  68.968  1.00  0.00    -0.231 A  
HETATM   32  C   UNL     1     -10.408  16.821  68.379  1.00  0.00    -0.319 A  
HETATM   33  C   UNL     1      -9.403  15.945  67.950  1.00  0.00    -0.207 A  
HETATM   34  C   UNL     1      -8.144  16.477  67.311  1.00  0.00    -0.168 C  
HETATM   35  C   UNL     1      -9.585  14.561  68.124  1.00  0.00    -0.212 A  
HETATM   36  F   UNL     1      -8.139  17.835  67.173  1.00  0.00    -0.201 F  
HETATM   37  F   UNL     1      -7.943  15.980  66.059  1.00  0.00    -0.276 F  
HETATM   38  F   UNL     1      -7.024  16.174  68.022  1.00  0.00    -0.114 F  
ENDBRANCH  28  29
ENDBRANCH  27  28
ENDBRANCH  24  27
ENDBRANCH  23  24
ENDBRANCH  20  22
ENDBRANCH  12  13
ENDBRANCH  11  12
ENDBRANCH   9  10
ENDBRANCH   8   9
ENDBRANCH   7   8
ENDBRANCH   5   7
ENDBRANCH   4   5
ENDBRANCH   2   4
TORSDOF 13
ENDMDL
MODEL      361
REMARK 921   NORMALIZED FREE ENERGY PREDICTED BY IDOCK:   -3.51 KCAL/MOL
REMARK 922        TOTAL FREE ENERGY PREDICTED BY IDOCK:   -8.39 KCAL/MOL
REMARK 923 INTER-LIGAND FREE ENERGY PREDICTED BY IDOCK:   -6.29 KCAL/MOL
REMARK 924 INTRA-LIGAND FREE ENERGY PREDICTED BY IDOCK:   -2.10 KCAL/MOL
REMARK 927      BINDING AFFINITY PREDICTED BY RF-SCORE:    0.00 PKD
ROOT
HETATM    1  C   UNL     1     -14.165  16.109  72.513  1.00  0.00     0.139 C  
HETATM    2  C   UNL     1     -12.686  16.166  72.882  1.00  0.00    -0.417 C  
HETATM    3  C   UNL     1     -12.512  16.376  74.382  1.00  0.00    -0.525 C  
ENDROOT
BRANCH   2   4
HETATM    4  O   UNL     1     -12.063  14.915  72.543  1.00  0.00    -0.336 OA 
BRANCH   4   5
HETATM    5  C   UNL     1     -12.762  14.146  71.660  1.00  0.00    -0.349 C  
HETATM    6  O   UNL     1     -12.851  14.360  70.459  1.00  0.00    -0.351 OA 
BRANCH   5   7
HETATM    7  C   UNL     1     -13.461  13.025  72.384  1.00  0.00    -0.615 C  
BRANCH   7   8
HETATM    8  C   UNL     1     -12.849  11.684  71.979  1.00  0.00    -0.250 C  
BRANCH   8   9
HETATM    9  C   UNL     1     -13.235  11.238  70.572  1.00  0.00     0.304 C  
BRANCH   9  10
HETATM   10  C   UNL     1     -12.781   9.838  70.259  1.00  0.00     0.176 C  
HETATM   11  C   UNL     1     -11.606   9.496  69.706  1.00  0.00     0.035 C  
BRANCH  11  12
HETATM   12  C   UNL     1     -10.552  10.453  69.221  1.00  0.00    -0.259 C  
BRANCH  12  13
HETATM   13  C   UNL     1     -10.613  10.699  67.708  1.00  0.00    -0.275 C  
HETATM   14  C   UNL     1     -11.718  11.653  67.238  1.00  0.00    -0.175 C  
HETATM   15  O   UNL     1     -11.897  12.738  68.141  1.00  0.00    -0.332 OA 
HETATM   16  C   UNL     1     -11.192  12.203  65.917  1.00  0.00    -0.384 C  
HETATM   17  C   UNL     1      -9.705  12.417  66.180  1.00  0.00    -0.246 C  
HETATM   18  H   UNL     1     -12.582  13.329  67.850  1.00  0.00     0.000 HD 
HETATM   19  O   UNL     1      -9.500  13.705  66.770  1.00  0.00    -0.254 OA 
HETATM   20  C   UNL     1      -9.285  11.313  67.181  1.00  0.00    -0.169 C  
HETATM   21  H   UNL     1      -8.574  13.838  66.934  1.00  0.00     0.000 HD 
BRANCH  20  22
HETATM   22  C   UNL     1      -8.390  10.205  66.653  1.00  0.00    -0.123 C  
HETATM   23  C   UNL     1      -7.070  10.292  66.408  1.00  0.00    -0.112 C  
BRANCH  23  24
HETATM   24  C   UNL     1      -6.176   9.216  65.830  1.00  0.00    -0.056 C  
HETATM   25  H   UNL     1      -4.582   9.141  64.692  1.00  0.00     0.000 HD 
HETATM   26  O   UNL     1      -5.143   9.817  65.055  1.00  0.00    -0.042 OA 
BRANCH  24  27
HETATM   27  C   UNL     1      -5.564   8.363  66.960  1.00  0.00    -0.038 C  
BRANCH  27  28
HETATM   28  O   UNL     1      -6.480   7.345  67.397  1.00  0.00    -0.055 OA 
BRANCH  28  29
HETATM   29  C   UNL     1      -7.101   7.621  68.589  1.00  0.00    -0.080 A  
HETATM   30  C   UNL     1      -6.668   8.594  69.494  1.00  0.00    -0.040 A  
HETATM   31  C   UNL     1      -7.372   8.815  70.680  1.00  0.00    -0.072 A  
HETATM   32  C   UNL     1      -8.515   8.072  70.963  1.00  0.00    -0.134 A  
HETATM   33  C   UNL     1      -8.974   7.103  70.062  1.00  0.00    -0.142 A  
HETATM   34  C   UNL     1     -10.212   6.297  70.368  1.00  0.00    -0.200 C  
HETATM   35  C   UNL     1      -8.263   6.894  68.867  1.00  0.00    -0.121 A  
HETATM   36  F   UNL     1     -10.760   6.586  71.584  1.00  0.00    -0.236 F  
HETATM   37  F   UNL     1      -9.972   4.956  70.383  1.00  0.00    -0.240 F  
HETATM   38  F   UNL     1     -11.205   6.492  69.459  1.00  0.00    -0.316 F  
ENDBRANCH  28  29
ENDBRANCH  27  28
ENDBRANCH  24  27
ENDBRANCH  23  24
ENDBRANCH  20  22
ENDBRANCH  12  13
ENDBRANCH  11  12
ENDBRANCH   9  10
ENDBRANCH   8   9
ENDBRANCH   7   8
ENDBRANCH   5   7
ENDBRANCH   4   5
ENDBRANCH   2   4
TORSDOF 13
ENDMDL
MODEL      362
REMARK 921   NORMALIZED FREE ENERGY PREDICTED BY IDOCK:   -3.49 KCAL/MOL
REMARK 922        TOTAL FREE ENERGY PREDICTED BY IDOCK:   -8.36 KCAL/MOL
REMARK 923 INTER-LIGAND FREE ENERGY PREDICTED BY IDOCK:   -7.28 KCAL/MOL
REMARK 924 INTRA-LIGAND FREE ENERGY PREDICTED BY IDOCK:   -1.08 KCAL/MOL
REMARK 927      BINDING AFFINITY PREDICTED BY RF-SCORE:    0.00 PKD
ROOT
HETATM    1  C   UNL     1     -10.517   8.845  72.090  1.00  0.00    -0.320 C  
HETATM    2  C   UNL     1      -9.884   7.532  72.537  1.00  0.00    -0.176 C  
HETATM    3  C   UNL     1     -10.889   6.682  73.307  1.00  0.00    -0.290 C  
ENDROOT
BRANCH   2   4
HETATM    4  O   UNL     1      -9.479   6.781  71.378  1.00  0.00    -0.161 OA 
BRANCH   4   5
HETATM    5  C   UNL     1     -10.461   6.023  70.813  1.00  0.00    -0.239 C  
HETATM    6  O   UNL     1     -11.475   6.464  70.290  1.00  0.00    -0.370 OA 
BRANCH   5   7
HETATM    7  C   UNL     1     -10.149   4.559  70.977  1.00  0.00    -0.222 C  
BRANCH   7   8
HETATM    8  C   UNL     1      -8.934   4.189  70.127  1.00  0.00    -0.150 C  
BRANCH   8   9
HETATM    9  C   UNL     1      -9.295   3.506  68.811  1.00  0.00    -0.233 C  
BRANCH   9  10
HETATM   10  C   UNL     1      -8.102   3.288  67.921  1.00  0.00    -0.082 C  
HETATM   11  C   UNL     1      -7.803   3.992  66.818  1.00  0.00    -0.093 C  
BRANCH  11  12
HETATM   12  C   UNL     1      -8.646   5.084  66.218  1.00  0.00    -0.113 C  
BRANCH  12  13
HETATM   13  C   UNL     1      -7.826   6.303  65.776  1.00  0.00    -0.103 C  
HETATM   14  C   UNL     1      -6.789   6.039  64.678  1.00  0.00    -0.047 C  
HETATM   15  O   UNL     1      -7.273   5.119  63.705  1.00  0.00    -0.048 OA 
HETATM   16  C   UNL     1      -6.603   7.397  64.012  1.00  0.00    -0.048 C  
HETATM   17  C   UNL     1      -8.016   7.972  63.963  1.00  0.00    -0.134 C  
HETATM   18  H   UNL     1      -6.630   4.956  63.025  1.00  0.00     0.000 HD 
HETATM   19  O   UNL     1      -8.683   7.511  62.784  1.00  0.00    -0.369 OA 
HETATM   20  C   UNL     1      -8.742   7.429  65.218  1.00  0.00     0.057 C  
HETATM   21  H   UNL     1      -9.563   7.869  62.754  1.00  0.00     0.000 HD 
BRANCH  20  22
HETATM   22  C   UNL     1      -9.051   8.424  66.323  1.00  0.00    -0.241 C  
HETATM   23  C   UNL     1     -10.036   8.325  67.235  1.00  0.00    -0.289 C  
BRANCH  23  24
HETATM   24  C   UNL     1     -10.392   9.334  68.306  1.00  0.00    -0.217 C  
HETATM   25  H   UNL     1      -9.481  10.210  69.803  1.00  0.00     0.000 HD 
HETATM   26  O   UNL     1      -9.257   9.577  69.131  1.00  0.00    -0.151 OA 
BRANCH  24  27
HETATM   27  C   UNL     1     -10.872  10.651  67.663  1.00  0.00    -0.292 C  
BRANCH  27  28
HETATM   28  O   UNL     1      -9.793  11.592  67.538  1.00  0.00    -0.186 OA 
BRANCH  28  29
HETATM   29  C   UNL     1     -10.152  12.896  67.770  1.00  0.00    -0.229 A  
HETATM   30  C   UNL     1      -9.753  13.974  66.977  1.00  0.00    -0.256 A  
HETATM   31  C   UNL     1     -10.179  15.269  67.281  1.00  0.00    -0.248 A  
HETATM   32  C   UNL     1     -11.013  15.491  68.375  1.00  0.00    -0.297 A  
HETATM   33  C   UNL     1     -11.437  14.422  69.173  1.00  0.00    -0.328 A  
HETATM   34  C   UNL     1     -12.339  14.660  70.359  1.00  0.00    -0.339 C  
HETATM   35  C   UNL     1     -11.009  13.120  68.853  1.00  0.00    -0.270 A  
HETATM   36  F   UNL     1     -12.628  15.978  70.563  1.00  0.00    -0.416 F  
HETATM   37  F   UNL     1     -11.796  14.218  71.527  1.00  0.00    -0.386 F  
HETATM   38  F   UNL     1     -13.541  14.033  70.241  1.00  0.00     0.004 F  
ENDBRANCH  28  29
ENDBRANCH  27  28
ENDBRANCH  24  27
ENDBRANCH  23  24
ENDBRANCH  20  22
ENDBRANCH  12  13
ENDBRANCH  11  12
ENDBRANCH   9  10
ENDBRANCH   8   9
ENDBRANCH   7   8
ENDBRANCH   5   7
ENDBRANCH   4   5
ENDBRANCH   2   4
TORSDOF 13
ENDMDL
MODEL      363
REMARK 921   NORMALIZED FREE ENERGY PREDICTED BY IDOCK:   -3.48 KCAL/MOL
REMARK 922        TOTAL FREE ENERGY PREDICTED BY IDOCK:   -8.35 KCAL/MOL
REMARK 923 INTER-LIGAND FREE ENERGY PREDICTED BY IDOCK:   -6.56 KCAL/MOL
REMARK 924 INTRA-LIGAND FREE ENERGY PREDICTED BY IDOCK:   -1.78 KCAL/MOL
REMARK 927      BINDING AFFINITY PREDICTED BY RF-SCORE:    0.00 PKD
ROOT
HETATM    1  C   UNL     1      -9.812   3.988  64.156  1.00  0.00    -0.170 C  
HETATM    2  C   UNL     1      -9.326   4.443  65.528  1.00  0.00    -0.162 C  
HETATM    3  C   UNL     1     -10.364   5.336  66.200  1.00  0.00    -0.238 C  
ENDROOT
BRANCH   2   4
HETATM    4  O   UNL     1      -9.134   3.292  66.370  1.00  0.00    -0.144 OA 
BRANCH   4   5
HETATM    5  C   UNL     1      -7.850   3.091  66.782  1.00  0.00    -0.076 C  
HETATM    6  O   UNL     1      -6.852   3.364  66.129  1.00  0.00    -0.050 OA 
BRANCH   5   7
HETATM    7  C   UNL     1      -7.834   2.428  68.134  1.00  0.00    -0.059 C  
BRANCH   7   8
HETATM    8  C   UNL     1      -7.575   3.471  69.221  1.00  0.00    -0.052 C  
BRANCH   8   9
HETATM    9  C   UNL     1      -8.642   3.492  70.312  1.00  0.00    -0.104 C  
BRANCH   9  10
HETATM   10  C   UNL     1      -9.983   3.950  69.807  1.00  0.00     0.049 C  
HETATM   11  C   UNL     1     -10.477   5.195  69.903  1.00  0.00    -0.296 C  
BRANCH  11  12
HETATM   12  C   UNL     1      -9.817   6.351  70.602  1.00  0.00    -0.206 C  
BRANCH  12  13
HETATM   13  C   UNL     1     -10.348   6.577  72.024  1.00  0.00    -0.221 C  
HETATM   14  C   UNL     1      -9.749   5.669  73.104  1.00  0.00    -0.154 C  
HETATM   15  O   UNL     1      -8.359   5.445  72.893  1.00  0.00    -0.112 OA 
HETATM   16  C   UNL     1      -9.921   6.467  74.392  1.00  0.00    -0.362 C  
HETATM   17  C   UNL     1      -9.607   7.900  73.975  1.00  0.00     0.341 C  
HETATM   18  H   UNL     1      -7.988   4.882  73.563  1.00  0.00     0.000 HD 
HETATM   19  O   UNL     1      -8.195   8.126  74.052  1.00  0.00    -0.234 OA 
HETATM   20  C   UNL     1     -10.075   8.030  72.505  1.00  0.00    -0.346 C  
HETATM   21  H   UNL     1      -7.999   9.019  73.792  1.00  0.00     0.000 HD 
BRANCH  20  22
HETATM   22  C   UNL     1     -11.299   8.889  72.243  1.00  0.00    -0.288 C  
HETATM   23  C   UNL     1     -11.502   9.690  71.180  1.00  0.00    -0.456 C  
BRANCH  23  24
HETATM   24  C   UNL     1     -12.690  10.594  70.932  1.00  0.00    -0.404 C  
HETATM   25  H   UNL     1     -13.772  11.851  71.976  1.00  0.00     0.000 HD 
HETATM   26  O   UNL     1     -13.026  11.283  72.132  1.00  0.00    -0.393 OA 
BRANCH  24  27
HETATM   27  C   UNL     1     -12.369  11.604  69.812  1.00  0.00    -0.133 C  
BRANCH  27  28
HETATM   28  O   UNL     1     -11.029  11.431  69.324  1.00  0.00    -0.233 OA 
BRANCH  28  29
HETATM   29  C   UNL     1     -10.535  12.513  68.639  1.00  0.00    -0.200 A  
HETATM   30  C   UNL     1      -9.793  12.423  67.458  1.00  0.00    -0.194 A  
HETATM   31  C   UNL     1      -9.341  13.581  66.820  1.00  0.00    -0.262 A  
HETATM   32  C   UNL     1      -9.635  14.833  67.355  1.00  0.00    -0.210 A  
HETATM   33  C   UNL     1     -10.390  14.945  68.529  1.00  0.00    -0.237 A  
HETATM   34  C   UNL     1     -10.708  16.301  69.110  1.00  0.00    -0.305 C  
HETATM   35  C   UNL     1     -10.848  13.773  69.159  1.00  0.00    -0.205 A  
HETATM   36  F   UNL     1     -10.156  17.333  68.409  1.00  0.00    -0.263 F  
HETATM   37  F   UNL     1     -10.257  16.441  70.388  1.00  0.00    -0.059 F  
HETATM   38  F   UNL     1     -12.044  16.555  69.152  1.00  0.00    -0.126 F  
ENDBRANCH  28  29
ENDBRANCH  27  28
ENDBRANCH  24  27
ENDBRANCH  23  24
ENDBRANCH  20  22
ENDBRANCH  12  13
ENDBRANCH  11  12
ENDBRANCH   9  10
ENDBRANCH   8   9
ENDBRANCH   7   8
ENDBRANCH   5   7
ENDBRANCH   4   5
ENDBRANCH   2   4
TORSDOF 13
ENDMDL
MODEL      364
REMARK 921   NORMALIZED FREE ENERGY PREDICTED BY IDOCK:   -3.48 KCAL/MOL
REMARK 922        TOTAL FREE ENERGY PREDICTED BY IDOCK:   -8.34 KCAL/MOL
REMARK 923 INTER-LIGAND FREE ENERGY PREDICTED BY IDOCK:   -7.07 KCAL/MOL
REMARK 924 INTRA-LIGAND FREE ENERGY PREDICTED BY IDOCK:   -1.27 KCAL/MOL
REMARK 927      BINDING AFFINITY PREDICTED BY RF-SCORE:    0.00 PKD
ROOT
HETATM    1  C   UNL     1     -10.138   4.858  69.598  1.00  0.00    -0.300 C  
HETATM    2  C   UNL     1      -9.068   5.911  69.865  1.00  0.00    -0.146 C  
HETATM    3  C   UNL     1      -8.023   5.383  70.843  1.00  0.00    -0.104 C  
ENDROOT
BRANCH   2   4
HETATM    4  O   UNL     1      -8.392   6.223  68.634  1.00  0.00    -0.111 OA 
BRANCH   4   5
HETATM    5  C   UNL     1      -9.092   7.025  67.782  1.00  0.00    -0.126 C  
HETATM    6  O   UNL     1      -9.860   7.913  68.125  1.00  0.00    -0.159 OA 
BRANCH   5   7
HETATM    7  C   UNL     1      -8.831   6.622  66.354  1.00  0.00    -0.151 C  
BRANCH   7   8
HETATM    8  C   UNL     1      -7.587   7.340  65.832  1.00  0.00    -0.090 C  
BRANCH   8   9
HETATM    9  C   UNL     1      -7.394   7.207  64.324  1.00  0.00    -0.086 C  
BRANCH   9  10
HETATM   10  C   UNL     1      -7.486   8.527  63.607  1.00  0.00    -0.115 C  
HETATM   11  C   UNL     1      -7.572   9.734  64.187  1.00  0.00    -0.134 C  
BRANCH  11  12
HETATM   12  C   UNL     1      -7.671   9.994  65.665  1.00  0.00    -0.136 C  
BRANCH  12  13
HETATM   13  C   UNL     1      -8.664  11.110  66.015  1.00  0.00    -0.185 C  
HETATM   14  C   UNL     1     -10.111  10.871  65.566  1.00  0.00    -0.267 C  
HETATM   15  O   UNL     1     -10.492   9.508  65.718  1.00  0.00    -0.140 OA 
HETATM   16  C   UNL     1     -10.939  11.717  66.526  1.00  0.00    -0.342 C  
HETATM   17  C   UNL     1     -10.244  11.524  67.870  1.00  0.00    -0.184 C  
HETATM   18  H   UNL     1     -11.389   9.361  65.440  1.00  0.00     0.000 HD 
HETATM   19  O   UNL     1     -10.749  10.348  68.509  1.00  0.00    -0.194 OA 
HETATM   20  C   UNL     1      -8.740  11.339  67.551  1.00  0.00    -0.138 C  
HETATM   21  H   UNL     1     -10.315  10.227  69.346  1.00  0.00     0.000 HD 
BRANCH  20  22
HETATM   22  C   UNL     1      -7.806  12.470  67.940  1.00  0.00    -0.144 C  
HETATM   23  C   UNL     1      -8.135  13.579  68.628  1.00  0.00    -0.055 C  
BRANCH  23  24
HETATM   24  C   UNL     1      -7.230  14.741  68.975  1.00  0.00    -0.135 C  
HETATM   25  H   UNL     1      -5.744  15.698  68.127  1.00  0.00     0.000 HD 
HETATM   26  O   UNL     1      -6.313  14.969  67.909  1.00  0.00    -0.137 OA 
BRANCH  24  27
HETATM   27  C   UNL     1      -8.064  16.011  69.237  1.00  0.00    -0.212 C  
BRANCH  27  28
HETATM   28  O   UNL     1      -7.739  17.049  68.297  1.00  0.00    -0.193 OA 
BRANCH  28  29
HETATM   29  C   UNL     1      -8.755  17.361  67.429  1.00  0.00    -0.223 A  
HETATM   30  C   UNL     1      -9.193  18.661  67.166  1.00  0.00    -0.294 A  
HETATM   31  C   UNL     1     -10.227  18.886  66.254  1.00  0.00    -0.491 A  
HETATM   32  C   UNL     1     -10.823  17.813  65.596  1.00  0.00     0.050 A  
HETATM   33  C   UNL     1     -10.388  16.504  65.833  1.00  0.00    -0.365 A  
HETATM   34  C   UNL     1     -11.033  15.340  65.121  1.00  0.00    -0.416 C  
HETATM   35  C   UNL     1      -9.340  16.289  66.747  1.00  0.00    -0.258 A  
HETATM   36  F   UNL     1     -12.062  15.709  64.304  1.00  0.00    -0.441 F  
HETATM   37  F   UNL     1     -11.558  14.425  65.983  1.00  0.00    -0.335 F  
HETATM   38  F   UNL     1     -10.161  14.657  64.331  1.00  0.00    -0.314 F  
ENDBRANCH  28  29
ENDBRANCH  27  28
ENDBRANCH  24  27
ENDBRANCH  23  24
ENDBRANCH  20  22
ENDBRANCH  12  13
ENDBRANCH  11  12
ENDBRANCH   9  10
ENDBRANCH   8   9
ENDBRANCH   7   8
ENDBRANCH   5   7
ENDBRANCH   4   5
ENDBRANCH   2   4
TORSDOF 13
ENDMDL
MODEL      365
REMARK 921   NORMALIZED FREE ENERGY PREDICTED BY IDOCK:   -3.46 KCAL/MOL
REMARK 922        TOTAL FREE ENERGY PREDICTED BY IDOCK:   -8.31 KCAL/MOL
REMARK 923 INTER-LIGAND FREE ENERGY PREDICTED BY IDOCK:   -7.38 KCAL/MOL
REMARK 924 INTRA-LIGAND FREE ENERGY PREDICTED BY IDOCK:   -0.93 KCAL/MOL
REMARK 927      BINDING AFFINITY PREDICTED BY RF-SCORE:    0.00 PKD
ROOT
HETATM    1  C   UNL     1     -12.320  17.069  73.156  1.00  0.00     0.508 C  
HETATM    2  C   UNL     1     -11.802  15.644  72.999  1.00  0.00    -0.448 C  
HETATM    3  C   UNL     1     -12.805  14.640  73.559  1.00  0.00    -0.425 C  
ENDROOT
BRANCH   2   4
HETATM    4  O   UNL     1     -11.631  15.352  71.601  1.00  0.00    -0.356 OA 
BRANCH   4   5
HETATM    5  C   UNL     1     -12.658  14.663  71.028  1.00  0.00    -0.329 C  
HETATM    6  O   UNL     1     -13.844  14.939  71.152  1.00  0.00    -0.406 OA 
BRANCH   5   7
HETATM    7  C   UNL     1     -12.130  13.476  70.267  1.00  0.00    -0.425 C  
BRANCH   7   8
HETATM    8  C   UNL     1     -11.191  13.946  69.157  1.00  0.00    -0.311 C  
BRANCH   8   9
HETATM    9  C   UNL     1     -11.875  14.818  68.108  1.00  0.00    -0.318 C  
BRANCH   9  10
HETATM   10  C   UNL     1     -11.493  16.269  68.217  1.00  0.00    -0.207 C  
HETATM   11  C   UNL     1     -10.636  16.921  67.414  1.00  0.00    -0.294 C  
BRANCH  11  12
HETATM   12  C   UNL     1      -9.835  16.305  66.301  1.00  0.00    -0.334 C  
BRANCH  12  13
HETATM   13  C   UNL     1      -8.322  16.354  66.550  1.00  0.00    -0.337 C  
HETATM   14  C   UNL     1      -7.638  17.682  66.203  1.00  0.00    -0.280 C  
HETATM   15  O   UNL     1      -8.451  18.799  66.547  1.00  0.00    -0.285 OA 
HETATM   16  C   UNL     1      -6.394  17.697  67.083  1.00  0.00    -0.181 C  
HETATM   17  C   UNL     1      -6.881  17.116  68.408  1.00  0.00    -0.191 C  
HETATM   18  H   UNL     1      -8.027  19.622  66.332  1.00  0.00     0.000 HD 
HETATM   19  O   UNL     1      -7.437  18.159  69.216  1.00  0.00    -0.139 OA 
HETATM   20  C   UNL     1      -7.986  16.094  68.046  1.00  0.00    -0.150 C  
HETATM   21  H   UNL     1      -7.740  17.798  70.040  1.00  0.00     0.000 HD 
BRANCH  20  22
HETATM   22  C   UNL     1      -7.659  14.624  68.243  1.00  0.00    -0.118 C  
HETATM   23  C   UNL     1      -7.658  13.671  67.293  1.00  0.00    -0.073 C  
BRANCH  23  24
HETATM   24  C   UNL     1      -7.390  12.193  67.482  1.00  0.00    -0.135 C  
HETATM   25  H   UNL     1      -6.239  10.833  66.666  1.00  0.00     0.000 HD 
HETATM   26  O   UNL     1      -6.407  11.761  66.547  1.00  0.00    -0.081 OA 
BRANCH  24  27
HETATM   27  C   UNL     1      -6.910  11.916  68.922  1.00  0.00    -0.103 C  
BRANCH  27  28
HETATM   28  O   UNL     1      -7.322  10.613  69.365  1.00  0.00    -0.109 OA 
BRANCH  28  29
HETATM   29  C   UNL     1      -8.531  10.203  68.860  1.00  0.00    -0.139 A  
HETATM   30  C   UNL     1      -9.719  10.928  68.980  1.00  0.00    -0.181 A  
HETATM   31  C   UNL     1     -10.903  10.438  68.422  1.00  0.00    -0.289 A  
HETATM   32  C   UNL     1     -10.902   9.226  67.736  1.00  0.00    -0.192 A  
HETATM   33  C   UNL     1      -9.718   8.492  67.592  1.00  0.00    -0.201 A  
HETATM   34  C   UNL     1      -9.716   7.178  66.849  1.00  0.00    -0.186 C  
HETATM   35  C   UNL     1      -8.530   8.998  68.150  1.00  0.00    -0.129 A  
HETATM   36  F   UNL     1     -10.952   6.804  66.408  1.00  0.00    -0.257 F  
HETATM   37  F   UNL     1      -9.271   6.145  67.616  1.00  0.00    -0.114 F  
HETATM   38  F   UNL     1      -8.921   7.198  65.746  1.00  0.00    -0.167 F  
ENDBRANCH  28  29
ENDBRANCH  27  28
ENDBRANCH  24  27
ENDBRANCH  23  24
ENDBRANCH  20  22
ENDBRANCH  12  13
ENDBRANCH  11  12
ENDBRANCH   9  10
ENDBRANCH   8   9
ENDBRANCH   7   8
ENDBRANCH   5   7
ENDBRANCH   4   5
ENDBRANCH   2   4
TORSDOF 13
ENDMDL
MODEL      366
REMARK 921   NORMALIZED FREE ENERGY PREDICTED BY IDOCK:   -3.43 KCAL/MOL
REMARK 922        TOTAL FREE ENERGY PREDICTED BY IDOCK:   -8.26 KCAL/MOL
REMARK 923 INTER-LIGAND FREE ENERGY PREDICTED BY IDOCK:   -6.71 KCAL/MOL
REMARK 924 INTRA-LIGAND FREE ENERGY PREDICTED BY IDOCK:   -1.55 KCAL/MOL
REMARK 927      BINDING AFFINITY PREDICTED BY RF-SCORE:    0.00 PKD
ROOT
HETATM    1  C   UNL     1     -10.848   6.614  71.872  1.00  0.00    -0.267 C  
HETATM    2  C   UNL     1      -9.834   6.722  73.006  1.00  0.00    -0.171 C  
HETATM    3  C   UNL     1      -9.936   5.518  73.937  1.00  0.00    -0.203 C  
ENDROOT
BRANCH   2   4
HETATM    4  O   UNL     1      -8.505   6.734  72.455  1.00  0.00    -0.119 OA 
BRANCH   4   5
HETATM    5  C   UNL     1      -8.289   7.679  71.497  1.00  0.00    -0.107 C  
HETATM    6  O   UNL     1      -8.137   8.874  71.711  1.00  0.00    -0.313 OA 
BRANCH   5   7
HETATM    7  C   UNL     1      -8.324   7.053  70.128  1.00  0.00    -0.138 C  
BRANCH   7   8
HETATM    8  C   UNL     1      -8.387   8.144  69.059  1.00  0.00    -0.128 C  
BRANCH   8   9
HETATM    9  C   UNL     1      -9.646   8.084  68.199  1.00  0.00    -0.165 C  
BRANCH   9  10
HETATM   10  C   UNL     1     -10.381   6.778  68.334  1.00  0.00    -0.214 C  
HETATM   11  C   UNL     1     -10.345   5.760  67.459  1.00  0.00    -0.274 C  
BRANCH  11  12
HETATM   12  C   UNL     1      -9.623   5.761  66.140  1.00  0.00    -0.126 C  
BRANCH  12  13
HETATM   13  C   UNL     1      -8.218   6.372  66.223  1.00  0.00    -0.118 C  
HETATM   14  C   UNL     1      -7.104   5.411  66.655  1.00  0.00    -0.069 C  
HETATM   15  O   UNL     1      -7.282   4.113  66.097  1.00  0.00    -0.066 OA 
HETATM   16  C   UNL     1      -5.840   6.024  66.065  1.00  0.00    -0.024 C  
HETATM   17  C   UNL     1      -6.284   6.519  64.692  1.00  0.00    -0.038 C  
HETATM   18  H   UNL     1      -6.591   3.518  66.365  1.00  0.00     0.000 HD 
HETATM   19  O   UNL     1      -6.183   5.455  63.741  1.00  0.00    -0.021 OA 
HETATM   20  C   UNL     1      -7.766   6.939  64.848  1.00  0.00    -0.113 C  
HETATM   21  H   UNL     1      -6.460   5.763  62.885  1.00  0.00     0.000 HD 
BRANCH  20  22
HETATM   22  C   UNL     1      -8.073   8.425  64.788  1.00  0.00    -0.155 C  
HETATM   23  C   UNL     1      -8.361   9.138  63.683  1.00  0.00    -0.187 C  
BRANCH  23  24
HETATM   24  C   UNL     1      -8.614  10.628  63.598  1.00  0.00    -0.110 C  
HETATM   25  H   UNL     1      -8.135  12.092  62.387  1.00  0.00     0.000 HD 
HETATM   26  O   UNL     1      -7.977  11.157  62.440  1.00  0.00    -0.153 OA 
BRANCH  24  27
HETATM   27  C   UNL     1     -10.129  10.912  63.545  1.00  0.00    -0.347 C  
BRANCH  27  28
HETATM   28  O   UNL     1     -10.749  10.665  64.818  1.00  0.00    -0.225 OA 
BRANCH  28  29
HETATM   29  C   UNL     1     -11.080  11.801  65.513  1.00  0.00    -0.280 A  
HETATM   30  C   UNL     1     -11.345  13.037  64.918  1.00  0.00    -0.332 A  
HETATM   31  C   UNL     1     -11.688  14.139  65.704  1.00  0.00    -0.357 A  
HETATM   32  C   UNL     1     -11.776  14.009  67.088  1.00  0.00    -0.421 A  
HETATM   33  C   UNL     1     -11.529  12.775  67.703  1.00  0.00    -0.387 A  
HETATM   34  C   UNL     1     -11.623  12.633  69.202  1.00  0.00    -0.320 C  
HETATM   35  C   UNL     1     -11.193  11.670  66.901  1.00  0.00    -0.376 A  
HETATM   36  F   UNL     1     -11.914  13.804  69.840  1.00  0.00    -0.320 F  
HETATM   37  F   UNL     1     -10.462  12.190  69.759  1.00  0.00     0.134 F  
HETATM   38  F   UNL     1     -12.586  11.753  69.589  1.00  0.00    -0.200 F  
ENDBRANCH  28  29
ENDBRANCH  27  28
ENDBRANCH  24  27
ENDBRANCH  23  24
ENDBRANCH  20  22
ENDBRANCH  12  13
ENDBRANCH  11  12
ENDBRANCH   9  10
ENDBRANCH   8   9
ENDBRANCH   7   8
ENDBRANCH   5   7
ENDBRANCH   4   5
ENDBRANCH   2   4
TORSDOF 13
ENDMDL
MODEL      367
REMARK 921   NORMALIZED FREE ENERGY PREDICTED BY IDOCK:   -3.41 KCAL/MOL
REMARK 922        TOTAL FREE ENERGY PREDICTED BY IDOCK:   -8.23 KCAL/MOL
REMARK 923 INTER-LIGAND FREE ENERGY PREDICTED BY IDOCK:   -8.00 KCAL/MOL
REMARK 924 INTRA-LIGAND FREE ENERGY PREDICTED BY IDOCK:   -0.23 KCAL/MOL
REMARK 927      BINDING AFFINITY PREDICTED BY RF-SCORE:    0.00 PKD
ROOT
HETATM    1  C   UNL     1      -7.894   9.594  63.358  1.00  0.00    -0.138 C  
HETATM    2  C   UNL     1      -7.234   8.385  64.012  1.00  0.00    -0.093 C  
HETATM    3  C   UNL     1      -6.672   8.751  65.382  1.00  0.00    -0.068 C  
ENDROOT
BRANCH   2   4
HETATM    4  O   UNL     1      -8.220   7.355  64.209  1.00  0.00    -0.093 OA 
BRANCH   4   5
HETATM    5  C   UNL     1      -8.899   7.428  65.388  1.00  0.00     0.105 C  
HETATM    6  O   UNL     1      -9.436   8.436  65.828  1.00  0.00    -0.146 OA 
BRANCH   5   7
HETATM    7  C   UNL     1      -8.845   6.106  66.106  1.00  0.00    -0.158 C  
BRANCH   7   8
HETATM    8  C   UNL     1     -10.155   5.868  66.857  1.00  0.00    -0.228 C  
BRANCH   8   9
HETATM    9  C   UNL     1     -10.407   6.874  67.976  1.00  0.00    -0.230 C  
BRANCH   9  10
HETATM   10  C   UNL     1      -9.595   6.587  69.210  1.00  0.00    -0.143 C  
HETATM   11  C   UNL     1      -9.385   7.436  70.229  1.00  0.00    -0.162 C  
BRANCH  11  12
HETATM   12  C   UNL     1      -9.857   8.862  70.296  1.00  0.00    -0.211 C  
BRANCH  12  13
HETATM   13  C   UNL     1     -11.378   9.000  70.142  1.00  0.00    -0.139 C  
HETATM   14  C   UNL     1     -12.216   8.334  71.239  1.00  0.00    -0.270 C  
HETATM   15  O   UNL     1     -11.616   8.479  72.522  1.00  0.00    -0.372 OA 
HETATM   16  C   UNL     1     -13.527   9.112  71.225  1.00  0.00    -0.283 C  
HETATM   17  C   UNL     1     -13.087  10.558  71.014  1.00  0.00    -0.330 C  
HETATM   18  H   UNL     1     -12.136   8.066  73.202  1.00  0.00     0.000 HD 
HETATM   19  O   UNL     1     -12.774  11.155  72.276  1.00  0.00    -0.080 OA 
HETATM   20  C   UNL     1     -11.812  10.493  70.138  1.00  0.00    -0.404 C  
HETATM   21  H   UNL     1     -12.500  12.055  72.145  1.00  0.00     0.000 HD 
BRANCH  20  22
HETATM   22  C   UNL     1     -11.932  10.981  68.705  1.00  0.00    -0.295 C  
HETATM   23  C   UNL     1     -10.959  11.549  67.969  1.00  0.00    -0.284 C  
BRANCH  23  24
HETATM   24  C   UNL     1     -11.078  12.092  66.561  1.00  0.00    -0.314 C  
HETATM   25  H   UNL     1     -12.478  12.904  65.456  1.00  0.00     0.000 HD 
HETATM   26  O   UNL     1     -12.403  12.564  66.340  1.00  0.00    -0.537 OA 
BRANCH  24  27
HETATM   27  C   UNL     1     -10.065  13.233  66.340  1.00  0.00    -0.290 C  
BRANCH  27  28
HETATM   28  O   UNL     1      -9.469  13.648  67.580  1.00  0.00    -0.208 OA 
BRANCH  28  29
HETATM   29  C   UNL     1     -10.085  14.724  68.168  1.00  0.00    -0.221 A  
HETATM   30  C   UNL     1      -9.935  16.046  67.740  1.00  0.00    -0.234 A  
HETATM   31  C   UNL     1     -10.612  17.079  68.392  1.00  0.00    -0.375 A  
HETATM   32  C   UNL     1     -11.448  16.796  69.469  1.00  0.00     0.354 A  
HETATM   33  C   UNL     1     -11.624  15.477  69.904  1.00  0.00    -0.348 A  
HETATM   34  C   UNL     1     -12.528  15.168  71.072  1.00  0.00    -0.357 C  
HETATM   35  C   UNL     1     -10.944  14.442  69.235  1.00  0.00    -0.281 A  
HETATM   36  F   UNL     1     -13.078  16.281  71.639  1.00  0.00    -0.407 F  
HETATM   37  F   UNL     1     -11.879  14.524  72.081  1.00  0.00    -0.370 F  
HETATM   38  F   UNL     1     -13.578  14.372  70.729  1.00  0.00    -0.385 F  
ENDBRANCH  28  29
ENDBRANCH  27  28
ENDBRANCH  24  27
ENDBRANCH  23  24
ENDBRANCH  20  22
ENDBRANCH  12  13
ENDBRANCH  11  12
ENDBRANCH   9  10
ENDBRANCH   8   9
ENDBRANCH   7   8
ENDBRANCH   5   7
ENDBRANCH   4   5
ENDBRANCH   2   4
TORSDOF 13
ENDMDL
MODEL      368
REMARK 921   NORMALIZED FREE ENERGY PREDICTED BY IDOCK:   -3.37 KCAL/MOL
REMARK 922        TOTAL FREE ENERGY PREDICTED BY IDOCK:   -8.15 KCAL/MOL
REMARK 923 INTER-LIGAND FREE ENERGY PREDICTED BY IDOCK:   -4.60 KCAL/MOL
REMARK 924 INTRA-LIGAND FREE ENERGY PREDICTED BY IDOCK:   -3.55 KCAL/MOL
REMARK 927      BINDING AFFINITY PREDICTED BY RF-SCORE:    0.00 PKD
ROOT
HETATM    1  C   UNL     1      -9.186   5.217  67.429  1.00  0.00    -0.121 C  
HETATM    2  C   UNL     1      -8.292   6.447  67.538  1.00  0.00    -0.117 C  
HETATM    3  C   UNL     1      -8.733   7.524  66.553  1.00  0.00    -0.151 C  
ENDROOT
BRANCH   2   4
HETATM    4  O   UNL     1      -8.403   6.998  68.862  1.00  0.00    -0.124 OA 
BRANCH   4   5
HETATM    5  C   UNL     1      -7.249   6.986  69.588  1.00  0.00    -0.080 C  
HETATM    6  O   UNL     1      -7.189   6.945  70.809  1.00  0.00    -0.067 OA 
BRANCH   5   7
HETATM    7  C   UNL     1      -6.057   7.091  68.675  1.00  0.00    -0.027 C  
BRANCH   7   8
HETATM    8  C   UNL     1      -5.450   8.491  68.772  1.00  0.00    -0.036 C  
BRANCH   8   9
HETATM    9  C   UNL     1      -6.171   9.528  67.916  1.00  0.00    -0.053 C  
BRANCH   9  10
HETATM   10  C   UNL     1      -6.238  10.880  68.572  1.00  0.00    -0.046 C  
HETATM   11  C   UNL     1      -7.208  11.308  69.396  1.00  0.00    -0.063 C  
BRANCH  11  12
HETATM   12  C   UNL     1      -8.452  10.546  69.758  1.00  0.00     0.103 C  
BRANCH  12  13
HETATM   13  C   UNL     1      -9.667  10.937  68.907  1.00  0.00    -0.198 C  
HETATM   14  C   UNL     1     -10.468   9.767  68.322  1.00  0.00    -0.216 C  
HETATM   15  O   UNL     1     -10.563   8.683  69.240  1.00  0.00    -0.225 OA 
HETATM   16  C   UNL     1     -11.861  10.345  68.107  1.00  0.00     0.368 C  
HETATM   17  C   UNL     1     -12.085  11.219  69.337  1.00  0.00    -0.315 C  
HETATM   18  H   UNL     1     -11.060   7.958  68.878  1.00  0.00     0.000 HD 
HETATM   19  O   UNL     1     -12.606  10.423  70.406  1.00  0.00    -0.405 OA 
HETATM   20  C   UNL     1     -10.691  11.769  69.729  1.00  0.00     0.307 C  
HETATM   21  H   UNL     1     -12.745  10.968  71.173  1.00  0.00     0.000 HD 
BRANCH  20  22
HETATM   22  C   UNL     1     -10.442  13.249  69.499  1.00  0.00     0.428 C  
HETATM   23  C   UNL     1     -11.318  14.139  68.999  1.00  0.00    -0.310 C  
BRANCH  23  24
HETATM   24  C   UNL     1     -11.067  15.604  68.711  1.00  0.00    -0.307 C  
HETATM   25  H   UNL     1      -9.672  16.921  69.112  1.00  0.00     0.000 HD 
HETATM   26  O   UNL     1      -9.830  16.001  69.293  1.00  0.00    -0.229 OA 
BRANCH  24  27
HETATM   27  C   UNL     1     -11.042  15.854  67.189  1.00  0.00    -0.148 C  
BRANCH  27  28
HETATM   28  O   UNL     1      -9.793  15.434  66.615  1.00  0.00    -0.239 OA 
BRANCH  28  29
HETATM   29  C   UNL     1      -9.831  14.192  66.032  1.00  0.00    -0.309 A  
HETATM   30  C   UNL     1      -8.908  13.175  66.287  1.00  0.00     0.195 A  
HETATM   31  C   UNL     1      -9.032  11.935  65.657  1.00  0.00     0.107 A  
HETATM   32  C   UNL     1     -10.085  11.703  64.774  1.00  0.00    -0.304 A  
HETATM   33  C   UNL     1     -11.029  12.704  64.516  1.00  0.00    -0.365 A  
HETATM   34  C   UNL     1     -12.169  12.454  63.559  1.00  0.00    -0.563 C  
HETATM   35  C   UNL     1     -10.899  13.947  65.163  1.00  0.00    -0.364 A  
HETATM   36  F   UNL     1     -12.129  11.219  62.981  1.00  0.00    -0.331 F  
HETATM   37  F   UNL     1     -12.190  13.343  62.527  1.00  0.00    -0.149 F  
HETATM   38  F   UNL     1     -13.388  12.543  64.157  1.00  0.00    -0.251 F  
ENDBRANCH  28  29
ENDBRANCH  27  28
ENDBRANCH  24  27
ENDBRANCH  23  24
ENDBRANCH  20  22
ENDBRANCH  12  13
ENDBRANCH  11  12
ENDBRANCH   9  10
ENDBRANCH   8   9
ENDBRANCH   7   8
ENDBRANCH   5   7
ENDBRANCH   4   5
ENDBRANCH   2   4
TORSDOF 13
ENDMDL
MODEL      369
REMARK 921   NORMALIZED FREE ENERGY PREDICTED BY IDOCK:   -3.34 KCAL/MOL
REMARK 922        TOTAL FREE ENERGY PREDICTED BY IDOCK:   -8.10 KCAL/MOL
REMARK 923 INTER-LIGAND FREE ENERGY PREDICTED BY IDOCK:   -6.32 KCAL/MOL
REMARK 924 INTRA-LIGAND FREE ENERGY PREDICTED BY IDOCK:   -1.78 KCAL/MOL
REMARK 927      BINDING AFFINITY PREDICTED BY RF-SCORE:    0.00 PKD
ROOT
HETATM    1  C   UNL     1     -13.390  12.893  72.428  1.00  0.00    -0.526 C  
HETATM    2  C   UNL     1     -12.518  13.078  71.191  1.00  0.00    -0.271 C  
HETATM    3  C   UNL     1     -12.387  11.767  70.422  1.00  0.00    -0.362 C  
ENDROOT
BRANCH   2   4
HETATM    4  O   UNL     1     -13.136  14.036  70.313  1.00  0.00    -0.123 OA 
BRANCH   4   5
HETATM    5  C   UNL     1     -12.270  14.735  69.526  1.00  0.00    -0.243 C  
HETATM    6  O   UNL     1     -11.968  15.910  69.687  1.00  0.00    -0.335 OA 
BRANCH   5   7
HETATM    7  C   UNL     1     -11.782  13.873  68.392  1.00  0.00    -0.391 C  
BRANCH   7   8
HETATM    8  C   UNL     1     -10.270  13.677  68.503  1.00  0.00    -0.234 C  
BRANCH   8   9
HETATM    9  C   UNL     1      -9.806  12.278  68.110  1.00  0.00    -0.212 C  
BRANCH   9  10
HETATM   10  C   UNL     1     -10.734  11.609  67.132  1.00  0.00    -0.288 C  
HETATM   11  C   UNL     1     -10.445  11.297  65.859  1.00  0.00    -0.314 C  
BRANCH  11  12
HETATM   12  C   UNL     1      -9.164  11.627  65.143  1.00  0.00    -0.001 C  
BRANCH  12  13
HETATM   13  C   UNL     1      -8.157  10.469  65.148  1.00  0.00    -0.112 C  
HETATM   14  C   UNL     1      -7.981   9.742  63.809  1.00  0.00    -0.145 C  
HETATM   15  O   UNL     1      -8.018  10.646  62.710  1.00  0.00    -0.211 OA 
HETATM   16  C   UNL     1      -6.582   9.143  63.897  1.00  0.00    -0.089 C  
HETATM   17  C   UNL     1      -5.763  10.233  64.581  1.00  0.00    -0.132 C  
HETATM   18  H   UNL     1      -7.908  10.196  61.880  1.00  0.00     0.000 HD 
HETATM   19  O   UNL     1      -5.279  11.159  63.602  1.00  0.00    -0.443 OA 
HETATM   20  C   UNL     1      -6.735  10.956  65.545  1.00  0.00     0.102 C  
HETATM   21  H   UNL     1      -4.769  11.838  64.028  1.00  0.00     0.000 HD 
BRANCH  20  22
HETATM   22  C   UNL     1      -6.523  10.740  67.032  1.00  0.00    -0.083 C  
HETATM   23  C   UNL     1      -6.480  11.693  67.982  1.00  0.00    -0.055 C  
BRANCH  23  24
HETATM   24  C   UNL     1      -6.214  11.499  69.459  1.00  0.00    -0.110 C  
HETATM   25  H   UNL     1      -6.610  12.459  71.121  1.00  0.00     0.000 HD 
HETATM   26  O   UNL     1      -6.777  12.581  70.193  1.00  0.00     0.172 OA 
BRANCH  24  27
HETATM   27  C   UNL     1      -6.814  10.162  69.940  1.00  0.00    -0.124 C  
BRANCH  27  28
HETATM   28  O   UNL     1      -8.250  10.194  69.902  1.00  0.00    -0.177 OA 
BRANCH  28  29
HETATM   29  C   UNL     1      -8.852   9.072  70.413  1.00  0.00    -0.200 A  
HETATM   30  C   UNL     1      -8.966   8.793  71.778  1.00  0.00    -0.283 A  
HETATM   31  C   UNL     1      -9.608   7.630  72.209  1.00  0.00    -0.215 A  
HETATM   32  C   UNL     1     -10.146   6.744  71.278  1.00  0.00    -0.203 A  
HETATM   33  C   UNL     1     -10.056   7.012  69.907  1.00  0.00    -0.202 A  
HETATM   34  C   UNL     1     -10.637   6.052  68.898  1.00  0.00    -0.290 C  
HETATM   35  C   UNL     1      -9.415   8.190  69.484  1.00  0.00    -0.156 A  
HETATM   36  F   UNL     1     -11.184   4.938  69.464  1.00  0.00     0.294 F  
HETATM   37  F   UNL     1      -9.707   5.597  68.013  1.00  0.00    -0.114 F  
HETATM   38  F   UNL     1     -11.628   6.610  68.150  1.00  0.00    -0.240 F  
ENDBRANCH  28  29
ENDBRANCH  27  28
ENDBRANCH  24  27
ENDBRANCH  23  24
ENDBRANCH  20  22
ENDBRANCH  12  13
ENDBRANCH  11  12
ENDBRANCH   9  10
ENDBRANCH   8   9
ENDBRANCH   7   8
ENDBRANCH   5   7
ENDBRANCH   4   5
ENDBRANCH   2   4
TORSDOF 13
ENDMDL
MODEL      370
REMARK 921   NORMALIZED FREE ENERGY PREDICTED BY IDOCK:   -3.33 KCAL/MOL
REMARK 922        TOTAL FREE ENERGY PREDICTED BY IDOCK:   -8.08 KCAL/MOL
REMARK 923 INTER-LIGAND FREE ENERGY PREDICTED BY IDOCK:   -7.44 KCAL/MOL
REMARK 924 INTRA-LIGAND FREE ENERGY PREDICTED BY IDOCK:   -0.64 KCAL/MOL
REMARK 927      BINDING AFFINITY PREDICTED BY RF-SCORE:    0.00 PKD
ROOT
HETATM    1  C   UNL     1      -9.173   2.378  69.338  1.00  0.00    -0.190 C  
HETATM    2  C   UNL     1      -8.960   3.743  68.694  1.00  0.00    -0.124 C  
HETATM    3  C   UNL     1      -9.932   4.769  69.268  1.00  0.00    -0.254 C  
ENDROOT
BRANCH   2   4
HETATM    4  O   UNL     1      -7.626   4.201  68.981  1.00  0.00    -0.055 OA 
BRANCH   4   5
HETATM    5  C   UNL     1      -7.558   5.317  69.761  1.00  0.00    -0.069 C  
HETATM    6  O   UNL     1      -7.515   6.465  69.340  1.00  0.00    -0.089 OA 
BRANCH   5   7
HETATM    7  C   UNL     1      -7.482   4.934  71.215  1.00  0.00    -0.077 C  
BRANCH   7   8
HETATM    8  C   UNL     1      -7.961   6.097  72.084  1.00  0.00    -0.109 C  
BRANCH   8   9
HETATM    9  C   UNL     1      -9.453   6.388  71.944  1.00  0.00    -0.157 C  
BRANCH   9  10
HETATM   10  C   UNL     1      -9.813   7.791  72.352  1.00  0.00    -0.264 C  
HETATM   11  C   UNL     1      -9.551   8.906  71.653  1.00  0.00    -0.363 C  
BRANCH  11  12
HETATM   12  C   UNL     1      -8.777   8.975  70.365  1.00  0.00    -0.224 C  
BRANCH  12  13
HETATM   13  C   UNL     1      -9.181  10.163  69.483  1.00  0.00    -0.223 C  
HETATM   14  C   UNL     1      -8.561  10.185  68.081  1.00  0.00    -0.118 C  
HETATM   15  O   UNL     1      -8.479   8.880  67.520  1.00  0.00    -0.116 OA 
HETATM   16  C   UNL     1      -9.544  11.008  67.256  1.00  0.00    -0.183 C  
HETATM   17  C   UNL     1     -10.910  10.551  67.759  1.00  0.00    -0.294 C  
HETATM   18  H   UNL     1      -8.094   8.894  66.651  1.00  0.00     0.000 HD 
HETATM   19  O   UNL     1     -11.321   9.383  67.041  1.00  0.00     0.011 OA 
HETATM   20  C   UNL     1     -10.719  10.202  69.255  1.00  0.00    -0.259 C  
HETATM   21  H   UNL     1     -12.172   9.098  67.355  1.00  0.00     0.000 HD 
BRANCH  20  22
HETATM   22  C   UNL     1     -11.357  11.135  70.269  1.00  0.00    -0.237 C  
HETATM   23  C   UNL     1     -12.382  11.978  70.047  1.00  0.00    -0.179 C  
BRANCH  23  24
HETATM   24  C   UNL     1     -12.992  12.954  71.030  1.00  0.00    -0.098 C  
HETATM   25  H   UNL     1     -13.388  12.988  72.949  1.00  0.00     0.000 HD 
HETATM   26  O   UNL     1     -13.005  12.376  72.332  1.00  0.00    -0.227 OA 
BRANCH  24  27
HETATM   27  C   UNL     1     -12.191  14.272  71.044  1.00  0.00    -0.356 C  
BRANCH  27  28
HETATM   28  O   UNL     1     -12.379  15.006  69.823  1.00  0.00    -0.297 OA 
BRANCH  28  29
HETATM   29  C   UNL     1     -11.211  15.382  69.207  1.00  0.00    -0.296 A  
HETATM   30  C   UNL     1     -10.192  14.497  68.847  1.00  0.00    -0.229 A  
HETATM   31  C   UNL     1      -9.041  14.968  68.210  1.00  0.00    -0.182 A  
HETATM   32  C   UNL     1      -8.908  16.324  67.923  1.00  0.00    -0.183 A  
HETATM   33  C   UNL     1      -9.924  17.226  68.262  1.00  0.00    -0.313 A  
HETATM   34  C   UNL     1      -9.781  18.695  67.952  1.00  0.00    -0.318 C  
HETATM   35  C   UNL     1     -11.083  16.740  68.895  1.00  0.00    -0.194 A  
HETATM   36  F   UNL     1      -8.584  19.013  67.378  1.00  0.00    -0.278 F  
HETATM   37  F   UNL     1      -9.874  19.476  69.064  1.00  0.00    -0.440 F  
HETATM   38  F   UNL     1     -10.733  19.148  67.092  1.00  0.00    -0.457 F  
ENDBRANCH  28  29
ENDBRANCH  27  28
ENDBRANCH  24  27
ENDBRANCH  23  24
ENDBRANCH  20  22
ENDBRANCH  12  13
ENDBRANCH  11  12
ENDBRANCH   9  10
ENDBRANCH   8   9
ENDBRANCH   7   8
ENDBRANCH   5   7
ENDBRANCH   4   5
ENDBRANCH   2   4
TORSDOF 13
ENDMDL
MODEL      371
REMARK 921   NORMALIZED FREE ENERGY PREDICTED BY IDOCK:   -3.28 KCAL/MOL
REMARK 922        TOTAL FREE ENERGY PREDICTED BY IDOCK:   -7.99 KCAL/MOL
REMARK 923 INTER-LIGAND FREE ENERGY PREDICTED BY IDOCK:   -7.12 KCAL/MOL
REMARK 924 INTRA-LIGAND FREE ENERGY PREDICTED BY IDOCK:   -0.87 KCAL/MOL
REMARK 927      BINDING AFFINITY PREDICTED BY RF-SCORE:    0.00 PKD
ROOT
HETATM    1  C   UNL     1     -11.124   8.384  72.322  1.00  0.00    -0.438 C  
HETATM    2  C   UNL     1     -10.196   7.176  72.249  1.00  0.00    -0.190 C  
HETATM    3  C   UNL     1     -10.955   5.892  72.568  1.00  0.00    -0.307 C  
ENDROOT
BRANCH   2   4
HETATM    4  O   UNL     1      -9.680   7.054  70.911  1.00  0.00    -0.174 OA 
BRANCH   4   5
HETATM    5  C   UNL     1     -10.487   6.379  70.045  1.00  0.00    -0.215 C  
HETATM    6  O   UNL     1     -11.610   6.731  69.711  1.00  0.00    -0.298 OA 
BRANCH   5   7
HETATM    7  C   UNL     1      -9.823   5.102  69.600  1.00  0.00    -0.286 C  
BRANCH   7   8
HETATM    8  C   UNL     1      -8.736   5.413  68.571  1.00  0.00    -0.094 C  
BRANCH   8   9
HETATM    9  C   UNL     1      -9.139   5.079  67.138  1.00  0.00    -0.115 C  
BRANCH   9  10
HETATM   10  C   UNL     1      -8.103   5.494  66.130  1.00  0.00    -0.107 C  
HETATM   11  C   UNL     1      -8.182   6.554  65.310  1.00  0.00    -0.135 C  
BRANCH  11  12
HETATM   12  C   UNL     1      -9.357   7.484  65.189  1.00  0.00     0.866 C  
BRANCH  12  13
HETATM   13  C   UNL     1      -8.947   8.947  64.969  1.00  0.00    -0.160 C  
HETATM   14  C   UNL     1      -8.481   9.295  63.550  1.00  0.00    -0.197 C  
HETATM   15  O   UNL     1      -9.250   8.617  62.562  1.00  0.00    -0.479 OA 
HETATM   16  C   UNL     1      -8.750  10.791  63.432  1.00  0.00    -0.123 C  
HETATM   17  C   UNL     1     -10.089  10.976  64.140  1.00  0.00    -0.344 C  
HETATM   18  H   UNL     1      -8.961   8.834  61.682  1.00  0.00     0.000 HD 
HETATM   19  O   UNL     1     -11.158  10.735  63.220  1.00  0.00    -0.491 OA 
HETATM   20  C   UNL     1     -10.125   9.916  65.268  1.00  0.00    -0.227 C  
HETATM   21  H   UNL     1     -11.992  10.850  63.661  1.00  0.00     0.000 HD 
BRANCH  20  22
HETATM   22  C   UNL     1     -10.013  10.422  66.696  1.00  0.00    -0.262 C  
HETATM   23  C   UNL     1     -10.474   9.807  67.800  1.00  0.00    -0.297 C  
BRANCH  23  24
HETATM   24  C   UNL     1     -10.421  10.324  69.222  1.00  0.00    -0.228 C  
HETATM   25  H   UNL     1      -9.037  10.919  70.475  1.00  0.00     0.000 HD 
HETATM   26  O   UNL     1      -9.070  10.595  69.583  1.00  0.00    -0.050 OA 
BRANCH  24  27
HETATM   27  C   UNL     1     -11.273  11.602  69.360  1.00  0.00    -0.246 C  
BRANCH  27  28
HETATM   28  O   UNL     1     -10.884  12.592  68.394  1.00  0.00    -0.226 OA 
BRANCH  28  29
HETATM   29  C   UNL     1     -10.838  13.872  68.887  1.00  0.00    -0.255 A  
HETATM   30  C   UNL     1     -11.881  14.481  69.591  1.00  0.00    -0.367 A  
HETATM   31  C   UNL     1     -11.741  15.786  70.068  1.00  0.00    -0.362 A  
HETATM   32  C   UNL     1     -10.556  16.486  69.851  1.00  0.00    -0.215 A  
HETATM   33  C   UNL     1      -9.494  15.889  69.161  1.00  0.00    -0.260 A  
HETATM   34  C   UNL     1      -8.211  16.646  68.924  1.00  0.00    -0.231 C  
HETATM   35  C   UNL     1      -9.642  14.571  68.692  1.00  0.00    -0.219 A  
HETATM   36  F   UNL     1      -8.241  17.924  69.400  1.00  0.00    -0.035 F  
HETATM   37  F   UNL     1      -7.903  16.753  67.601  1.00  0.00    -0.163 F  
HETATM   38  F   UNL     1      -7.136  16.058  69.515  1.00  0.00    -0.192 F  
ENDBRANCH  28  29
ENDBRANCH  27  28
ENDBRANCH  24  27
ENDBRANCH  23  24
ENDBRANCH  20  22
ENDBRANCH  12  13
ENDBRANCH  11  12
ENDBRANCH   9  10
ENDBRANCH   8   9
ENDBRANCH   7   8
ENDBRANCH   5   7
ENDBRANCH   4   5
ENDBRANCH   2   4
TORSDOF 13
ENDMDL
MODEL      372
REMARK 921   NORMALIZED FREE ENERGY PREDICTED BY IDOCK:   -3.27 KCAL/MOL
REMARK 922        TOTAL FREE ENERGY PREDICTED BY IDOCK:   -7.98 KCAL/MOL
REMARK 923 INTER-LIGAND FREE ENERGY PREDICTED BY IDOCK:   -6.02 KCAL/MOL
REMARK 924 INTRA-LIGAND FREE ENERGY PREDICTED BY IDOCK:   -1.96 KCAL/MOL
REMARK 927      BINDING AFFINITY PREDICTED BY RF-SCORE:    0.00 PKD
ROOT
HETATM    1  C   UNL     1      -9.551   2.453  71.197  1.00  0.00    -0.215 C  
HETATM    2  C   UNL     1      -9.901   2.823  72.635  1.00  0.00    -0.140 C  
HETATM    3  C   UNL     1     -10.371   1.596  73.409  1.00  0.00    -0.175 C  
ENDROOT
BRANCH   2   4
HETATM    4  O   UNL     1      -8.726   3.329  73.294  1.00  0.00    -0.080 OA 
BRANCH   4   5
HETATM    5  C   UNL     1      -8.045   4.284  72.601  1.00  0.00    -0.096 C  
HETATM    6  O   UNL     1      -7.272   4.064  71.678  1.00  0.00    -0.050 OA 
BRANCH   5   7
HETATM    7  C   UNL     1      -8.331   5.648  73.170  1.00  0.00    -0.118 C  
BRANCH   7   8
HETATM    8  C   UNL     1      -9.497   6.290  72.418  1.00  0.00    -0.146 C  
BRANCH   8   9
HETATM    9  C   UNL     1      -9.058   7.288  71.350  1.00  0.00    -0.144 C  
BRANCH   9  10
HETATM   10  C   UNL     1     -10.130   7.559  70.330  1.00  0.00    -0.196 C  
HETATM   11  C   UNL     1     -10.591   6.686  69.420  1.00  0.00    -0.279 C  
BRANCH  11  12
HETATM   12  C   UNL     1     -10.069   5.294  69.196  1.00  0.00    -0.289 C  
BRANCH  12  13
HETATM   13  C   UNL     1      -8.895   5.244  68.208  1.00  0.00    -0.108 C  
HETATM   14  C   UNL     1      -8.674   3.894  67.514  1.00  0.00    -0.107 C  
HETATM   15  O   UNL     1      -9.906   3.263  67.185  1.00  0.00    -0.358 OA 
HETATM   16  C   UNL     1      -7.954   4.259  66.221  1.00  0.00    -0.098 C  
HETATM   17  C   UNL     1      -8.653   5.537  65.766  1.00  0.00    -0.145 C  
HETATM   18  H   UNL     1      -9.769   2.426  66.754  1.00  0.00     0.000 HD 
HETATM   19  O   UNL     1      -9.814   5.205  64.999  1.00  0.00    -0.364 OA 
HETATM   20  C   UNL     1      -9.077   6.275  67.059  1.00  0.00    -0.125 C  
HETATM   21  H   UNL     1     -10.249   6.001  64.716  1.00  0.00     0.000 HD 
BRANCH  20  22
HETATM   22  C   UNL     1      -8.331   7.552  67.403  1.00  0.00    -0.112 C  
HETATM   23  C   UNL     1      -6.996   7.713  67.442  1.00  0.00    -0.084 C  
BRANCH  23  24
HETATM   24  C   UNL     1      -6.238   8.962  67.838  1.00  0.00    -0.052 C  
HETATM   25  H   UNL     1      -5.625  10.601  66.955  1.00  0.00     0.000 HD 
HETATM   26  O   UNL     1      -6.101   9.817  66.707  1.00  0.00    -0.061 OA 
BRANCH  24  27
HETATM   27  C   UNL     1      -6.975   9.699  68.973  1.00  0.00    -0.058 C  
BRANCH  27  28
HETATM   28  O   UNL     1      -7.419  10.998  68.547  1.00  0.00    -0.092 OA 
BRANCH  28  29
HETATM   29  C   UNL     1      -8.755  11.064  68.241  1.00  0.00    -0.144 A  
HETATM   30  C   UNL     1      -9.257  11.256  66.951  1.00  0.00    -0.184 A  
HETATM   31  C   UNL     1     -10.636  11.297  66.731  1.00  0.00    -0.305 A  
HETATM   32  C   UNL     1     -11.519  11.138  67.796  1.00  0.00    -0.349 A  
HETATM   33  C   UNL     1     -11.036  10.929  69.094  1.00  0.00    -0.290 A  
HETATM   34  C   UNL     1     -11.991  10.757  70.249  1.00  0.00    -0.351 C  
HETATM   35  C   UNL     1      -9.646  10.881  69.304  1.00  0.00    -0.067 A  
HETATM   36  F   UNL     1     -13.302  10.874  69.889  1.00  0.00    -0.092 F  
HETATM   37  F   UNL     1     -11.796  11.681  71.231  1.00  0.00    -0.246 F  
HETATM   38  F   UNL     1     -11.880   9.541  70.849  1.00  0.00    -0.301 F  
ENDBRANCH  28  29
ENDBRANCH  27  28
ENDBRANCH  24  27
ENDBRANCH  23  24
ENDBRANCH  20  22
ENDBRANCH  12  13
ENDBRANCH  11  12
ENDBRANCH   9  10
ENDBRANCH   8   9
ENDBRANCH   7   8
ENDBRANCH   5   7
ENDBRANCH   4   5
ENDBRANCH   2   4
TORSDOF 13
ENDMDL
MODEL      373
REMARK 921   NORMALIZED FREE ENERGY PREDICTED BY IDOCK:   -3.26 KCAL/MOL
REMARK 922        TOTAL FREE ENERGY PREDICTED BY IDOCK:   -7.96 KCAL/MOL
REMARK 923 INTER-LIGAND FREE ENERGY PREDICTED BY IDOCK:   -6.78 KCAL/MOL
REMARK 924 INTRA-LIGAND FREE ENERGY PREDICTED BY IDOCK:   -1.18 KCAL/MOL
REMARK 927      BINDING AFFINITY PREDICTED BY RF-SCORE:    0.00 PKD
ROOT
HETATM    1  C   UNL     1     -12.061  16.099  72.842  1.00  0.00    -0.643 C  
HETATM    2  C   UNL     1     -12.774  15.066  71.977  1.00  0.00    -0.333 C  
HETATM    3  C   UNL     1     -14.123  14.692  72.583  1.00  0.00    -0.298 C  
ENDROOT
BRANCH   2   4
HETATM    4  O   UNL     1     -13.023  15.627  70.675  1.00  0.00    -0.463 OA 
BRANCH   4   5
HETATM    5  C   UNL     1     -12.038  15.410  69.758  1.00  0.00    -0.347 C  
HETATM    6  O   UNL     1     -11.416  16.287  69.176  1.00  0.00    -0.320 OA 
BRANCH   5   7
HETATM    7  C   UNL     1     -11.864  13.934  69.518  1.00  0.00    -0.383 C  
BRANCH   7   8
HETATM    8  C   UNL     1     -10.381  13.606  69.350  1.00  0.00     0.266 C  
BRANCH   8   9
HETATM    9  C   UNL     1     -10.093  12.662  68.186  1.00  0.00    -0.231 C  
BRANCH   9  10
HETATM   10  C   UNL     1      -8.662  12.725  67.725  1.00  0.00    -0.184 C  
HETATM   11  C   UNL     1      -8.144  13.635  66.886  1.00  0.00     0.113 C  
BRANCH  11  12
HETATM   12  C   UNL     1      -8.912  14.721  66.185  1.00  0.00    -0.061 C  
BRANCH  12  13
HETATM   13  C   UNL     1     -10.400  14.390  66.012  1.00  0.00    -0.319 C  
HETATM   14  C   UNL     1     -11.376  15.487  66.454  1.00  0.00    -0.005 C  
HETATM   15  O   UNL     1     -10.895  16.785  66.125  1.00  0.00    -0.167 OA 
HETATM   16  C   UNL     1     -12.633  15.213  65.636  1.00  0.00     0.597 C  
HETATM   17  C   UNL     1     -12.094  14.821  64.264  1.00  0.00    -0.394 C  
HETATM   18  H   UNL     1     -11.500  17.465  66.399  1.00  0.00     0.000 HD 
HETATM   19  O   UNL     1     -11.869  15.998  63.481  1.00  0.00    -1.076 OA 
HETATM   20  C   UNL     1     -10.746  14.103  64.523  1.00  0.00    -0.323 C  
HETATM   21  H   UNL     1     -11.532  15.754  62.626  1.00  0.00     0.000 HD 
BRANCH  20  22
HETATM   22  C   UNL     1     -10.701  12.607  64.273  1.00  0.00    -0.409 C  
HETATM   23  C   UNL     1      -9.708  11.927  63.669  1.00  0.00    -0.266 C  
BRANCH  23  24
HETATM   24  C   UNL     1      -9.673  10.445  63.362  1.00  0.00    -0.263 C  
HETATM   25  H   UNL     1      -8.392   9.175  62.595  1.00  0.00     0.000 HD 
HETATM   26  O   UNL     1      -8.414  10.105  62.788  1.00  0.00    -0.148 OA 
BRANCH  24  27
HETATM   27  C   UNL     1      -9.908   9.625  64.646  1.00  0.00     0.164 C  
BRANCH  27  28
HETATM   28  O   UNL     1      -8.927   9.936  65.649  1.00  0.00    -0.154 OA 
BRANCH  28  29
HETATM   29  C   UNL     1      -8.316   8.837  66.199  1.00  0.00    -0.123 A  
HETATM   30  C   UNL     1      -7.194   8.207  65.654  1.00  0.00    -0.071 A  
HETATM   31  C   UNL     1      -6.630   7.099  66.291  1.00  0.00    -0.052 A  
HETATM   32  C   UNL     1      -7.179   6.621  67.479  1.00  0.00    -0.090 A  
HETATM   33  C   UNL     1      -8.294   7.248  68.049  1.00  0.00    -0.123 A  
HETATM   34  C   UNL     1      -8.890   6.731  69.334  1.00  0.00    -0.135 C  
HETATM   35  C   UNL     1      -8.849   8.368  67.404  1.00  0.00    -0.140 A  
HETATM   36  F   UNL     1      -8.267   5.614  69.810  1.00  0.00    -0.098 F  
HETATM   37  F   UNL     1     -10.203   6.391  69.203  1.00  0.00    -0.162 F  
HETATM   38  F   UNL     1      -8.836   7.642  70.344  1.00  0.00    -0.138 F  
ENDBRANCH  28  29
ENDBRANCH  27  28
ENDBRANCH  24  27
ENDBRANCH  23  24
ENDBRANCH  20  22
ENDBRANCH  12  13
ENDBRANCH  11  12
ENDBRANCH   9  10
ENDBRANCH   8   9
ENDBRANCH   7   8
ENDBRANCH   5   7
ENDBRANCH   4   5
ENDBRANCH   2   4
TORSDOF 13
ENDMDL
MODEL      374
REMARK 921   NORMALIZED FREE ENERGY PREDICTED BY IDOCK:   -3.26 KCAL/MOL
REMARK 922        TOTAL FREE ENERGY PREDICTED BY IDOCK:   -7.95 KCAL/MOL
REMARK 923 INTER-LIGAND FREE ENERGY PREDICTED BY IDOCK:   -7.54 KCAL/MOL
REMARK 924 INTRA-LIGAND FREE ENERGY PREDICTED BY IDOCK:   -0.41 KCAL/MOL
REMARK 927      BINDING AFFINITY PREDICTED BY RF-SCORE:    0.00 PKD
ROOT
HETATM    1  C   UNL     1      -9.033   4.302  62.919  1.00  0.00    -0.121 C  
HETATM    2  C   UNL     1      -9.583   3.963  64.300  1.00  0.00    -0.168 C  
HETATM    3  C   UNL     1      -9.316   2.501  64.645  1.00  0.00    -0.136 C  
ENDROOT
BRANCH   2   4
HETATM    4  O   UNL     1      -8.916   4.770  65.288  1.00  0.00    -0.143 OA 
BRANCH   4   5
HETATM    5  C   UNL     1      -8.411   5.947  64.821  1.00  0.00    -0.054 C  
HETATM    6  O   UNL     1      -8.409   6.294  63.648  1.00  0.00    -0.031 OA 
BRANCH   5   7
HETATM    7  C   UNL     1      -7.801   6.737  65.949  1.00  0.00    -0.103 C  
BRANCH   7   8
HETATM    8  C   UNL     1      -8.897   7.474  66.718  1.00  0.00    -0.153 C  
BRANCH   8   9
HETATM    9  C   UNL     1      -8.630   7.570  68.218  1.00  0.00    -0.124 C  
BRANCH   9  10
HETATM   10  C   UNL     1      -7.923   6.359  68.763  1.00  0.00    -0.110 C  
HETATM   11  C   UNL     1      -8.512   5.242  69.218  1.00  0.00    -0.101 C  
BRANCH  11  12
HETATM   12  C   UNL     1      -9.994   5.019  69.343  1.00  0.00    -0.290 C  
BRANCH  12  13
HETATM   13  C   UNL     1     -10.513   5.208  70.775  1.00  0.00    -0.263 C  
HETATM   14  C   UNL     1     -10.407   3.977  71.683  1.00  0.00     0.052 C  
HETATM   15  O   UNL     1      -9.201   3.256  71.454  1.00  0.00    -0.100 OA 
HETATM   16  C   UNL     1     -10.363   4.561  73.090  1.00  0.00    -0.239 C  
HETATM   17  C   UNL     1      -9.482   5.798  72.942  1.00  0.00    -0.154 C  
HETATM   18  H   UNL     1      -9.135   2.493  72.018  1.00  0.00     0.000 HD 
HETATM   19  O   UNL     1      -8.106   5.429  73.078  1.00  0.00    -0.104 OA 
HETATM   20  C   UNL     1      -9.738   6.336  71.513  1.00  0.00    -0.179 C  
HETATM   21  H   UNL     1      -7.557   6.199  72.986  1.00  0.00     0.000 HD 
BRANCH  20  22
HETATM   22  C   UNL     1     -10.505   7.640  71.392  1.00  0.00    -0.230 C  
HETATM   23  C   UNL     1     -11.843   7.786  71.416  1.00  0.00    -0.324 C  
BRANCH  23  24
HETATM   24  C   UNL     1     -12.625   9.070  71.241  1.00  0.00    -0.280 C  
HETATM   25  H   UNL     1     -13.659  10.281  72.383  1.00  0.00     0.000 HD 
HETATM   26  O   UNL     1     -13.168   9.475  72.494  1.00  0.00    -0.408 OA 
BRANCH  24  27
HETATM   27  C   UNL     1     -11.714  10.179  70.675  1.00  0.00    -0.338 C  
BRANCH  27  28
HETATM   28  O   UNL     1     -12.440  11.044  69.787  1.00  0.00    -0.293 OA 
BRANCH  28  29
HETATM   29  C   UNL     1     -11.814  11.273  68.587  1.00  0.00    -0.300 A  
HETATM   30  C   UNL     1     -11.122  10.299  67.863  1.00  0.00    -0.341 A  
HETATM   31  C   UNL     1     -10.525  10.619  66.642  1.00  0.00    -0.296 A  
HETATM   32  C   UNL     1     -10.623  11.913  66.135  1.00  0.00    -0.295 A  
HETATM   33  C   UNL     1     -11.325  12.900  66.837  1.00  0.00    -0.358 A  
HETATM   34  C   UNL     1     -11.431  14.302  66.290  1.00  0.00    -0.357 C  
HETATM   35  C   UNL     1     -11.929  12.565  68.062  1.00  0.00    -0.281 A  
HETATM   36  F   UNL     1     -10.755  14.478  65.118  1.00  0.00    -0.314 F  
HETATM   37  F   UNL     1     -10.933  15.237  67.146  1.00  0.00    -0.307 F  
HETATM   38  F   UNL     1     -12.715  14.671  66.034  1.00  0.00    -0.297 F  
ENDBRANCH  28  29
ENDBRANCH  27  28
ENDBRANCH  24  27
ENDBRANCH  23  24
ENDBRANCH  20  22
ENDBRANCH  12  13
ENDBRANCH  11  12
ENDBRANCH   9  10
ENDBRANCH   8   9
ENDBRANCH   7   8
ENDBRANCH   5   7
ENDBRANCH   4   5
ENDBRANCH   2   4
TORSDOF 13
ENDMDL
MODEL      375
REMARK 921   NORMALIZED FREE ENERGY PREDICTED BY IDOCK:   -3.25 KCAL/MOL
REMARK 922        TOTAL FREE ENERGY PREDICTED BY IDOCK:   -7.94 KCAL/MOL
REMARK 923 INTER-LIGAND FREE ENERGY PREDICTED BY IDOCK:   -6.59 KCAL/MOL
REMARK 924 INTRA-LIGAND FREE ENERGY PREDICTED BY IDOCK:   -1.35 KCAL/MOL
REMARK 927      BINDING AFFINITY PREDICTED BY RF-SCORE:    0.00 PKD
ROOT
HETATM    1  C   UNL     1     -11.938  16.195  72.264  1.00  0.00    -0.637 C  
HETATM    2  C   UNL     1     -11.944  15.820  70.786  1.00  0.00    -0.407 C  
HETATM    3  C   UNL     1     -10.930  16.657  70.012  1.00  0.00    -0.148 C  
ENDROOT
BRANCH   2   4
HETATM    4  O   UNL     1     -11.564  14.439  70.645  1.00  0.00    -0.264 OA 
BRANCH   4   5
HETATM    5  C   UNL     1     -11.859  13.883  69.436  1.00  0.00    -0.334 C  
HETATM    6  O   UNL     1     -12.262  14.500  68.459  1.00  0.00    -0.254 OA 
BRANCH   5   7
HETATM    7  C   UNL     1     -11.675  12.390  69.489  1.00  0.00    -0.388 C  
BRANCH   7   8
HETATM    8  C   UNL     1     -10.576  11.967  68.513  1.00  0.00    -0.252 C  
BRANCH   8   9
HETATM    9  C   UNL     1     -11.108  11.310  67.243  1.00  0.00    -0.367 C  
BRANCH   9  10
HETATM   10  C   UNL     1     -10.050  10.542  66.498  1.00  0.00    -0.280 C  
HETATM   11  C   UNL     1      -9.525   9.363  66.867  1.00  0.00    -0.204 C  
BRANCH  11  12
HETATM   12  C   UNL     1      -9.839   8.621  68.137  1.00  0.00    -0.192 C  
BRANCH  12  13
HETATM   13  C   UNL     1      -8.590   8.067  68.835  1.00  0.00    -0.131 C  
HETATM   14  C   UNL     1      -7.520   9.105  69.195  1.00  0.00    -0.072 C  
HETATM   15  O   UNL     1      -8.100  10.326  69.641  1.00  0.00    -0.179 OA 
HETATM   16  C   UNL     1      -6.769   8.470  70.360  1.00  0.00    -0.037 C  
HETATM   17  C   UNL     1      -7.871   7.812  71.186  1.00  0.00    -0.089 C  
HETATM   18  H   UNL     1      -7.437  10.969  69.865  1.00  0.00     0.000 HD 
HETATM   19  O   UNL     1      -8.427   8.767  72.095  1.00  0.00    -0.351 OA 
HETATM   20  C   UNL     1      -8.954   7.365  70.174  1.00  0.00    -0.148 C  
HETATM   21  H   UNL     1      -9.113   8.357  72.609  1.00  0.00     0.000 HD 
BRANCH  20  22
HETATM   22  C   UNL     1      -9.106   5.873  69.938  1.00  0.00    -0.156 C  
HETATM   23  C   UNL     1      -8.525   4.888  70.647  1.00  0.00    -0.111 C  
BRANCH  23  24
HETATM   24  C   UNL     1      -8.622   3.399  70.390  1.00  0.00    -0.063 C  
HETATM   25  H   UNL     1      -9.533   1.865  71.201  1.00  0.00     0.000 HD 
HETATM   26  O   UNL     1      -9.473   2.800  71.362  1.00  0.00    -0.123 OA 
BRANCH  24  27
HETATM   27  C   UNL     1      -9.168   3.134  68.972  1.00  0.00    -0.159 C  
BRANCH  27  28
HETATM   28  O   UNL     1      -8.106   2.826  68.055  1.00  0.00    -0.061 OA 
BRANCH  28  29
HETATM   29  C   UNL     1      -8.114   3.581  66.909  1.00  0.00    -0.088 A  
HETATM   30  C   UNL     1      -7.231   4.634  66.656  1.00  0.00    -0.080 A  
HETATM   31  C   UNL     1      -7.304   5.341  65.453  1.00  0.00    -0.069 A  
HETATM   32  C   UNL     1      -8.254   4.994  64.496  1.00  0.00    -0.126 A  
HETATM   33  C   UNL     1      -9.137   3.932  64.724  1.00  0.00    -0.141 A  
HETATM   34  C   UNL     1     -10.168   3.556  63.688  1.00  0.00    -0.218 C  
HETATM   35  C   UNL     1      -9.050   3.221  65.934  1.00  0.00    -0.152 A  
HETATM   36  F   UNL     1     -10.154   4.367  62.591  1.00  0.00    -0.161 F  
HETATM   37  F   UNL     1     -11.440   3.611  64.170  1.00  0.00    -0.043 F  
HETATM   38  F   UNL     1     -10.000   2.291  63.213  1.00  0.00    -0.101 F  
ENDBRANCH  28  29
ENDBRANCH  27  28
ENDBRANCH  24  27
ENDBRANCH  23  24
ENDBRANCH  20  22
ENDBRANCH  12  13
ENDBRANCH  11  12
ENDBRANCH   9  10
ENDBRANCH   8   9
ENDBRANCH   7   8
ENDBRANCH   5   7
ENDBRANCH   4   5
ENDBRANCH   2   4
TORSDOF 13
ENDMDL
MODEL      376
REMARK 921   NORMALIZED FREE ENERGY PREDICTED BY IDOCK:   -3.24 KCAL/MOL
REMARK 922        TOTAL FREE ENERGY PREDICTED BY IDOCK:   -7.92 KCAL/MOL
REMARK 923 INTER-LIGAND FREE ENERGY PREDICTED BY IDOCK:   -6.14 KCAL/MOL
REMARK 924 INTRA-LIGAND FREE ENERGY PREDICTED BY IDOCK:   -1.78 KCAL/MOL
REMARK 927      BINDING AFFINITY PREDICTED BY RF-SCORE:    0.00 PKD
ROOT
HETATM    1  C   UNL     1     -10.710  17.382  67.849  1.00  0.00    -0.351 C  
HETATM    2  C   UNL     1     -10.397  17.404  66.357  1.00  0.00    -0.317 C  
HETATM    3  C   UNL     1      -8.991  17.942  66.108  1.00  0.00    -0.122 C  
ENDROOT
BRANCH   2   4
HETATM    4  O   UNL     1     -10.444  16.061  65.842  1.00  0.00    -0.329 OA 
BRANCH   4   5
HETATM    5  C   UNL     1     -11.044  15.935  64.624  1.00  0.00    -0.354 C  
HETATM    6  O   UNL     1     -11.494  16.861  63.964  1.00  0.00    -1.130 OA 
BRANCH   5   7
HETATM    7  C   UNL     1     -11.129  14.483  64.232  1.00  0.00    -0.024 C  
BRANCH   7   8
HETATM    8  C   UNL     1     -11.353  13.622  65.475  1.00  0.00    -0.308 C  
BRANCH   8   9
HETATM    9  C   UNL     1     -10.250  12.595  65.713  1.00  0.00    -0.288 C  
BRANCH   9  10
HETATM   10  C   UNL     1     -10.331  11.957  67.073  1.00  0.00    -0.239 C  
HETATM   11  C   UNL     1      -9.882  12.488  68.220  1.00  0.00    -0.227 C  
BRANCH  11  12
HETATM   12  C   UNL     1      -9.141  13.790  68.355  1.00  0.00    -0.175 C  
BRANCH  12  13
HETATM   13  C   UNL     1      -7.626  13.643  68.162  1.00  0.00    -0.137 C  
HETATM   14  C   UNL     1      -6.890  14.916  67.726  1.00  0.00    -0.174 C  
HETATM   15  O   UNL     1      -7.415  16.074  68.366  1.00  0.00    -0.135 OA 
HETATM   16  C   UNL     1      -5.461  14.699  68.212  1.00  0.00    -0.114 C  
HETATM   17  C   UNL     1      -5.638  14.040  69.576  1.00  0.00    -0.088 C  
HETATM   18  H   UNL     1      -6.959  16.863  68.096  1.00  0.00     0.000 HD 
HETATM   19  O   UNL     1      -5.802  15.047  70.580  1.00  0.00    -0.143 OA 
HETATM   20  C   UNL     1      -6.929  13.191  69.476  1.00  0.00     0.171 C  
HETATM   21  H   UNL     1      -5.912  14.637  71.430  1.00  0.00     0.000 HD 
BRANCH  20  22
HETATM   22  C   UNL     1      -6.765  11.682  69.468  1.00  0.00    -0.089 C  
HETATM   23  C   UNL     1      -7.046  10.852  68.447  1.00  0.00    -0.073 C  
BRANCH  23  24
HETATM   24  C   UNL     1      -6.942   9.342  68.442  1.00  0.00    -0.067 C  
HETATM   25  H   UNL     1      -7.395   7.874  69.660  1.00  0.00     0.000 HD 
HETATM   26  O   UNL     1      -7.460   8.822  69.663  1.00  0.00    -0.068 OA 
BRANCH  24  27
HETATM   27  C   UNL     1      -7.717   8.755  67.245  1.00  0.00    -0.096 C  
BRANCH  27  28
HETATM   28  O   UNL     1      -8.876   8.028  67.682  1.00  0.00    -0.125 OA 
BRANCH  28  29
HETATM   29  C   UNL     1      -9.005   6.783  67.121  1.00  0.00    -0.115 A  
HETATM   30  C   UNL     1     -10.228   6.147  66.890  1.00  0.00    -0.263 A  
HETATM   31  C   UNL     1     -10.264   4.881  66.300  1.00  0.00    -0.312 A  
HETATM   32  C   UNL     1      -9.079   4.249  65.931  1.00  0.00    -0.134 A  
HETATM   33  C   UNL     1      -7.845   4.875  66.140  1.00  0.00    -0.099 A  
HETATM   34  C   UNL     1      -6.560   4.190  65.743  1.00  0.00    -0.044 C  
HETATM   35  C   UNL     1      -7.820   6.153  66.727  1.00  0.00    -0.104 A  
HETATM   36  F   UNL     1      -6.750   2.940  65.229  1.00  0.00    -0.036 F  
HETATM   37  F   UNL     1      -5.706   4.031  66.791  1.00  0.00    -0.019 F  
HETATM   38  F   UNL     1      -5.869   4.877  64.793  1.00  0.00    -0.016 F  
ENDBRANCH  28  29
ENDBRANCH  27  28
ENDBRANCH  24  27
ENDBRANCH  23  24
ENDBRANCH  20  22
ENDBRANCH  12  13
ENDBRANCH  11  12
ENDBRANCH   9  10
ENDBRANCH   8   9
ENDBRANCH   7   8
ENDBRANCH   5   7
ENDBRANCH   4   5
ENDBRANCH   2   4
TORSDOF 13
ENDMDL
MODEL      377
REMARK 921   NORMALIZED FREE ENERGY PREDICTED BY IDOCK:   -3.23 KCAL/MOL
REMARK 922        TOTAL FREE ENERGY PREDICTED BY IDOCK:   -7.90 KCAL/MOL
REMARK 923 INTER-LIGAND FREE ENERGY PREDICTED BY IDOCK:   -7.14 KCAL/MOL
REMARK 924 INTRA-LIGAND FREE ENERGY PREDICTED BY IDOCK:   -0.76 KCAL/MOL
REMARK 927      BINDING AFFINITY PREDICTED BY RF-SCORE:    0.00 PKD
ROOT
HETATM    1  C   UNL     1     -12.164  16.705  73.057  1.00  0.00    -0.282 C  
HETATM    2  C   UNL     1     -11.832  15.226  72.890  1.00  0.00    -0.403 C  
HETATM    3  C   UNL     1     -13.021  14.357  73.286  1.00  0.00    -0.406 C  
ENDROOT
BRANCH   2   4
HETATM    4  O   UNL     1     -11.540  14.958  71.507  1.00  0.00    -0.346 OA 
BRANCH   4   5
HETATM    5  C   UNL     1     -12.633  14.762  70.717  1.00  0.00    -0.349 C  
HETATM    6  O   UNL     1     -13.723  15.294  70.881  1.00  0.00    -0.405 OA 
BRANCH   5   7
HETATM    7  C   UNL     1     -12.329  13.748  69.646  1.00  0.00    -0.284 C  
BRANCH   7   8
HETATM    8  C   UNL     1     -11.280  14.308  68.685  1.00  0.00    -0.287 C  
BRANCH   8   9
HETATM    9  C   UNL     1     -11.723  15.583  67.973  1.00  0.00    -0.198 C  
BRANCH   9  10
HETATM   10  C   UNL     1     -10.898  16.781  68.356  1.00  0.00    -0.355 C  
HETATM   11  C   UNL     1      -9.854  17.271  67.669  1.00  0.00    -0.279 C  
BRANCH  11  12
HETATM   12  C   UNL     1      -9.262  16.670  66.424  1.00  0.00    -0.318 C  
BRANCH  12  13
HETATM   13  C   UNL     1      -7.803  16.229  66.604  1.00  0.00    -0.310 C  
HETATM   14  C   UNL     1      -6.747  17.297  66.294  1.00  0.00    -0.234 C  
HETATM   15  O   UNL     1      -7.158  18.587  66.734  1.00  0.00    -0.201 OA 
HETATM   16  C   UNL     1      -5.537  16.867  67.116  1.00  0.00    -0.196 C  
HETATM   17  C   UNL     1      -6.144  16.384  68.429  1.00  0.00    -0.119 C  
HETATM   18  H   UNL     1      -6.504  19.249  66.542  1.00  0.00     0.000 HD 
HETATM   19  O   UNL     1      -6.321  17.494  69.315  1.00  0.00    -0.223 OA 
HETATM   20  C   UNL     1      -7.523  15.782  68.067  1.00  0.00    -0.136 C  
HETATM   21  H   UNL     1      -6.699  17.193  70.134  1.00  0.00     0.000 HD 
BRANCH  20  22
HETATM   22  C   UNL     1      -7.669  14.274  68.172  1.00  0.00    -0.141 C  
HETATM   23  C   UNL     1      -8.403  13.483  67.367  1.00  0.00    -0.199 C  
BRANCH  23  24
HETATM   24  C   UNL     1      -8.603  11.988  67.492  1.00  0.00    -0.167 C  
HETATM   25  H   UNL     1      -8.599  10.441  66.290  1.00  0.00     0.000 HD 
HETATM   26  O   UNL     1      -8.473  11.379  66.211  1.00  0.00    -0.177 OA 
BRANCH  24  27
HETATM   27  C   UNL     1      -7.573  11.390  68.471  1.00  0.00    -0.129 C  
BRANCH  27  28
HETATM   28  O   UNL     1      -8.059  10.170  69.055  1.00  0.00    -0.106 OA 
BRANCH  28  29
HETATM   29  C   UNL     1      -7.417   9.040  68.614  1.00  0.00    -0.084 A  
HETATM   30  C   UNL     1      -6.119   8.678  68.984  1.00  0.00    -0.043 A  
HETATM   31  C   UNL     1      -5.549   7.500  68.495  1.00  0.00    -0.027 A  
HETATM   32  C   UNL     1      -6.276   6.675  67.641  1.00  0.00    -0.035 A  
HETATM   33  C   UNL     1      -7.583   7.012  67.269  1.00  0.00    -0.108 A  
HETATM   34  C   UNL     1      -8.371   6.119  66.342  1.00  0.00    -0.120 C  
HETATM   35  C   UNL     1      -8.151   8.196  67.774  1.00  0.00    -0.127 A  
HETATM   36  F   UNL     1      -7.666   5.036  65.906  1.00  0.00    -0.086 F  
HETATM   37  F   UNL     1      -8.783   6.767  65.217  1.00  0.00    -0.140 F  
HETATM   38  F   UNL     1      -9.495   5.619  66.923  1.00  0.00    -0.124 F  
ENDBRANCH  28  29
ENDBRANCH  27  28
ENDBRANCH  24  27
ENDBRANCH  23  24
ENDBRANCH  20  22
ENDBRANCH  12  13
ENDBRANCH  11  12
ENDBRANCH   9  10
ENDBRANCH   8   9
ENDBRANCH   7   8
ENDBRANCH   5   7
ENDBRANCH   4   5
ENDBRANCH   2   4
TORSDOF 13
ENDMDL
MODEL      378
REMARK 921   NORMALIZED FREE ENERGY PREDICTED BY IDOCK:   -3.21 KCAL/MOL
REMARK 922        TOTAL FREE ENERGY PREDICTED BY IDOCK:   -7.88 KCAL/MOL
REMARK 923 INTER-LIGAND FREE ENERGY PREDICTED BY IDOCK:   -6.04 KCAL/MOL
REMARK 924 INTRA-LIGAND FREE ENERGY PREDICTED BY IDOCK:   -1.84 KCAL/MOL
REMARK 927      BINDING AFFINITY PREDICTED BY RF-SCORE:    0.00 PKD
ROOT
HETATM    1  C   UNL     1     -11.936  16.198  72.264  1.00  0.00    -0.637 C  
HETATM    2  C   UNL     1     -11.978  15.820  70.787  1.00  0.00    -0.407 C  
HETATM    3  C   UNL     1     -10.980  16.653  69.988  1.00  0.00    -0.148 C  
ENDROOT
BRANCH   2   4
HETATM    4  O   UNL     1     -11.605  14.438  70.640  1.00  0.00    -0.264 OA 
BRANCH   4   5
HETATM    5  C   UNL     1     -11.948  13.875  69.447  1.00  0.00    -0.354 C  
HETATM    6  O   UNL     1     -12.376  14.488  68.478  1.00  0.00    -0.170 OA 
BRANCH   5   7
HETATM    7  C   UNL     1     -11.782  12.380  69.508  1.00  0.00    -0.388 C  
BRANCH   7   8
HETATM    8  C   UNL     1     -10.745  11.930  68.478  1.00  0.00    -0.254 C  
BRANCH   8   9
HETATM    9  C   UNL     1     -11.355  11.264  67.249  1.00  0.00    -0.329 C  
BRANCH   9  10
HETATM   10  C   UNL     1     -10.351  10.472  66.456  1.00  0.00    -0.294 C  
HETATM   11  C   UNL     1      -9.815   9.295  66.816  1.00  0.00    -0.289 C  
BRANCH  11  12
HETATM   12  C   UNL     1     -10.059   8.580  68.116  1.00  0.00    -0.240 C  
BRANCH  12  13
HETATM   13  C   UNL     1      -8.777   8.011  68.739  1.00  0.00    -0.131 C  
HETATM   14  C   UNL     1      -7.655   9.026  68.983  1.00  0.00    -0.078 C  
HETATM   15  O   UNL     1      -8.165  10.279  69.427  1.00  0.00    -0.148 OA 
HETATM   16  C   UNL     1      -6.837   8.408  70.111  1.00  0.00    -0.042 C  
HETATM   17  C   UNL     1      -7.892   7.812  71.038  1.00  0.00    -0.089 C  
HETATM   18  H   UNL     1      -7.468  10.908  69.579  1.00  0.00     0.000 HD 
HETATM   19  O   UNL     1      -8.351   8.813  71.952  1.00  0.00    -0.294 OA 
HETATM   20  C   UNL     1      -9.060   7.365  70.125  1.00  0.00    -0.148 C  
HETATM   21  H   UNL     1      -9.009   8.442  72.529  1.00  0.00     0.000 HD 
BRANCH  20  22
HETATM   22  C   UNL     1      -9.272   5.872  69.954  1.00  0.00    -0.163 C  
HETATM   23  C   UNL     1      -8.655   4.892  70.641  1.00  0.00    -0.123 C  
BRANCH  23  24
HETATM   24  C   UNL     1      -8.813   3.400  70.443  1.00  0.00    -0.083 C  
HETATM   25  H   UNL     1      -9.668   1.915  71.396  1.00  0.00     0.000 HD 
HETATM   26  O   UNL     1      -9.569   2.852  71.519  1.00  0.00    -0.136 OA 
BRANCH  24  27
HETATM   27  C   UNL     1      -9.514   3.108  69.101  1.00  0.00    -0.107 C  
BRANCH  27  28
HETATM   28  O   UNL     1      -8.563   2.742  68.088  1.00  0.00    -0.078 OA 
BRANCH  28  29
HETATM   29  C   UNL     1      -8.687   3.449  66.918  1.00  0.00    -0.123 A  
HETATM   30  C   UNL     1      -9.672   3.210  65.956  1.00  0.00     0.130 A  
HETATM   31  C   UNL     1      -9.731   3.989  64.798  1.00  0.00    -0.187 A  
HETATM   32  C   UNL     1      -8.810   5.016  64.601  1.00  0.00    -0.114 A  
HETATM   33  C   UNL     1      -7.825   5.281  65.559  1.00  0.00    -0.093 A  
HETATM   34  C   UNL     1      -6.827   6.392  65.346  1.00  0.00    -0.048 C  
HETATM   35  C   UNL     1      -7.780   4.496  66.725  1.00  0.00    -0.090 A  
HETATM   36  F   UNL     1      -6.975   7.030  64.149  1.00  0.00    -0.048 F  
HETATM   37  F   UNL     1      -5.539   5.951  65.370  1.00  0.00    -0.017 F  
HETATM   38  F   UNL     1      -6.910   7.365  66.294  1.00  0.00    -0.055 F  
ENDBRANCH  28  29
ENDBRANCH  27  28
ENDBRANCH  24  27
ENDBRANCH  23  24
ENDBRANCH  20  22
ENDBRANCH  12  13
ENDBRANCH  11  12
ENDBRANCH   9  10
ENDBRANCH   8   9
ENDBRANCH   7   8
ENDBRANCH   5   7
ENDBRANCH   4   5
ENDBRANCH   2   4
TORSDOF 13
ENDMDL
MODEL      379
REMARK 921   NORMALIZED FREE ENERGY PREDICTED BY IDOCK:   -3.21 KCAL/MOL
REMARK 922        TOTAL FREE ENERGY PREDICTED BY IDOCK:   -7.86 KCAL/MOL
REMARK 923 INTER-LIGAND FREE ENERGY PREDICTED BY IDOCK:   -6.85 KCAL/MOL
REMARK 924 INTRA-LIGAND FREE ENERGY PREDICTED BY IDOCK:   -1.02 KCAL/MOL
REMARK 927      BINDING AFFINITY PREDICTED BY RF-SCORE:    0.00 PKD
ROOT
HETATM    1  C   UNL     1      -9.887   4.393  69.526  1.00  0.00    -0.258 C  
HETATM    2  C   UNL     1      -8.783   5.396  69.847  1.00  0.00    -0.121 C  
HETATM    3  C   UNL     1      -7.792   4.807  70.845  1.00  0.00    -0.081 C  
ENDROOT
BRANCH   2   4
HETATM    4  O   UNL     1      -8.056   5.702  68.643  1.00  0.00    -0.099 OA 
BRANCH   4   5
HETATM    5  C   UNL     1      -8.702   6.535  67.779  1.00  0.00    -0.115 C  
HETATM    6  O   UNL     1      -9.448   7.447  68.108  1.00  0.00    -0.138 OA 
BRANCH   5   7
HETATM    7  C   UNL     1      -8.415   6.135  66.356  1.00  0.00    -0.123 C  
BRANCH   7   8
HETATM    8  C   UNL     1      -7.112   6.782  65.887  1.00  0.00    -0.069 C  
BRANCH   8   9
HETATM    9  C   UNL     1      -6.808   6.542  64.411  1.00  0.00    -0.042 C  
BRANCH   9  10
HETATM   10  C   UNL     1      -6.795   7.812  63.605  1.00  0.00    -0.063 C  
HETATM   11  C   UNL     1      -6.890   9.057  64.096  1.00  0.00    -0.087 C  
BRANCH  11  12
HETATM   12  C   UNL     1      -7.106   9.418  65.540  1.00  0.00    -0.087 C  
BRANCH  12  13
HETATM   13  C   UNL     1      -8.072  10.595  65.728  1.00  0.00    -0.158 C  
HETATM   14  C   UNL     1      -9.440  10.441  65.051  1.00  0.00    -0.253 C  
HETATM   15  O   UNL     1      -9.923   9.105  65.137  1.00  0.00    -0.348 OA 
HETATM   16  C   UNL     1     -10.358  11.343  65.867  1.00  0.00    -0.299 C  
HETATM   17  C   UNL     1      -9.901  11.119  67.306  1.00  0.00    -0.175 C  
HETATM   18  H   UNL     1     -10.770   9.010  64.718  1.00  0.00     0.000 HD 
HETATM   19  O   UNL     1     -10.573   9.979  67.853  1.00  0.00    -0.215 OA 
HETATM   20  C   UNL     1      -8.380  10.840  67.232  1.00  0.00    -0.124 C  
HETATM   21  H   UNL     1     -10.288   9.839  68.748  1.00  0.00     0.000 HD 
BRANCH  20  22
HETATM   22  C   UNL     1      -7.453  11.916  67.769  1.00  0.00    -0.121 C  
HETATM   23  C   UNL     1      -7.817  13.017  68.452  1.00  0.00    -0.134 C  
BRANCH  23  24
HETATM   24  C   UNL     1      -6.912  14.126  68.945  1.00  0.00    -0.109 C  
HETATM   25  H   UNL     1      -5.364  15.117  68.263  1.00  0.00     0.000 HD 
HETATM   26  O   UNL     1      -5.932  14.421  67.954  1.00  0.00    -0.140 OA 
BRANCH  24  27
HETATM   27  C   UNL     1      -7.738  15.389  69.265  1.00  0.00    -0.221 C  
BRANCH  27  28
HETATM   28  O   UNL     1      -7.411  16.464  68.370  1.00  0.00    -0.158 OA 
BRANCH  28  29
HETATM   29  C   UNL     1      -8.415  16.792  67.493  1.00  0.00    -0.192 A  
HETATM   30  C   UNL     1      -9.259  15.861  66.882  1.00  0.00    -0.247 A  
HETATM   31  C   UNL     1     -10.265  16.287  66.011  1.00  0.00    -0.376 A  
HETATM   32  C   UNL     1     -10.436  17.646  65.753  1.00  0.00    -0.208 A  
HETATM   33  C   UNL     1      -9.610  18.595  66.367  1.00  0.00    -0.338 A  
HETATM   34  C   UNL     1      -9.794  20.066  66.088  1.00  0.00    -0.443 C  
HETATM   35  C   UNL     1      -8.606  18.156  67.249  1.00  0.00    -0.240 A  
HETATM   36  F   UNL     1     -10.778  20.326  65.179  1.00  0.00    -0.483 F  
HETATM   37  F   UNL     1      -8.669  20.649  65.588  1.00  0.00     0.005 F  
HETATM   38  F   UNL     1     -10.123  20.777  67.201  1.00  0.00    -0.588 F  
ENDBRANCH  28  29
ENDBRANCH  27  28
ENDBRANCH  24  27
ENDBRANCH  23  24
ENDBRANCH  20  22
ENDBRANCH  12  13
ENDBRANCH  11  12
ENDBRANCH   9  10
ENDBRANCH   8   9
ENDBRANCH   7   8
ENDBRANCH   5   7
ENDBRANCH   4   5
ENDBRANCH   2   4
TORSDOF 13
ENDMDL
MODEL      380
REMARK 921   NORMALIZED FREE ENERGY PREDICTED BY IDOCK:   -3.16 KCAL/MOL
REMARK 922        TOTAL FREE ENERGY PREDICTED BY IDOCK:   -7.78 KCAL/MOL
REMARK 923 INTER-LIGAND FREE ENERGY PREDICTED BY IDOCK:   -4.79 KCAL/MOL
REMARK 924 INTRA-LIGAND FREE ENERGY PREDICTED BY IDOCK:   -2.99 KCAL/MOL
REMARK 927      BINDING AFFINITY PREDICTED BY RF-SCORE:    0.00 PKD
ROOT
HETATM    1  C   UNL     1     -10.441   9.980  66.194  1.00  0.00    -0.156 C  
HETATM    2  C   UNL     1      -9.900  10.601  67.478  1.00  0.00    -0.168 C  
HETATM    3  C   UNL     1      -9.879  12.123  67.375  1.00  0.00    -0.193 C  
ENDROOT
BRANCH   2   4
HETATM    4  O   UNL     1     -10.762  10.251  68.575  1.00  0.00    -0.202 OA 
BRANCH   4   5
HETATM    5  C   UNL     1     -10.150   9.591  69.599  1.00  0.00    -0.212 C  
HETATM    6  O   UNL     1      -9.107   9.939  70.134  1.00  0.00    -0.223 OA 
BRANCH   5   7
HETATM    7  C   UNL     1     -10.910   8.336  69.938  1.00  0.00    -0.213 C  
BRANCH   7   8
HETATM    8  C   UNL     1     -10.552   7.228  68.948  1.00  0.00    -0.207 C  
BRANCH   8   9
HETATM    9  C   UNL     1     -11.031   5.845  69.380  1.00  0.00    -0.421 C  
BRANCH   9  10
HETATM   10  C   UNL     1      -9.923   4.828  69.411  1.00  0.00    -0.269 C  
HETATM   11  C   UNL     1      -9.257   4.423  70.503  1.00  0.00    -0.192 C  
BRANCH  11  12
HETATM   12  C   UNL     1      -9.437   4.965  71.894  1.00  0.00    -0.194 C  
BRANCH  12  13
HETATM   13  C   UNL     1      -8.793   6.344  72.091  1.00  0.00    -0.136 C  
HETATM   14  C   UNL     1      -9.227   7.101  73.352  1.00  0.00    -0.168 C  
HETATM   15  O   UNL     1      -9.384   6.226  74.464  1.00  0.00    -0.165 OA 
HETATM   16  C   UNL     1      -8.061   8.041  73.635  1.00  0.00    -0.263 C  
HETATM   17  C   UNL     1      -6.829   7.195  73.327  1.00  0.00    -0.065 C  
HETATM   18  H   UNL     1      -9.653   6.696  75.245  1.00  0.00     0.000 HD 
HETATM   19  O   UNL     1      -6.466   6.433  74.483  1.00  0.00    -0.073 OA 
HETATM   20  C   UNL     1      -7.245   6.238  72.183  1.00  0.00    -0.091 C  
HETATM   21  H   UNL     1      -5.699   5.906  74.291  1.00  0.00     0.000 HD 
BRANCH  20  22
HETATM   22  C   UNL     1      -6.638   6.491  70.815  1.00  0.00    -0.053 C  
HETATM   23  C   UNL     1      -7.046   7.405  69.915  1.00  0.00    -0.065 C  
BRANCH  23  24
HETATM   24  C   UNL     1      -6.489   7.632  68.527  1.00  0.00    -0.048 C  
HETATM   25  H   UNL     1      -5.261   8.896  67.669  1.00  0.00     0.000 HD 
HETATM   26  O   UNL     1      -5.610   8.754  68.541  1.00  0.00    -0.037 OA 
BRANCH  24  27
HETATM   27  C   UNL     1      -5.737   6.377  68.039  1.00  0.00    -0.012 C  
BRANCH  27  28
HETATM   28  O   UNL     1      -6.643   5.285  67.810  1.00  0.00    -0.050 OA 
BRANCH  28  29
HETATM   29  C   UNL     1      -7.099   5.194  66.519  1.00  0.00    -0.069 A  
HETATM   30  C   UNL     1      -6.365   5.587  65.396  1.00  0.00    -0.038 A  
HETATM   31  C   UNL     1      -6.905   5.445  64.116  1.00  0.00    -0.047 A  
HETATM   32  C   UNL     1      -8.177   4.902  63.951  1.00  0.00    -0.122 A  
HETATM   33  C   UNL     1      -8.923   4.489  65.061  1.00  0.00    -0.149 A  
HETATM   34  C   UNL     1     -10.302   3.902  64.884  1.00  0.00    -0.141 C  
HETATM   35  C   UNL     1      -8.366   4.628  66.346  1.00  0.00    -0.106 A  
HETATM   36  F   UNL     1     -10.715   3.876  63.584  1.00  0.00    -0.228 F  
HETATM   37  F   UNL     1     -11.257   4.599  65.559  1.00  0.00    -0.343 F  
HETATM   38  F   UNL     1     -10.388   2.618  65.325  1.00  0.00     0.333 F  
ENDBRANCH  28  29
ENDBRANCH  27  28
ENDBRANCH  24  27
ENDBRANCH  23  24
ENDBRANCH  20  22
ENDBRANCH  12  13
ENDBRANCH  11  12
ENDBRANCH   9  10
ENDBRANCH   8   9
ENDBRANCH   7   8
ENDBRANCH   5   7
ENDBRANCH   4   5
ENDBRANCH   2   4
TORSDOF 13
ENDMDL
MODEL      381
REMARK 921   NORMALIZED FREE ENERGY PREDICTED BY IDOCK:   -3.16 KCAL/MOL
REMARK 922        TOTAL FREE ENERGY PREDICTED BY IDOCK:   -7.77 KCAL/MOL
REMARK 923 INTER-LIGAND FREE ENERGY PREDICTED BY IDOCK:   -7.29 KCAL/MOL
REMARK 924 INTRA-LIGAND FREE ENERGY PREDICTED BY IDOCK:   -0.49 KCAL/MOL
REMARK 927      BINDING AFFINITY PREDICTED BY RF-SCORE:    0.00 PKD
ROOT
HETATM    1  C   UNL     1     -10.243   4.980  71.580  1.00  0.00    -0.275 C  
HETATM    2  C   UNL     1      -9.196   4.097  70.910  1.00  0.00    -0.133 C  
HETATM    3  C   UNL     1      -9.452   4.000  69.409  1.00  0.00    -0.259 C  
ENDROOT
BRANCH   2   4
HETATM    4  O   UNL     1      -7.894   4.682  71.091  1.00  0.00    -0.078 OA 
BRANCH   4   5
HETATM    5  C   UNL     1      -7.854   6.040  70.974  1.00  0.00    -0.111 C  
HETATM    6  O   UNL     1      -8.144   6.830  71.863  1.00  0.00    -0.101 OA 
BRANCH   5   7
HETATM    7  C   UNL     1      -7.459   6.432  69.575  1.00  0.00    -0.093 C  
BRANCH   7   8
HETATM    8  C   UNL     1      -7.970   7.840  69.267  1.00  0.00    -0.125 C  
BRANCH   8   9
HETATM    9  C   UNL     1      -9.470   7.898  68.995  1.00  0.00    -0.151 C  
BRANCH   9  10
HETATM   10  C   UNL     1     -10.018   9.299  69.045  1.00  0.00    -0.187 C  
HETATM   11  C   UNL     1     -10.462  10.009  67.996  1.00  0.00    -0.260 C  
BRANCH  11  12
HETATM   12  C   UNL     1     -10.425   9.569  66.559  1.00  0.00    -0.201 C  
BRANCH  12  13
HETATM   13  C   UNL     1      -9.364  10.305  65.731  1.00  0.00    -0.233 C  
HETATM   14  C   UNL     1      -8.268   9.420  65.125  1.00  0.00    -0.135 C  
HETATM   15  O   UNL     1      -8.788   8.176  64.668  1.00  0.00    -0.397 OA 
HETATM   16  C   UNL     1      -7.779  10.214  63.919  1.00  0.00    -0.140 C  
HETATM   17  C   UNL     1      -9.057  10.802  63.329  1.00  0.00    -0.252 C  
HETATM   18  H   UNL     1      -8.109   7.628  64.292  1.00  0.00     0.000 HD 
HETATM   19  O   UNL     1      -9.653   9.857  62.435  1.00  0.00    -0.478 OA 
HETATM   20  C   UNL     1     -10.004  11.054  64.528  1.00  0.00    -0.366 C  
HETATM   21  H   UNL     1     -10.450  10.222  62.067  1.00  0.00     0.000 HD 
BRANCH  20  22
HETATM   22  C   UNL     1     -10.264  12.500  64.911  1.00  0.00    -0.301 C  
HETATM   23  C   UNL     1     -11.372  12.984  65.502  1.00  0.00    -0.330 C  
BRANCH  23  24
HETATM   24  C   UNL     1     -11.669  14.429  65.840  1.00  0.00    -0.369 C  
HETATM   25  H   UNL     1     -12.989  15.404  66.912  1.00  0.00     0.000 HD 
HETATM   26  O   UNL     1     -12.802  14.496  66.700  1.00  0.00     0.142 OA 
BRANCH  24  27
HETATM   27  C   UNL     1     -10.449  15.083  66.519  1.00  0.00    -0.285 C  
BRANCH  27  28
HETATM   28  O   UNL     1      -9.517  14.090  66.980  1.00  0.00    -0.231 OA 
BRANCH  28  29
HETATM   29  C   UNL     1      -8.570  14.568  67.850  1.00  0.00    -0.161 A  
HETATM   30  C   UNL     1      -7.759  13.760  68.651  1.00  0.00    -0.120 A  
HETATM   31  C   UNL     1      -6.810  14.334  69.500  1.00  0.00    -0.110 A  
HETATM   32  C   UNL     1      -6.661  15.719  69.546  1.00  0.00    -0.187 A  
HETATM   33  C   UNL     1      -7.453  16.545  68.740  1.00  0.00    -0.216 A  
HETATM   34  C   UNL     1      -7.294  18.045  68.790  1.00  0.00    -0.273 C  
HETATM   35  C   UNL     1      -8.400  15.956  67.883  1.00  0.00    -0.158 A  
HETATM   36  F   UNL     1      -6.368  18.461  69.702  1.00  0.00    -0.248 F  
HETATM   37  F   UNL     1      -8.450  18.683  69.123  1.00  0.00    -0.268 F  
HETATM   38  F   UNL     1      -6.902  18.573  67.599  1.00  0.00    -0.196 F  
ENDBRANCH  28  29
ENDBRANCH  27  28
ENDBRANCH  24  27
ENDBRANCH  23  24
ENDBRANCH  20  22
ENDBRANCH  12  13
ENDBRANCH  11  12
ENDBRANCH   9  10
ENDBRANCH   8   9
ENDBRANCH   7   8
ENDBRANCH   5   7
ENDBRANCH   4   5
ENDBRANCH   2   4
TORSDOF 13
ENDMDL
MODEL      382
REMARK 921   NORMALIZED FREE ENERGY PREDICTED BY IDOCK:   -3.15 KCAL/MOL
REMARK 922        TOTAL FREE ENERGY PREDICTED BY IDOCK:   -7.76 KCAL/MOL
REMARK 923 INTER-LIGAND FREE ENERGY PREDICTED BY IDOCK:   -5.06 KCAL/MOL
REMARK 924 INTRA-LIGAND FREE ENERGY PREDICTED BY IDOCK:   -2.70 KCAL/MOL
REMARK 927      BINDING AFFINITY PREDICTED BY RF-SCORE:    0.00 PKD
ROOT
HETATM    1  C   UNL     1     -10.875  10.545  69.046  1.00  0.00    -0.272 C  
HETATM    2  C   UNL     1     -11.265  10.298  70.499  1.00  0.00    -0.330 C  
HETATM    3  C   UNL     1     -12.767  10.478  70.693  1.00  0.00    -0.441 C  
ENDROOT
BRANCH   2   4
HETATM    4  O   UNL     1     -10.941   8.942  70.854  1.00  0.00    -0.238 OA 
BRANCH   4   5
HETATM    5  C   UNL     1      -9.702   8.772  71.398  1.00  0.00    -0.280 C  
HETATM    6  O   UNL     1      -9.390   9.076  72.541  1.00  0.00    -0.236 OA 
BRANCH   5   7
HETATM    7  C   UNL     1      -8.754   8.210  70.372  1.00  0.00    -0.136 C  
BRANCH   7   8
HETATM    8  C   UNL     1      -7.450   7.785  71.048  1.00  0.00    -0.074 C  
BRANCH   8   9
HETATM    9  C   UNL     1      -6.255   8.653  70.667  1.00  0.00    -0.037 C  
BRANCH   9  10
HETATM   10  C   UNL     1      -6.244   9.021  69.208  1.00  0.00    -0.041 C  
HETATM   11  C   UNL     1      -5.966  10.234  68.704  1.00  0.00    -0.044 C  
BRANCH  11  12
HETATM   12  C   UNL     1      -5.690  11.476  69.505  1.00  0.00    -0.069 C  
BRANCH  12  13
HETATM   13  C   UNL     1      -6.784  12.542  69.360  1.00  0.00    -0.022 C  
HETATM   14  C   UNL     1      -6.545  13.843  70.135  1.00  0.00     0.049 C  
HETATM   15  O   UNL     1      -5.174  14.226  70.112  1.00  0.00    -0.090 OA 
HETATM   16  C   UNL     1      -7.351  14.883  69.366  1.00  0.00    -0.181 C  
HETATM   17  C   UNL     1      -7.123  14.511  67.904  1.00  0.00    -0.157 C  
HETATM   18  H   UNL     1      -5.026  15.032  70.593  1.00  0.00     0.000 HD 
HETATM   19  O   UNL     1      -5.922  15.128  67.432  1.00  0.00    -0.334 OA 
HETATM   20  C   UNL     1      -6.963  12.971  67.876  1.00  0.00    -0.127 C  
HETATM   21  H   UNL     1      -5.779  14.895  66.521  1.00  0.00     0.000 HD 
BRANCH  20  22
HETATM   22  C   UNL     1      -8.092  12.170  67.251  1.00  0.00    -0.176 C  
HETATM   23  C   UNL     1      -8.027  11.448  66.117  1.00  0.00     0.021 C  
BRANCH  23  24
HETATM   24  C   UNL     1      -9.156  10.691  65.451  1.00  0.00    -0.189 C  
HETATM   25  H   UNL     1      -9.678  10.221  63.621  1.00  0.00     0.000 HD 
HETATM   26  O   UNL     1      -8.969  10.696  64.039  1.00  0.00    -0.191 OA 
BRANCH  24  27
HETATM   27  C   UNL     1      -9.210   9.241  65.973  1.00  0.00    -0.206 C  
BRANCH  27  28
HETATM   28  O   UNL     1      -8.325   8.387  65.229  1.00  0.00    -0.145 OA 
BRANCH  28  29
HETATM   29  C   UNL     1      -7.766   7.375  65.968  1.00  0.00    -0.095 A  
HETATM   30  C   UNL     1      -6.407   7.290  66.282  1.00  0.00    -0.041 A  
HETATM   31  C   UNL     1      -5.927   6.228  67.052  1.00  0.00    -0.021 A  
HETATM   32  C   UNL     1      -6.804   5.251  67.518  1.00  0.00    -0.060 A  
HETATM   33  C   UNL     1      -8.172   5.326  67.227  1.00  0.00    -0.104 A  
HETATM   34  C   UNL     1      -9.122   4.268  67.731  1.00  0.00    -0.131 C  
HETATM   35  C   UNL     1      -8.646   6.404  66.458  1.00  0.00    -0.125 A  
HETATM   36  F   UNL     1      -8.502   3.268  68.422  1.00  0.00    -0.083 F  
HETATM   37  F   UNL     1      -9.801   3.653  66.723  1.00  0.00    -0.227 F  
HETATM   38  F   UNL     1     -10.068   4.768  68.573  1.00  0.00    -0.224 F  
ENDBRANCH  28  29
ENDBRANCH  27  28
ENDBRANCH  24  27
ENDBRANCH  23  24
ENDBRANCH  20  22
ENDBRANCH  12  13
ENDBRANCH  11  12
ENDBRANCH   9  10
ENDBRANCH   8   9
ENDBRANCH   7   8
ENDBRANCH   5   7
ENDBRANCH   4   5
ENDBRANCH   2   4
TORSDOF 13
ENDMDL
MODEL      383
REMARK 921   NORMALIZED FREE ENERGY PREDICTED BY IDOCK:   -3.15 KCAL/MOL
REMARK 922        TOTAL FREE ENERGY PREDICTED BY IDOCK:   -7.76 KCAL/MOL
REMARK 923 INTER-LIGAND FREE ENERGY PREDICTED BY IDOCK:   -5.47 KCAL/MOL
REMARK 924 INTRA-LIGAND FREE ENERGY PREDICTED BY IDOCK:   -2.29 KCAL/MOL
REMARK 927      BINDING AFFINITY PREDICTED BY RF-SCORE:    0.00 PKD
ROOT
HETATM    1  C   UNL     1      -6.701   5.782  63.663  1.00  0.00    -0.037 C  
HETATM    2  C   UNL     1      -6.589   4.782  64.809  1.00  0.00    -0.043 C  
HETATM    3  C   UNL     1      -5.131   4.409  65.059  1.00  0.00    -0.009 C  
ENDROOT
BRANCH   2   4
HETATM    4  O   UNL     1      -7.096   5.382  66.014  1.00  0.00    -0.065 OA 
BRANCH   4   5
HETATM    5  C   UNL     1      -6.229   5.379  67.066  1.00  0.00    -0.031 C  
HETATM    6  O   UNL     1      -6.016   4.422  67.797  1.00  0.00    -0.025 OA 
BRANCH   5   7
HETATM    7  C   UNL     1      -5.613   6.742  67.238  1.00  0.00    -0.013 C  
BRANCH   7   8
HETATM    8  C   UNL     1      -6.007   7.322  68.597  1.00  0.00    -0.026 C  
BRANCH   8   9
HETATM    9  C   UNL     1      -6.972   8.500  68.500  1.00  0.00    -0.065 C  
BRANCH   9  10
HETATM   10  C   UNL     1      -6.937   9.383  69.718  1.00  0.00    -0.065 C  
HETATM   11  C   UNL     1      -7.481   9.100  70.912  1.00  0.00    -0.136 C  
BRANCH  11  12
HETATM   12  C   UNL     1      -8.298   7.880  71.238  1.00  0.00    -0.120 C  
BRANCH  12  13
HETATM   13  C   UNL     1      -9.681   7.886  70.575  1.00  0.00    -0.174 C  
HETATM   14  C   UNL     1     -10.460   6.568  70.660  1.00  0.00    -0.214 C  
HETATM   15  O   UNL     1     -10.280   5.930  71.920  1.00  0.00    -0.194 OA 
HETATM   16  C   UNL     1     -11.919   6.994  70.537  1.00  0.00    -0.315 C  
HETATM   17  C   UNL     1     -11.992   8.277  71.359  1.00  0.00    -0.299 C  
HETATM   18  H   UNL     1     -10.763   5.113  71.972  1.00  0.00     0.000 HD 
HETATM   19  O   UNL     1     -12.227   7.955  72.734  1.00  0.00    -0.595 OA 
HETATM   20  C   UNL     1     -10.610   8.958  71.213  1.00  0.00    -0.351 C  
HETATM   21  H   UNL     1     -12.273   8.754  73.247  1.00  0.00     0.000 HD 
BRANCH  20  22
HETATM   22  C   UNL     1     -10.550  10.233  70.391  1.00  0.00    -0.212 C  
HETATM   23  C   UNL     1     -11.600  10.931  69.920  1.00  0.00    -0.410 C  
BRANCH  23  24
HETATM   24  C   UNL     1     -11.558  12.171  69.053  1.00  0.00    -0.319 C  
HETATM   25  H   UNL     1     -10.528  13.837  68.992  1.00  0.00     0.000 HD 
HETATM   26  O   UNL     1     -10.554  13.059  69.536  1.00  0.00     0.163 OA 
BRANCH  24  27
HETATM   27  C   UNL     1     -11.266  11.789  67.588  1.00  0.00    -0.281 C  
BRANCH  27  28
HETATM   28  O   UNL     1     -11.748  10.469  67.288  1.00  0.00    -0.217 OA 
BRANCH  28  29
HETATM   29  C   UNL     1     -10.781   9.606  66.835  1.00  0.00    -0.115 A  
HETATM   30  C   UNL     1     -10.848   8.216  66.958  1.00  0.00    -0.086 A  
HETATM   31  C   UNL     1      -9.822   7.413  66.454  1.00  0.00    -0.137 A  
HETATM   32  C   UNL     1      -8.729   7.996  65.818  1.00  0.00    -0.175 A  
HETATM   33  C   UNL     1      -8.650   9.386  65.670  1.00  0.00    -0.159 A  
HETATM   34  C   UNL     1      -7.466  10.019  64.982  1.00  0.00    -0.139 C  
HETATM   35  C   UNL     1      -9.693  10.185  66.174  1.00  0.00    -0.275 A  
HETATM   36  F   UNL     1      -6.521   9.115  64.591  1.00  0.00    -0.071 F  
HETATM   37  F   UNL     1      -6.813  10.911  65.777  1.00  0.00    -0.129 F  
HETATM   38  F   UNL     1      -7.813  10.700  63.856  1.00  0.00    -0.131 F  
ENDBRANCH  28  29
ENDBRANCH  27  28
ENDBRANCH  24  27
ENDBRANCH  23  24
ENDBRANCH  20  22
ENDBRANCH  12  13
ENDBRANCH  11  12
ENDBRANCH   9  10
ENDBRANCH   8   9
ENDBRANCH   7   8
ENDBRANCH   5   7
ENDBRANCH   4   5
ENDBRANCH   2   4
TORSDOF 13
ENDMDL
MODEL      384
REMARK 921   NORMALIZED FREE ENERGY PREDICTED BY IDOCK:   -3.12 KCAL/MOL
REMARK 922        TOTAL FREE ENERGY PREDICTED BY IDOCK:   -7.72 KCAL/MOL
REMARK 923 INTER-LIGAND FREE ENERGY PREDICTED BY IDOCK:   -6.42 KCAL/MOL
REMARK 924 INTRA-LIGAND FREE ENERGY PREDICTED BY IDOCK:   -1.29 KCAL/MOL
REMARK 927      BINDING AFFINITY PREDICTED BY RF-SCORE:    0.00 PKD
ROOT
HETATM    1  C   UNL     1     -12.325   8.059  72.616  1.00  0.00    -0.165 C  
HETATM    2  C   UNL     1     -12.084   8.272  71.126  1.00  0.00    -0.252 C  
HETATM    3  C   UNL     1     -12.234   9.745  70.760  1.00  0.00    -0.342 C  
ENDROOT
BRANCH   2   4
HETATM    4  O   UNL     1     -10.739   7.879  70.801  1.00  0.00    -0.216 OA 
BRANCH   4   5
HETATM    5  C   UNL     1      -9.768   8.712  71.271  1.00  0.00    -0.237 C  
HETATM    6  O   UNL     1      -9.555   8.945  72.453  1.00  0.00    -0.278 OA 
BRANCH   5   7
HETATM    7  C   UNL     1      -9.031   9.354  70.125  1.00  0.00    -0.256 C  
BRANCH   7   8
HETATM    8  C   UNL     1      -7.615   9.728  70.563  1.00  0.00    -0.110 C  
BRANCH   8   9
HETATM    9  C   UNL     1      -6.607   8.595  70.400  1.00  0.00    -0.037 C  
BRANCH   9  10
HETATM   10  C   UNL     1      -7.252   7.291  70.017  1.00  0.00    -0.078 C  
HETATM   11  C   UNL     1      -6.835   6.460  69.049  1.00  0.00    -0.066 C  
BRANCH  11  12
HETATM   12  C   UNL     1      -5.687   6.712  68.110  1.00  0.00    -0.012 C  
BRANCH  12  13
HETATM   13  C   UNL     1      -6.054   6.490  66.637  1.00  0.00    -0.033 C  
HETATM   14  C   UNL     1      -5.576   5.166  66.029  1.00  0.00    -0.017 C  
HETATM   15  O   UNL     1      -5.682   4.091  66.957  1.00  0.00    -0.021 OA 
HETATM   16  C   UNL     1      -6.548   4.914  64.883  1.00  0.00    -0.043 C  
HETATM   17  C   UNL     1      -7.897   5.348  65.449  1.00  0.00    -0.095 C  
HETATM   18  H   UNL     1      -5.385   3.271  66.580  1.00  0.00     0.000 HD 
HETATM   19  O   UNL     1      -8.492   4.259  66.162  1.00  0.00    -0.112 OA 
HETATM   20  C   UNL     1      -7.595   6.508  66.429  1.00  0.00    -0.090 C  
HETATM   21  H   UNL     1      -9.332   4.529  66.515  1.00  0.00     0.000 HD 
BRANCH  20  22
HETATM   22  C   UNL     1      -8.033   7.900  66.009  1.00  0.00    -0.103 C  
HETATM   23  C   UNL     1      -7.267   9.006  65.987  1.00  0.00    -0.093 C  
BRANCH  23  24
HETATM   24  C   UNL     1      -7.702  10.410  65.625  1.00  0.00    -0.150 C  
HETATM   25  H   UNL     1      -8.055  11.418  63.981  1.00  0.00     0.000 HD 
HETATM   26  O   UNL     1      -7.782  10.536  64.209  1.00  0.00    -0.085 OA 
BRANCH  24  27
HETATM   27  C   UNL     1      -9.069  10.729  66.263  1.00  0.00    -0.175 C  
BRANCH  27  28
HETATM   28  O   UNL     1      -9.981  11.272  65.294  1.00  0.00    -0.227 OA 
BRANCH  28  29
HETATM   29  C   UNL     1     -10.367  12.564  65.547  1.00  0.00    -0.280 A  
HETATM   30  C   UNL     1     -10.416  13.573  64.580  1.00  0.00    -0.439 A  
HETATM   31  C   UNL     1     -10.835  14.860  64.925  1.00  0.00    -0.431 A  
HETATM   32  C   UNL     1     -11.215  15.143  66.235  1.00  0.00    -0.273 A  
HETATM   33  C   UNL     1     -11.188  14.143  67.215  1.00  0.00    -0.330 A  
HETATM   34  C   UNL     1     -11.598  14.448  68.634  1.00  0.00    -0.314 C  
HETATM   35  C   UNL     1     -10.772  12.848  66.855  1.00  0.00    -0.272 A  
HETATM   36  F   UNL     1     -11.931  15.757  68.831  1.00  0.00    -0.370 F  
HETATM   37  F   UNL     1     -10.611  14.181  69.533  1.00  0.00    -0.216 F  
HETATM   38  F   UNL     1     -12.680  13.728  69.036  1.00  0.00    -0.206 F  
ENDBRANCH  28  29
ENDBRANCH  27  28
ENDBRANCH  24  27
ENDBRANCH  23  24
ENDBRANCH  20  22
ENDBRANCH  12  13
ENDBRANCH  11  12
ENDBRANCH   9  10
ENDBRANCH   8   9
ENDBRANCH   7   8
ENDBRANCH   5   7
ENDBRANCH   4   5
ENDBRANCH   2   4
TORSDOF 13
ENDMDL
MODEL      385
REMARK 921   NORMALIZED FREE ENERGY PREDICTED BY IDOCK:   -3.09 KCAL/MOL
REMARK 922        TOTAL FREE ENERGY PREDICTED BY IDOCK:   -7.65 KCAL/MOL
REMARK 923 INTER-LIGAND FREE ENERGY PREDICTED BY IDOCK:   -7.61 KCAL/MOL
REMARK 924 INTRA-LIGAND FREE ENERGY PREDICTED BY IDOCK:   -0.04 KCAL/MOL
REMARK 927      BINDING AFFINITY PREDICTED BY RF-SCORE:    0.00 PKD
ROOT
HETATM    1  C   UNL     1     -10.705   2.814  73.038  1.00  0.00    -0.227 C  
HETATM    2  C   UNL     1     -10.187   4.248  73.025  1.00  0.00    -0.166 C  
HETATM    3  C   UNL     1      -9.603   4.599  71.660  1.00  0.00    -0.221 C  
ENDROOT
BRANCH   2   4
HETATM    4  O   UNL     1     -11.279   5.151  73.275  1.00  0.00    -0.308 OA 
BRANCH   4   5
HETATM    5  C   UNL     1     -11.028   6.455  72.966  1.00  0.00    -0.238 C  
HETATM    6  O   UNL     1     -10.519   7.270  73.723  1.00  0.00    -0.370 OA 
BRANCH   5   7
HETATM    7  C   UNL     1     -11.522   6.767  71.578  1.00  0.00    -0.329 C  
BRANCH   7   8
HETATM    8  C   UNL     1     -12.901   7.422  71.653  1.00  0.00    -0.406 C  
BRANCH   8   9
HETATM    9  C   UNL     1     -12.908   8.882  71.211  1.00  0.00    -0.272 C  
BRANCH   9  10
HETATM   10  C   UNL     1     -11.554   9.529  71.316  1.00  0.00    -0.445 C  
HETATM   11  C   UNL     1     -10.702   9.744  70.301  1.00  0.00    -0.358 C  
BRANCH  11  12
HETATM   12  C   UNL     1     -10.907   9.310  68.876  1.00  0.00    -0.128 C  
BRANCH  12  13
HETATM   13  C   UNL     1      -9.593   8.999  68.147  1.00  0.00    -0.164 C  
HETATM   14  C   UNL     1      -9.505   7.608  67.508  1.00  0.00    -0.140 C  
HETATM   15  O   UNL     1     -10.746   7.212  66.934  1.00  0.00    -0.389 OA 
HETATM   16  C   UNL     1      -8.485   7.781  66.389  1.00  0.00    -0.136 C  
HETATM   17  C   UNL     1      -8.816   9.151  65.806  1.00  0.00    -0.175 C  
HETATM   18  H   UNL     1     -10.691   6.350  66.538  1.00  0.00     0.000 HD 
HETATM   19  O   UNL     1      -9.843   9.020  64.818  1.00  0.00    -0.129 OA 
HETATM   20  C   UNL     1      -9.337  10.004  66.988  1.00  0.00    -0.180 C  
HETATM   21  H   UNL     1     -10.050   9.873  64.455  1.00  0.00     0.000 HD 
BRANCH  20  22
HETATM   22  C   UNL     1      -8.441  11.126  67.480  1.00  0.00    -0.126 C  
HETATM   23  C   UNL     1      -8.813  12.173  68.240  1.00  0.00    -0.182 C  
BRANCH  23  24
HETATM   24  C   UNL     1      -7.945  13.328  68.691  1.00  0.00    -0.042 C  
HETATM   25  H   UNL     1      -6.202  13.552  69.558  1.00  0.00     0.000 HD 
HETATM   26  O   UNL     1      -6.746  12.827  69.274  1.00  0.00    -0.107 OA 
BRANCH  24  27
HETATM   27  C   UNL     1      -7.611  14.245  67.497  1.00  0.00    -0.184 C  
BRANCH  27  28
HETATM   28  O   UNL     1      -8.777  14.949  67.040  1.00  0.00    -0.210 OA 
BRANCH  28  29
HETATM   29  C   UNL     1      -9.535  15.494  68.045  1.00  0.00    -0.194 A  
HETATM   30  C   UNL     1      -9.447  16.825  68.463  1.00  0.00    -0.245 A  
HETATM   31  C   UNL     1     -10.270  17.298  69.488  1.00  0.00    -0.046 A  
HETATM   32  C   UNL     1     -11.190  16.445  70.094  1.00  0.00    -0.260 A  
HETATM   33  C   UNL     1     -11.305  15.113  69.680  1.00  0.00    -0.302 A  
HETATM   34  C   UNL     1     -12.300  14.188  70.337  1.00  0.00    -0.359 C  
HETATM   35  C   UNL     1     -10.477  14.649  68.641  1.00  0.00    -0.244 A  
HETATM   36  F   UNL     1     -12.994  14.775  71.354  1.00  0.00    -0.331 F  
HETATM   37  F   UNL     1     -11.711  13.087  70.880  1.00  0.00    -0.265 F  
HETATM   38  F   UNL     1     -13.240  13.724  69.469  1.00  0.00     0.268 F  
ENDBRANCH  28  29
ENDBRANCH  27  28
ENDBRANCH  24  27
ENDBRANCH  23  24
ENDBRANCH  20  22
ENDBRANCH  12  13
ENDBRANCH  11  12
ENDBRANCH   9  10
ENDBRANCH   8   9
ENDBRANCH   7   8
ENDBRANCH   5   7
ENDBRANCH   4   5
ENDBRANCH   2   4
TORSDOF 13
ENDMDL
MODEL      386
REMARK 921   NORMALIZED FREE ENERGY PREDICTED BY IDOCK:   -3.08 KCAL/MOL
REMARK 922        TOTAL FREE ENERGY PREDICTED BY IDOCK:   -7.64 KCAL/MOL
REMARK 923 INTER-LIGAND FREE ENERGY PREDICTED BY IDOCK:   -4.92 KCAL/MOL
REMARK 924 INTRA-LIGAND FREE ENERGY PREDICTED BY IDOCK:   -2.72 KCAL/MOL
REMARK 927      BINDING AFFINITY PREDICTED BY RF-SCORE:    0.00 PKD
ROOT
HETATM    1  C   UNL     1      -6.077  12.344  67.761  1.00  0.00    -0.111 C  
HETATM    2  C   UNL     1      -5.578  11.109  67.018  1.00  0.00    -0.076 C  
HETATM    3  C   UNL     1      -5.551   9.896  67.943  1.00  0.00    -0.039 C  
ENDROOT
BRANCH   2   4
HETATM    4  O   UNL     1      -6.479  10.809  65.936  1.00  0.00    -0.125 OA 
BRANCH   4   5
HETATM    5  C   UNL     1      -5.875  10.433  64.774  1.00  0.00    -0.129 C  
HETATM    6  O   UNL     1      -5.126  11.138  64.112  1.00  0.00    -0.224 OA 
BRANCH   5   7
HETATM    7  C   UNL     1      -6.308   9.044  64.386  1.00  0.00    -0.071 C  
BRANCH   7   8
HETATM    8  C   UNL     1      -7.834   8.951  64.407  1.00  0.00    -0.128 C  
BRANCH   8   9
HETATM    9  C   UNL     1      -8.358   7.659  65.028  1.00  0.00    -0.078 C  
BRANCH   9  10
HETATM   10  C   UNL     1      -9.686   7.838  65.712  1.00  0.00     0.398 C  
HETATM   11  C   UNL     1      -9.878   8.361  66.934  1.00  0.00    -0.313 C  
BRANCH  11  12
HETATM   12  C   UNL     1      -8.797   8.797  67.883  1.00  0.00    -0.136 C  
BRANCH  12  13
HETATM   13  C   UNL     1      -9.254   9.893  68.854  1.00  0.00    -0.160 C  
HETATM   14  C   UNL     1      -9.212  11.323  68.303  1.00  0.00    -0.176 C  
HETATM   15  O   UNL     1      -9.610  11.374  66.937  1.00  0.00    -0.181 OA 
HETATM   16  C   UNL     1     -10.246  12.071  69.137  1.00  0.00     0.127 C  
HETATM   17  C   UNL     1     -11.386  11.068  69.284  1.00  0.00    -0.282 C  
HETATM   18  H   UNL     1      -9.584  12.260  66.595  1.00  0.00     0.000 HD 
HETATM   19  O   UNL     1     -12.261  11.165  68.155  1.00  0.00    -0.708 OA 
HETATM   20  C   UNL     1     -10.724   9.669  69.310  1.00  0.00    -0.246 C  
HETATM   21  H   UNL     1     -12.972  10.540  68.246  1.00  0.00     0.000 HD 
BRANCH  20  22
HETATM   22  C   UNL     1     -10.736   8.922  70.632  1.00  0.00    -0.282 C  
HETATM   23  C   UNL     1      -9.659   8.535  71.341  1.00  0.00    -0.282 C  
BRANCH  23  24
HETATM   24  C   UNL     1      -9.653   7.743  72.631  1.00  0.00    -0.202 C  
HETATM   25  H   UNL     1     -10.964   7.206  73.985  1.00  0.00     0.000 HD 
HETATM   26  O   UNL     1     -10.968   7.703  73.175  1.00  0.00    -0.392 OA 
BRANCH  24  27
HETATM   27  C   UNL     1      -9.141   6.311  72.377  1.00  0.00    -0.138 C  
BRANCH  27  28
HETATM   28  O   UNL     1      -9.993   5.610  71.456  1.00  0.00    -0.170 OA 
BRANCH  28  29
HETATM   29  C   UNL     1      -9.325   4.980  70.437  1.00  0.00    -0.158 A  
HETATM   30  C   UNL     1      -9.700   5.045  69.092  1.00  0.00    -0.243 A  
HETATM   31  C   UNL     1      -8.950   4.382  68.118  1.00  0.00    -0.146 A  
HETATM   32  C   UNL     1      -7.818   3.657  68.482  1.00  0.00    -0.059 A  
HETATM   33  C   UNL     1      -7.416   3.592  69.822  1.00  0.00    -0.045 A  
HETATM   34  C   UNL     1      -6.190   2.806  70.217  1.00  0.00    -0.024 C  
HETATM   35  C   UNL     1      -8.173   4.270  70.794  1.00  0.00    -0.079 A  
HETATM   36  F   UNL     1      -5.593   2.170  69.168  1.00  0.00    -0.017 F  
HETATM   37  F   UNL     1      -6.464   1.833  71.129  1.00  0.00    -0.020 F  
HETATM   38  F   UNL     1      -5.224   3.584  70.776  1.00  0.00    -0.003 F  
ENDBRANCH  28  29
ENDBRANCH  27  28
ENDBRANCH  24  27
ENDBRANCH  23  24
ENDBRANCH  20  22
ENDBRANCH  12  13
ENDBRANCH  11  12
ENDBRANCH   9  10
ENDBRANCH   8   9
ENDBRANCH   7   8
ENDBRANCH   5   7
ENDBRANCH   4   5
ENDBRANCH   2   4
TORSDOF 13
ENDMDL
MODEL      387
REMARK 921   NORMALIZED FREE ENERGY PREDICTED BY IDOCK:   -3.06 KCAL/MOL
REMARK 922        TOTAL FREE ENERGY PREDICTED BY IDOCK:   -7.60 KCAL/MOL
REMARK 923 INTER-LIGAND FREE ENERGY PREDICTED BY IDOCK:   -7.14 KCAL/MOL
REMARK 924 INTRA-LIGAND FREE ENERGY PREDICTED BY IDOCK:   -0.47 KCAL/MOL
REMARK 927      BINDING AFFINITY PREDICTED BY RF-SCORE:    0.00 PKD
ROOT
HETATM    1  C   UNL     1      -6.820   5.973  63.583  1.00  0.00    -0.038 C  
HETATM    2  C   UNL     1      -6.969   5.221  64.901  1.00  0.00    -0.053 C  
HETATM    3  C   UNL     1      -5.616   4.713  65.388  1.00  0.00    -0.014 C  
ENDROOT
BRANCH   2   4
HETATM    4  O   UNL     1      -7.483   6.116  65.903  1.00  0.00    -0.078 OA 
BRANCH   4   5
HETATM    5  C   UNL     1      -6.723   6.214  67.030  1.00  0.00    -0.061 C  
HETATM    6  O   UNL     1      -6.642   5.356  67.899  1.00  0.00    -0.046 OA 
BRANCH   5   7
HETATM    7  C   UNL     1      -6.041   7.555  67.085  1.00  0.00    -0.051 C  
BRANCH   7   8
HETATM    8  C   UNL     1      -6.248   8.186  68.462  1.00  0.00    -0.049 C  
BRANCH   8   9
HETATM    9  C   UNL     1      -7.223   9.360  68.455  1.00  0.00    -0.076 C  
BRANCH   9  10
HETATM   10  C   UNL     1      -7.041  10.276  69.634  1.00  0.00    -0.125 C  
HETATM   11  C   UNL     1      -7.024   9.907  70.924  1.00  0.00     0.077 C  
BRANCH  11  12
HETATM   12  C   UNL     1      -7.263   8.515  71.442  1.00  0.00    -0.096 C  
BRANCH  12  13
HETATM   13  C   UNL     1      -8.594   7.916  70.967  1.00  0.00    -0.135 C  
HETATM   14  C   UNL     1      -8.725   6.396  71.119  1.00  0.00    -0.135 C  
HETATM   15  O   UNL     1      -8.128   5.933  72.326  1.00  0.00    -0.106 OA 
HETATM   16  C   UNL     1     -10.229   6.163  71.201  1.00  0.00    -0.245 C  
HETATM   17  C   UNL     1     -10.729   7.320  72.060  1.00  0.00    -0.211 C  
HETATM   18  H   UNL     1      -8.210   4.991  72.419  1.00  0.00     0.000 HD 
HETATM   19  O   UNL     1     -10.624   6.972  73.445  1.00  0.00    -0.306 OA 
HETATM   20  C   UNL     1      -9.795   8.516  71.751  1.00  0.00    -0.339 C  
HETATM   21  H   UNL     1     -10.935   7.693  73.980  1.00  0.00     0.000 HD 
BRANCH  20  22
HETATM   22  C   UNL     1     -10.388   9.670  70.963  1.00  0.00    -0.292 C  
HETATM   23  C   UNL     1     -11.639   9.745  70.472  1.00  0.00    -0.365 C  
BRANCH  23  24
HETATM   24  C   UNL     1     -12.227  10.862  69.637  1.00  0.00    -0.283 C  
HETATM   25  H   UNL     1     -12.343  12.816  69.743  1.00  0.00     0.000 HD 
HETATM   26  O   UNL     1     -11.973  12.114  70.267  1.00  0.00    -0.348 OA 
BRANCH  24  27
HETATM   27  C   UNL     1     -11.620  10.849  68.220  1.00  0.00    -0.262 C  
BRANCH  27  28
HETATM   28  O   UNL     1     -10.315  11.451  68.208  1.00  0.00    -0.180 OA 
BRANCH  28  29
HETATM   29  C   UNL     1     -10.229  12.595  67.455  1.00  0.00    -0.215 A  
HETATM   30  C   UNL     1      -9.135  13.464  67.468  1.00  0.00    -0.215 A  
HETATM   31  C   UNL     1      -9.129  14.601  66.657  1.00  0.00    -0.285 A  
HETATM   32  C   UNL     1     -10.212  14.870  65.823  1.00  0.00    -0.358 A  
HETATM   33  C   UNL     1     -11.311  14.004  65.785  1.00  0.00    -0.312 A  
HETATM   34  C   UNL     1     -12.486  14.295  64.884  1.00  0.00    -0.390 C  
HETATM   35  C   UNL     1     -11.304  12.857  66.600  1.00  0.00    -0.361 A  
HETATM   36  F   UNL     1     -12.361  15.465  64.193  1.00  0.00    -0.492 F  
HETATM   37  F   UNL     1     -13.659  14.396  65.569  1.00  0.00    -0.351 F  
HETATM   38  F   UNL     1     -12.680  13.330  63.944  1.00  0.00    -0.343 F  
ENDBRANCH  28  29
ENDBRANCH  27  28
ENDBRANCH  24  27
ENDBRANCH  23  24
ENDBRANCH  20  22
ENDBRANCH  12  13
ENDBRANCH  11  12
ENDBRANCH   9  10
ENDBRANCH   8   9
ENDBRANCH   7   8
ENDBRANCH   5   7
ENDBRANCH   4   5
ENDBRANCH   2   4
TORSDOF 13
ENDMDL
MODEL      388
REMARK 921   NORMALIZED FREE ENERGY PREDICTED BY IDOCK:   -3.01 KCAL/MOL
REMARK 922        TOTAL FREE ENERGY PREDICTED BY IDOCK:   -7.52 KCAL/MOL
REMARK 923 INTER-LIGAND FREE ENERGY PREDICTED BY IDOCK:   -5.84 KCAL/MOL
REMARK 924 INTRA-LIGAND FREE ENERGY PREDICTED BY IDOCK:   -1.68 KCAL/MOL
REMARK 927      BINDING AFFINITY PREDICTED BY RF-SCORE:    0.00 PKD
ROOT
HETATM    1  C   UNL     1      -6.575   5.052  67.609  1.00  0.00    -0.050 C  
HETATM    2  C   UNL     1      -6.062   3.650  67.921  1.00  0.00    -0.032 C  
HETATM    3  C   UNL     1      -5.530   3.574  69.348  1.00  0.00    -0.016 C  
ENDROOT
BRANCH   2   4
HETATM    4  O   UNL     1      -7.148   2.712  67.813  1.00  0.00    -0.048 OA 
BRANCH   4   5
HETATM    5  C   UNL     1      -8.372   3.209  68.152  1.00  0.00    -0.079 C  
HETATM    6  O   UNL     1      -9.099   3.852  67.407  1.00  0.00    -0.131 OA 
BRANCH   5   7
HETATM    7  C   UNL     1      -8.677   2.906  69.594  1.00  0.00    -0.131 C  
BRANCH   7   8
HETATM    8  C   UNL     1      -9.463   4.063  70.212  1.00  0.00    -0.255 C  
BRANCH   8   9
HETATM    9  C   UNL     1      -9.317   4.158  71.728  1.00  0.00    -0.194 C  
BRANCH   9  10
HETATM   10  C   UNL     1     -10.503   3.598  72.465  1.00  0.00    -0.154 C  
HETATM   11  C   UNL     1     -11.427   4.311  73.129  1.00  0.00    -0.190 C  
BRANCH  11  12
HETATM   12  C   UNL     1     -11.409   5.801  73.329  1.00  0.00    -0.100 C  
BRANCH  12  13
HETATM   13  C   UNL     1     -11.660   6.585  72.034  1.00  0.00    -0.354 C  
HETATM   14  C   UNL     1     -13.088   6.508  71.482  1.00  0.00     0.133 C  
HETATM   15  O   UNL     1     -14.058   6.529  72.523  1.00  0.00    -0.466 OA 
HETATM   16  C   UNL     1     -13.233   7.782  70.658  1.00  0.00     0.455 C  
HETATM   17  C   UNL     1     -12.520   8.839  71.495  1.00  0.00    -0.326 C  
HETATM   18  H   UNL     1     -14.943   6.482  72.181  1.00  0.00     0.000 HD 
HETATM   19  O   UNL     1     -13.428   9.386  72.457  1.00  0.00    -0.590 OA 
HETATM   20  C   UNL     1     -11.371   8.101  72.226  1.00  0.00    -0.429 C  
HETATM   21  H   UNL     1     -12.983  10.043  72.979  1.00  0.00     0.000 HD 
BRANCH  20  22
HETATM   22  C   UNL     1      -9.954   8.407  71.773  1.00  0.00    -0.312 C  
HETATM   23  C   UNL     1      -8.979   7.511  71.536  1.00  0.00    -0.142 C  
BRANCH  23  24
HETATM   24  C   UNL     1      -7.548   7.802  71.139  1.00  0.00    -0.079 C  
HETATM   25  H   UNL     1      -5.859   6.811  71.049  1.00  0.00     0.000 HD 
HETATM   26  O   UNL     1      -6.758   6.627  71.298  1.00  0.00    -0.055 OA 
BRANCH  24  27
HETATM   27  C   UNL     1      -7.485   8.289  69.677  1.00  0.00    -0.081 C  
BRANCH  27  28
HETATM   28  O   UNL     1      -7.525   9.724  69.605  1.00  0.00    -0.085 OA 
BRANCH  28  29
HETATM   29  C   UNL     1      -8.186  10.215  68.508  1.00  0.00    -0.111 A  
HETATM   30  C   UNL     1      -7.679  10.184  67.206  1.00  0.00    -0.095 A  
HETATM   31  C   UNL     1      -8.429  10.696  66.145  1.00  0.00    -0.159 A  
HETATM   32  C   UNL     1      -9.693  11.233  66.378  1.00  0.00    -0.238 A  
HETATM   33  C   UNL     1     -10.226  11.259  67.673  1.00  0.00    -0.206 A  
HETATM   34  C   UNL     1     -11.594  11.842  67.927  1.00  0.00    -0.307 C  
HETATM   35  C   UNL     1      -9.465  10.734  68.733  1.00  0.00    -0.187 A  
HETATM   36  F   UNL     1     -12.183  12.350  66.806  1.00  0.00    -0.413 F  
HETATM   37  F   UNL     1     -11.568  12.866  68.825  1.00  0.00    -0.267 F  
HETATM   38  F   UNL     1     -12.472  10.928  68.423  1.00  0.00    -0.153 F  
ENDBRANCH  28  29
ENDBRANCH  27  28
ENDBRANCH  24  27
ENDBRANCH  23  24
ENDBRANCH  20  22
ENDBRANCH  12  13
ENDBRANCH  11  12
ENDBRANCH   9  10
ENDBRANCH   8   9
ENDBRANCH   7   8
ENDBRANCH   5   7
ENDBRANCH   4   5
ENDBRANCH   2   4
TORSDOF 13
ENDMDL
MODEL      389
REMARK 921   NORMALIZED FREE ENERGY PREDICTED BY IDOCK:   -3.00 KCAL/MOL
REMARK 922        TOTAL FREE ENERGY PREDICTED BY IDOCK:   -7.51 KCAL/MOL
REMARK 923 INTER-LIGAND FREE ENERGY PREDICTED BY IDOCK:   -5.28 KCAL/MOL
REMARK 924 INTRA-LIGAND FREE ENERGY PREDICTED BY IDOCK:   -2.22 KCAL/MOL
REMARK 927      BINDING AFFINITY PREDICTED BY RF-SCORE:    0.00 PKD
ROOT
HETATM    1  C   UNL     1      -6.505  11.427  65.956  1.00  0.00     0.200 C  
HETATM    2  C   UNL     1      -6.205   9.974  65.603  1.00  0.00    -0.088 C  
HETATM    3  C   UNL     1      -5.159   9.393  66.549  1.00  0.00    -0.043 C  
ENDROOT
BRANCH   2   4
HETATM    4  O   UNL     1      -7.403   9.192  65.749  1.00  0.00    -0.088 OA 
BRANCH   4   5
HETATM    5  C   UNL     1      -7.874   8.641  64.594  1.00  0.00    -0.129 C  
HETATM    6  O   UNL     1      -8.276   9.275  63.627  1.00  0.00    -0.146 OA 
BRANCH   5   7
HETATM    7  C   UNL     1      -7.884   7.139  64.697  1.00  0.00    -0.123 C  
BRANCH   7   8
HETATM    8  C   UNL     1      -8.680   6.710  65.930  1.00  0.00    -0.147 C  
BRANCH   8   9
HETATM    9  C   UNL     1      -7.866   6.736  67.221  1.00  0.00    -0.110 C  
BRANCH   9  10
HETATM   10  C   UNL     1      -8.725   6.869  68.449  1.00  0.00    -0.124 C  
HETATM   11  C   UNL     1      -9.320   7.993  68.876  1.00  0.00    -0.150 C  
BRANCH  11  12
HETATM   12  C   UNL     1      -9.179   9.354  68.251  1.00  0.00    -0.133 C  
BRANCH  12  13
HETATM   13  C   UNL     1      -9.897  10.456  69.041  1.00  0.00    -0.222 C  
HETATM   14  C   UNL     1      -9.496  11.892  68.684  1.00  0.00    -0.080 C  
HETATM   15  O   UNL     1      -9.280  12.047  67.285  1.00  0.00    -0.174 OA 
HETATM   16  C   UNL     1     -10.710  12.724  69.082  1.00  0.00    -0.061 C  
HETATM   17  C   UNL     1     -11.895  11.860  68.658  1.00  0.00    -0.308 C  
HETATM   18  H   UNL     1      -9.032  12.937  67.064  1.00  0.00     0.000 HD 
HETATM   19  O   UNL     1     -12.205  12.109  67.283  1.00  0.00    -0.496 OA 
HETATM   20  C   UNL     1     -11.437  10.392  68.831  1.00  0.00    -0.251 C  
HETATM   21  H   UNL     1     -12.943  11.571  67.019  1.00  0.00     0.000 HD 
BRANCH  20  22
HETATM   22  C   UNL     1     -12.069   9.598  69.961  1.00  0.00     0.143 C  
HETATM   23  C   UNL     1     -11.472   9.227  71.108  1.00  0.00    -0.403 C  
BRANCH  23  24
HETATM   24  C   UNL     1     -12.069   8.389  72.218  1.00  0.00    -0.392 C  
HETATM   25  H   UNL     1     -13.234   6.818  72.354  1.00  0.00     0.000 HD 
HETATM   26  O   UNL     1     -12.858   7.344  71.657  1.00  0.00    -0.344 OA 
BRANCH  24  27
HETATM   27  C   UNL     1     -10.954   7.795  73.101  1.00  0.00    -0.310 C  
BRANCH  27  28
HETATM   28  O   UNL     1     -10.988   6.358  73.086  1.00  0.00    -0.257 OA 
BRANCH  28  29
HETATM   29  C   UNL     1      -9.991   5.779  72.341  1.00  0.00    -0.169 A  
HETATM   30  C   UNL     1     -10.143   4.601  71.605  1.00  0.00    -0.258 A  
HETATM   31  C   UNL     1      -9.075   4.090  70.864  1.00  0.00    -0.178 A  
HETATM   32  C   UNL     1      -7.853   4.758  70.849  1.00  0.00    -0.081 A  
HETATM   33  C   UNL     1      -7.685   5.948  71.567  1.00  0.00    -0.101 A  
HETATM   34  C   UNL     1      -6.361   6.672  71.553  1.00  0.00    -0.042 C  
HETATM   35  C   UNL     1      -8.769   6.459  72.304  1.00  0.00    -0.131 A  
HETATM   36  F   UNL     1      -5.399   6.027  70.830  1.00  0.00    -0.012 F  
HETATM   37  F   UNL     1      -5.838   6.833  72.800  1.00  0.00    -0.040 F  
HETATM   38  F   UNL     1      -6.449   7.920  71.017  1.00  0.00    -0.037 F  
ENDBRANCH  28  29
ENDBRANCH  27  28
ENDBRANCH  24  27
ENDBRANCH  23  24
ENDBRANCH  20  22
ENDBRANCH  12  13
ENDBRANCH  11  12
ENDBRANCH   9  10
ENDBRANCH   8   9
ENDBRANCH   7   8
ENDBRANCH   5   7
ENDBRANCH   4   5
ENDBRANCH   2   4
TORSDOF 13
ENDMDL
MODEL      390
REMARK 921   NORMALIZED FREE ENERGY PREDICTED BY IDOCK:   -2.93 KCAL/MOL
REMARK 922        TOTAL FREE ENERGY PREDICTED BY IDOCK:   -7.39 KCAL/MOL
REMARK 923 INTER-LIGAND FREE ENERGY PREDICTED BY IDOCK:   -7.06 KCAL/MOL
REMARK 924 INTRA-LIGAND FREE ENERGY PREDICTED BY IDOCK:   -0.32 KCAL/MOL
REMARK 927      BINDING AFFINITY PREDICTED BY RF-SCORE:    0.00 PKD
ROOT
HETATM    1  C   UNL     1     -10.772   4.941  67.402  1.00  0.00     0.195 C  
HETATM    2  C   UNL     1     -10.648   6.411  67.016  1.00  0.00    -0.327 C  
HETATM    3  C   UNL     1     -11.354   7.298  68.036  1.00  0.00     0.362 C  
ENDROOT
BRANCH   2   4
HETATM    4  O   UNL     1      -9.258   6.783  67.006  1.00  0.00    -0.129 OA 
BRANCH   4   5
HETATM    5  C   UNL     1      -9.024   8.123  66.917  1.00  0.00    -0.140 C  
HETATM    6  O   UNL     1      -9.853   8.961  66.589  1.00  0.00    -0.215 OA 
BRANCH   5   7
HETATM    7  C   UNL     1      -7.580   8.422  67.223  1.00  0.00    -0.097 C  
BRANCH   7   8
HETATM    8  C   UNL     1      -6.818   7.117  67.455  1.00  0.00    -0.070 C  
BRANCH   8   9
HETATM    9  C   UNL     1      -5.869   7.169  68.649  1.00  0.00    -0.022 C  
BRANCH   9  10
HETATM   10  C   UNL     1      -6.211   6.156  69.708  1.00  0.00    -0.027 C  
HETATM   11  C   UNL     1      -7.277   6.198  70.523  1.00  0.00    -0.083 C  
BRANCH  11  12
HETATM   12  C   UNL     1      -8.292   7.306  70.586  1.00  0.00    -0.128 C  
BRANCH  12  13
HETATM   13  C   UNL     1      -9.623   6.868  71.211  1.00  0.00    -0.165 C  
HETATM   14  C   UNL     1      -9.572   5.576  72.035  1.00  0.00    -0.151 C  
HETATM   15  O   UNL     1      -8.368   5.478  72.788  1.00  0.00    -0.113 OA 
HETATM   16  C   UNL     1     -10.740   5.711  73.004  1.00  0.00    -0.290 C  
HETATM   17  C   UNL     1     -10.706   7.181  73.410  1.00  0.00    -0.368 C  
HETATM   18  H   UNL     1      -8.336   4.677  73.299  1.00  0.00     0.000 HD 
HETATM   19  O   UNL     1      -9.806   7.357  74.509  1.00  0.00    -0.356 OA 
HETATM   20  C   UNL     1     -10.179   7.953  72.176  1.00  0.00    -0.286 C  
HETATM   21  H   UNL     1      -9.784   8.273  74.762  1.00  0.00     0.000 HD 
BRANCH  20  22
HETATM   22  C   UNL     1     -11.171   8.831  71.434  1.00  0.00    -0.362 C  
HETATM   23  C   UNL     1     -10.915   9.586  70.349  1.00  0.00    -0.333 C  
BRANCH  23  24
HETATM   24  C   UNL     1     -11.877  10.508  69.632  1.00  0.00    -0.234 C  
HETATM   25  H   UNL     1     -13.584  11.383  70.032  1.00  0.00     0.000 HD 
HETATM   26  O   UNL     1     -12.980  10.804  70.483  1.00  0.00    -0.299 OA 
BRANCH  24  27
HETATM   27  C   UNL     1     -11.162  11.811  69.219  1.00  0.00    -0.256 C  
BRANCH  27  28
HETATM   28  O   UNL     1     -12.105  12.807  68.790  1.00  0.00    -0.276 OA 
BRANCH  28  29
HETATM   29  C   UNL     1     -11.587  14.075  68.711  1.00  0.00    -0.331 A  
HETATM   30  C   UNL     1     -11.797  15.071  69.669  1.00  0.00    -0.358 A  
HETATM   31  C   UNL     1     -11.219  16.333  69.513  1.00  0.00    -0.308 A  
HETATM   32  C   UNL     1     -10.420  16.602  68.403  1.00  0.00    -0.323 A  
HETATM   33  C   UNL     1     -10.185  15.614  67.440  1.00  0.00    -0.264 A  
HETATM   34  C   UNL     1      -9.322  15.905  66.238  1.00  0.00    -0.322 C  
HETATM   35  C   UNL     1     -10.766  14.344  67.611  1.00  0.00    -0.263 A  
HETATM   36  F   UNL     1      -8.871  17.192  66.194  1.00  0.00    -0.277 F  
HETATM   37  F   UNL     1      -9.978  15.706  65.061  1.00  0.00    -0.334 F  
HETATM   38  F   UNL     1      -8.210  15.123  66.186  1.00  0.00    -0.112 F  
ENDBRANCH  28  29
ENDBRANCH  27  28
ENDBRANCH  24  27
ENDBRANCH  23  24
ENDBRANCH  20  22
ENDBRANCH  12  13
ENDBRANCH  11  12
ENDBRANCH   9  10
ENDBRANCH   8   9
ENDBRANCH   7   8
ENDBRANCH   5   7
ENDBRANCH   4   5
ENDBRANCH   2   4
TORSDOF 13
ENDMDL
MODEL      391
REMARK 921   NORMALIZED FREE ENERGY PREDICTED BY IDOCK:   -2.92 KCAL/MOL
REMARK 922        TOTAL FREE ENERGY PREDICTED BY IDOCK:   -7.36 KCAL/MOL
REMARK 923 INTER-LIGAND FREE ENERGY PREDICTED BY IDOCK:   -5.12 KCAL/MOL
REMARK 924 INTRA-LIGAND FREE ENERGY PREDICTED BY IDOCK:   -2.24 KCAL/MOL
REMARK 927      BINDING AFFINITY PREDICTED BY RF-SCORE:    0.00 PKD
ROOT
HETATM    1  C   UNL     1     -10.411  12.913  67.247  1.00  0.00    -0.236 C  
HETATM    2  C   UNL     1     -11.095  11.559  67.400  1.00  0.00    -0.282 C  
HETATM    3  C   UNL     1     -10.595  10.579  66.344  1.00  0.00    -0.218 C  
ENDROOT
BRANCH   2   4
HETATM    4  O   UNL     1     -10.774  11.009  68.690  1.00  0.00    -0.175 OA 
BRANCH   4   5
HETATM    5  C   UNL     1      -9.513  10.504  68.801  1.00  0.00    -0.180 C  
HETATM    6  O   UNL     1      -8.483  11.145  68.641  1.00  0.00    -0.149 OA 
BRANCH   5   7
HETATM    7  C   UNL     1      -9.565   9.027  69.091  1.00  0.00    -0.161 C  
BRANCH   7   8
HETATM    8  C   UNL     1     -10.335   8.780  70.389  1.00  0.00    -0.230 C  
BRANCH   8   9
HETATM    9  C   UNL     1      -9.549   9.147  71.644  1.00  0.00    -0.226 C  
BRANCH   9  10
HETATM   10  C   UNL     1      -8.137   8.629  71.619  1.00  0.00    -0.183 C  
HETATM   11  C   UNL     1      -7.578   7.822  72.535  1.00  0.00    -0.115 C  
BRANCH  11  12
HETATM   12  C   UNL     1      -8.233   7.344  73.802  1.00  0.00    -0.181 C  
BRANCH  12  13
HETATM   13  C   UNL     1      -8.832   5.937  73.676  1.00  0.00    -0.124 C  
HETATM   14  C   UNL     1     -10.140   5.706  74.442  1.00  0.00    -0.273 C  
HETATM   15  O   UNL     1     -10.990   6.847  74.390  1.00  0.00    -0.231 OA 
HETATM   16  C   UNL     1     -10.812   4.565  73.686  1.00  0.00    -0.371 C  
HETATM   17  C   UNL     1     -10.531   4.886  72.221  1.00  0.00    -0.204 C  
HETATM   18  H   UNL     1     -11.801   6.703  74.865  1.00  0.00     0.000 HD 
HETATM   19  O   UNL     1     -11.535   5.776  71.722  1.00  0.00    -0.236 OA 
HETATM   20  C   UNL     1      -9.152   5.589  72.195  1.00  0.00    -0.152 C  
HETATM   21  H   UNL     1     -11.360   5.976  70.810  1.00  0.00     0.000 HD 
BRANCH  20  22
HETATM   22  C   UNL     1      -7.992   4.813  71.595  1.00  0.00    -0.103 C  
HETATM   23  C   UNL     1      -7.991   4.157  70.420  1.00  0.00    -0.051 C  
BRANCH  23  24
HETATM   24  C   UNL     1      -6.863   3.334  69.836  1.00  0.00    -0.034 C  
HETATM   25  H   UNL     1      -6.668   1.583  68.978  1.00  0.00     0.000 HD 
HETATM   26  O   UNL     1      -7.376   2.100  69.345  1.00  0.00    -0.043 OA 
BRANCH  24  27
HETATM   27  C   UNL     1      -6.168   4.109  68.698  1.00  0.00    -0.032 C  
BRANCH  27  28
HETATM   28  O   UNL     1      -6.807   3.861  67.435  1.00  0.00    -0.052 OA 
BRANCH  28  29
HETATM   29  C   UNL     1      -7.545   4.917  66.960  1.00  0.00    -0.087 A  
HETATM   30  C   UNL     1      -8.880   4.825  66.558  1.00  0.00    -0.111 A  
HETATM   31  C   UNL     1      -9.557   5.957  66.099  1.00  0.00    -0.107 A  
HETATM   32  C   UNL     1      -8.907   7.188  66.049  1.00  0.00    -0.154 A  
HETATM   33  C   UNL     1      -7.574   7.304  66.463  1.00  0.00    -0.092 A  
HETATM   34  C   UNL     1      -6.868   8.636  66.408  1.00  0.00    -0.071 C  
HETATM   35  C   UNL     1      -6.903   6.160  66.930  1.00  0.00    -0.062 A  
HETATM   36  F   UNL     1      -7.638   9.636  65.890  1.00  0.00    -0.096 F  
HETATM   37  F   UNL     1      -5.744   8.602  65.639  1.00  0.00    -0.041 F  
HETATM   38  F   UNL     1      -6.472   9.073  67.634  1.00  0.00    -0.056 F  
ENDBRANCH  28  29
ENDBRANCH  27  28
ENDBRANCH  24  27
ENDBRANCH  23  24
ENDBRANCH  20  22
ENDBRANCH  12  13
ENDBRANCH  11  12
ENDBRANCH   9  10
ENDBRANCH   8   9
ENDBRANCH   7   8
ENDBRANCH   5   7
ENDBRANCH   4   5
ENDBRANCH   2   4
TORSDOF 13
ENDMDL
MODEL      392
REMARK 921   NORMALIZED FREE ENERGY PREDICTED BY IDOCK:   -2.91 KCAL/MOL
REMARK 922        TOTAL FREE ENERGY PREDICTED BY IDOCK:   -7.35 KCAL/MOL
REMARK 923 INTER-LIGAND FREE ENERGY PREDICTED BY IDOCK:   -5.56 KCAL/MOL
REMARK 924 INTRA-LIGAND FREE ENERGY PREDICTED BY IDOCK:   -1.79 KCAL/MOL
REMARK 927      BINDING AFFINITY PREDICTED BY RF-SCORE:    0.00 PKD
ROOT
HETATM    1  C   UNL     1      -7.567   7.370  65.087  1.00  0.00    -0.104 C  
HETATM    2  C   UNL     1      -8.014   6.349  66.129  1.00  0.00    -0.112 C  
HETATM    3  C   UNL     1      -9.521   6.126  66.053  1.00  0.00    -0.046 C  
ENDROOT
BRANCH   2   4
HETATM    4  O   UNL     1      -7.375   5.088  65.863  1.00  0.00    -0.075 OA 
BRANCH   4   5
HETATM    5  C   UNL     1      -6.727   4.538  66.929  1.00  0.00    -0.051 C  
HETATM    6  O   UNL     1      -5.518   4.362  67.001  1.00  0.00    -0.012 OA 
BRANCH   5   7
HETATM    7  C   UNL     1      -7.717   4.120  67.983  1.00  0.00    -0.071 C  
BRANCH   7   8
HETATM    8  C   UNL     1      -7.220   2.860  68.693  1.00  0.00    -0.049 C  
BRANCH   8   9
HETATM    9  C   UNL     1      -6.171   3.139  69.766  1.00  0.00    -0.028 C  
BRANCH   9  10
HETATM   10  C   UNL     1      -6.152   2.094  70.847  1.00  0.00    -0.018 C  
HETATM   11  C   UNL     1      -6.483   2.286  72.134  1.00  0.00    -0.014 C  
BRANCH  11  12
HETATM   12  C   UNL     1      -6.862   3.601  72.757  1.00  0.00    -0.038 C  
BRANCH  12  13
HETATM   13  C   UNL     1      -8.206   4.141  72.252  1.00  0.00    -0.098 C  
HETATM   14  C   UNL     1      -9.449   3.411  72.775  1.00  0.00    -0.107 C  
HETATM   15  O   UNL     1      -9.303   3.032  74.139  1.00  0.00    -0.081 OA 
HETATM   16  C   UNL     1     -10.557   4.453  72.676  1.00  0.00    -0.233 C  
HETATM   17  C   UNL     1      -9.877   5.747  73.111  1.00  0.00    -0.168 C  
HETATM   18  H   UNL     1     -10.074   2.580  74.463  1.00  0.00     0.000 HD 
HETATM   19  O   UNL     1      -9.928   5.863  74.537  1.00  0.00    -0.228 OA 
HETATM   20  C   UNL     1      -8.403   5.631  72.651  1.00  0.00    -0.117 C  
HETATM   21  H   UNL     1      -9.504   6.669  74.808  1.00  0.00     0.000 HD 
BRANCH  20  22
HETATM   22  C   UNL     1      -7.965   6.524  71.503  1.00  0.00    -0.104 C  
HETATM   23  C   UNL     1      -8.654   7.557  70.985  1.00  0.00    -0.132 C  
BRANCH  23  24
HETATM   24  C   UNL     1      -8.257   8.420  69.807  1.00  0.00    -0.119 C  
HETATM   25  H   UNL     1      -7.036   8.280  68.280  1.00  0.00     0.000 HD 
HETATM   26  O   UNL     1      -7.286   7.738  69.020  1.00  0.00    -0.075 OA 
BRANCH  24  27
HETATM   27  C   UNL     1      -9.493   8.757  68.949  1.00  0.00    -0.145 C  
BRANCH  27  28
HETATM   28  O   UNL     1      -9.839  10.147  69.058  1.00  0.00    -0.184 OA 
BRANCH  28  29
HETATM   29  C   UNL     1     -10.891  10.401  69.902  1.00  0.00    -0.298 A  
HETATM   30  C   UNL     1     -11.334  11.682  70.243  1.00  0.00     0.038 A  
HETATM   31  C   UNL     1     -12.424  11.846  71.101  1.00  0.00    -0.365 A  
HETATM   32  C   UNL     1     -13.082  10.730  71.614  1.00  0.00    -0.551 A  
HETATM   33  C   UNL     1     -12.664   9.439  71.273  1.00  0.00    -0.391 A  
HETATM   34  C   UNL     1     -13.375   8.230  71.830  1.00  0.00    -0.352 C  
HETATM   35  C   UNL     1     -11.570   9.285  70.402  1.00  0.00    -0.215 A  
HETATM   36  F   UNL     1     -14.384   8.546  72.693  1.00  0.00    -0.456 F  
HETATM   37  F   UNL     1     -12.542   7.407  72.524  1.00  0.00    -0.178 F  
HETATM   38  F   UNL     1     -13.944   7.462  70.862  1.00  0.00    -0.384 F  
ENDBRANCH  28  29
ENDBRANCH  27  28
ENDBRANCH  24  27
ENDBRANCH  23  24
ENDBRANCH  20  22
ENDBRANCH  12  13
ENDBRANCH  11  12
ENDBRANCH   9  10
ENDBRANCH   8   9
ENDBRANCH   7   8
ENDBRANCH   5   7
ENDBRANCH   4   5
ENDBRANCH   2   4
TORSDOF 13
ENDMDL
MODEL      393
REMARK 921   NORMALIZED FREE ENERGY PREDICTED BY IDOCK:   -2.83 KCAL/MOL
REMARK 922        TOTAL FREE ENERGY PREDICTED BY IDOCK:   -7.21 KCAL/MOL
REMARK 923 INTER-LIGAND FREE ENERGY PREDICTED BY IDOCK:   -5.29 KCAL/MOL
REMARK 924 INTRA-LIGAND FREE ENERGY PREDICTED BY IDOCK:   -1.91 KCAL/MOL
REMARK 927      BINDING AFFINITY PREDICTED BY RF-SCORE:    0.00 PKD
ROOT
HETATM    1  C   UNL     1      -9.909   3.931  64.233  1.00  0.00    -0.185 C  
HETATM    2  C   UNL     1      -9.523   4.310  65.659  1.00  0.00    -0.176 C  
HETATM    3  C   UNL     1     -10.601   5.180  66.297  1.00  0.00    -0.325 C  
ENDROOT
BRANCH   2   4
HETATM    4  O   UNL     1      -9.403   3.115  66.452  1.00  0.00    -0.157 OA 
BRANCH   4   5
HETATM    5  C   UNL     1      -8.136   2.821  66.859  1.00  0.00    -0.077 C  
HETATM    6  O   UNL     1      -7.124   3.009  66.197  1.00  0.00    -0.056 OA 
BRANCH   5   7
HETATM    7  C   UNL     1      -8.161   2.174  68.219  1.00  0.00    -0.072 C  
BRANCH   7   8
HETATM    8  C   UNL     1      -7.731   3.184  69.282  1.00  0.00    -0.048 C  
BRANCH   8   9
HETATM    9  C   UNL     1      -8.821   3.496  70.304  1.00  0.00    -0.151 C  
BRANCH   9  10
HETATM   10  C   UNL     1     -10.020   4.165  69.691  1.00  0.00    -0.081 C  
HETATM   11  C   UNL     1     -10.257   5.486  69.663  1.00  0.00    -0.336 C  
BRANCH  11  12
HETATM   12  C   UNL     1      -9.406   6.545  70.308  1.00  0.00    -0.163 C  
BRANCH  12  13
HETATM   13  C   UNL     1     -10.025   7.116  71.591  1.00  0.00    -0.186 C  
HETATM   14  C   UNL     1      -9.763   6.307  72.867  1.00  0.00    -0.158 C  
HETATM   15  O   UNL     1      -8.443   5.774  72.892  1.00  0.00    -0.122 OA 
HETATM   16  C   UNL     1      -9.893   7.333  73.986  1.00  0.00    -0.264 C  
HETATM   17  C   UNL     1      -9.226   8.580  73.415  1.00  0.00     0.128 C  
HETATM   18  H   UNL     1      -8.281   5.273  73.683  1.00  0.00     0.000 HD 
HETATM   19  O   UNL     1      -7.816   8.527  73.659  1.00  0.00    -0.362 OA 
HETATM   20  C   UNL     1      -9.491   8.545  71.890  1.00  0.00    -0.350 C  
HETATM   21  H   UNL     1      -7.400   9.303  73.303  1.00  0.00     0.000 HD 
BRANCH  20  22
HETATM   22  C   UNL     1     -10.459   9.573  71.332  1.00  0.00    -0.258 C  
HETATM   23  C   UNL     1     -10.982   9.590  70.092  1.00  0.00    -0.302 C  
BRANCH  23  24
HETATM   24  C   UNL     1     -11.902  10.638  69.504  1.00  0.00    -0.273 C  
HETATM   25  H   UNL     1     -12.128  12.580  69.639  1.00  0.00     0.000 HD 
HETATM   26  O   UNL     1     -11.550  11.922  70.008  1.00  0.00    -0.291 OA 
BRANCH  24  27
HETATM   27  C   UNL     1     -11.809  10.629  67.965  1.00  0.00     0.263 C  
BRANCH  27  28
HETATM   28  O   UNL     1     -10.583  10.025  67.522  1.00  0.00    -0.242 OA 
BRANCH  28  29
HETATM   29  C   UNL     1     -10.292  10.247  66.199  1.00  0.00    -0.183 A  
HETATM   30  C   UNL     1     -11.208  10.735  65.264  1.00  0.00     0.357 A  
HETATM   31  C   UNL     1     -10.820  10.943  63.938  1.00  0.00    -0.052 A  
HETATM   32  C   UNL     1      -9.511  10.673  63.544  1.00  0.00    -0.344 A  
HETATM   33  C   UNL     1      -8.574  10.198  64.469  1.00  0.00    -0.198 A  
HETATM   34  C   UNL     1      -7.157   9.903  64.042  1.00  0.00    -0.127 C  
HETATM   35  C   UNL     1      -8.973   9.999  65.803  1.00  0.00    -0.187 A  
HETATM   36  F   UNL     1      -6.940  10.104  62.710  1.00  0.00    -0.114 F  
HETATM   37  F   UNL     1      -6.795   8.613  64.284  1.00  0.00    -0.073 F  
HETATM   38  F   UNL     1      -6.241  10.678  64.686  1.00  0.00    -0.130 F  
ENDBRANCH  28  29
ENDBRANCH  27  28
ENDBRANCH  24  27
ENDBRANCH  23  24
ENDBRANCH  20  22
ENDBRANCH  12  13
ENDBRANCH  11  12
ENDBRANCH   9  10
ENDBRANCH   8   9
ENDBRANCH   7   8
ENDBRANCH   5   7
ENDBRANCH   4   5
ENDBRANCH   2   4
TORSDOF 13
ENDMDL
MODEL      394
REMARK 921   NORMALIZED FREE ENERGY PREDICTED BY IDOCK:   -2.81 KCAL/MOL
REMARK 922        TOTAL FREE ENERGY PREDICTED BY IDOCK:   -7.17 KCAL/MOL
REMARK 923 INTER-LIGAND FREE ENERGY PREDICTED BY IDOCK:   -6.47 KCAL/MOL
REMARK 924 INTRA-LIGAND FREE ENERGY PREDICTED BY IDOCK:   -0.71 KCAL/MOL
REMARK 927      BINDING AFFINITY PREDICTED BY RF-SCORE:    0.00 PKD
ROOT
HETATM    1  C   UNL     1      -5.925   3.568  67.309  1.00  0.00    -0.024 C  
HETATM    2  C   UNL     1      -6.720   2.272  67.194  1.00  0.00    -0.039 C  
HETATM    3  C   UNL     1      -6.632   1.469  68.488  1.00  0.00    -0.029 C  
ENDROOT
BRANCH   2   4
HETATM    4  O   UNL     1      -8.106   2.583  66.969  1.00  0.00    -0.074 OA 
BRANCH   4   5
HETATM    5  C   UNL     1      -8.553   3.704  67.603  1.00  0.00    -0.100 C  
HETATM    6  O   UNL     1      -8.354   3.971  68.780  1.00  0.00    -0.077 OA 
BRANCH   5   7
HETATM    7  C   UNL     1      -9.381   4.540  66.664  1.00  0.00    -0.156 C  
BRANCH   7   8
HETATM    8  C   UNL     1      -8.594   4.815  65.382  1.00  0.00    -0.134 C  
BRANCH   8   9
HETATM    9  C   UNL     1      -8.456   6.299  65.057  1.00  0.00    -0.049 C  
BRANCH   9  10
HETATM   10  C   UNL     1      -7.760   7.072  66.144  1.00  0.00    -0.095 C  
HETATM   11  C   UNL     1      -8.328   7.983  66.950  1.00  0.00    -0.116 C  
BRANCH  11  12
HETATM   12  C   UNL     1      -9.751   8.463  66.868  1.00  0.00    -0.292 C  
BRANCH  12  13
HETATM   13  C   UNL     1     -10.224   9.165  68.148  1.00  0.00    -0.249 C  
HETATM   14  C   UNL     1     -10.781   8.242  69.239  1.00  0.00    -0.128 C  
HETATM   15  O   UNL     1     -10.048   7.025  69.326  1.00  0.00    -0.166 OA 
HETATM   16  C   UNL     1     -10.572   9.028  70.528  1.00  0.00    -0.274 C  
HETATM   17  C   UNL     1      -9.202   9.673  70.341  1.00  0.00    -0.202 C  
HETATM   18  H   UNL     1     -10.394   6.454  70.002  1.00  0.00     0.000 HD 
HETATM   19  O   UNL     1      -8.180   8.763  70.758  1.00  0.00    -0.123 OA 
HETATM   20  C   UNL     1      -9.065   9.951  68.824  1.00  0.00    -0.147 C  
HETATM   21  H   UNL     1      -7.326   9.164  70.641  1.00  0.00     0.000 HD 
BRANCH  20  22
HETATM   22  C   UNL     1      -9.112  11.402  68.379  1.00  0.00    -0.179 C  
HETATM   23  C   UNL     1      -8.076  12.261  68.341  1.00  0.00    -0.151 C  
BRANCH  23  24
HETATM   24  C   UNL     1      -8.117  13.724  67.955  1.00  0.00    -0.163 C  
HETATM   25  H   UNL     1      -8.316  14.761  66.304  1.00  0.00     0.000 HD 
HETATM   26  O   UNL     1      -8.291  13.842  66.546  1.00  0.00     0.134 OA 
BRANCH  24  27
HETATM   27  C   UNL     1      -9.266  14.441  68.693  1.00  0.00    -0.181 C  
BRANCH  27  28
HETATM   28  O   UNL     1     -10.373  14.691  67.812  1.00  0.00    -0.235 OA 
BRANCH  28  29
HETATM   29  C   UNL     1     -10.384  15.949  67.264  1.00  0.00    -0.293 A  
HETATM   30  C   UNL     1     -10.786  16.233  65.956  1.00  0.00    -0.217 A  
HETATM   31  C   UNL     1     -10.776  17.548  65.486  1.00  0.00    -0.065 A  
HETATM   32  C   UNL     1     -10.372  18.586  66.322  1.00  0.00    -0.459 A  
HETATM   33  C   UNL     1      -9.980  18.324  67.641  1.00  0.00    -0.348 A  
HETATM   34  C   UNL     1      -9.541  19.448  68.548  1.00  0.00    -0.405 C  
HETATM   35  C   UNL     1     -10.001  16.997  68.107  1.00  0.00    -0.287 A  
HETATM   36  F   UNL     1      -9.533  20.667  67.934  1.00  0.00    -0.424 F  
HETATM   37  F   UNL     1      -8.280  19.270  69.028  1.00  0.00    -0.378 F  
HETATM   38  F   UNL     1     -10.344  19.588  69.638  1.00  0.00    -0.344 F  
ENDBRANCH  28  29
ENDBRANCH  27  28
ENDBRANCH  24  27
ENDBRANCH  23  24
ENDBRANCH  20  22
ENDBRANCH  12  13
ENDBRANCH  11  12
ENDBRANCH   9  10
ENDBRANCH   8   9
ENDBRANCH   7   8
ENDBRANCH   5   7
ENDBRANCH   4   5
ENDBRANCH   2   4
TORSDOF 13
ENDMDL
MODEL      395
REMARK 921   NORMALIZED FREE ENERGY PREDICTED BY IDOCK:   -2.77 KCAL/MOL
REMARK 922        TOTAL FREE ENERGY PREDICTED BY IDOCK:   -7.10 KCAL/MOL
REMARK 923 INTER-LIGAND FREE ENERGY PREDICTED BY IDOCK:   -4.71 KCAL/MOL
REMARK 924 INTRA-LIGAND FREE ENERGY PREDICTED BY IDOCK:   -2.40 KCAL/MOL
REMARK 927      BINDING AFFINITY PREDICTED BY RF-SCORE:    0.00 PKD
ROOT
HETATM    1  C   UNL     1     -10.370  10.071  68.693  1.00  0.00    -0.211 C  
HETATM    2  C   UNL     1     -10.998  10.180  70.078  1.00  0.00    -0.307 C  
HETATM    3  C   UNL     1     -12.371  10.839  69.999  1.00  0.00    -0.371 C  
ENDROOT
BRANCH   2   4
HETATM    4  O   UNL     1     -11.180   8.861  70.622  1.00  0.00    -0.256 OA 
BRANCH   4   5
HETATM    5  C   UNL     1     -10.052   8.288  71.129  1.00  0.00    -0.191 C  
HETATM    6  O   UNL     1      -9.662   8.406  72.283  1.00  0.00    -0.260 OA 
BRANCH   5   7
HETATM    7  C   UNL     1      -9.319   7.535  70.050  1.00  0.00    -0.154 C  
BRANCH   7   8
HETATM    8  C   UNL     1      -8.611   6.322  70.653  1.00  0.00    -0.139 C  
BRANCH   8   9
HETATM    9  C   UNL     1      -7.094   6.357  70.490  1.00  0.00    -0.065 C  
BRANCH   9  10
HETATM   10  C   UNL     1      -6.632   5.730  69.203  1.00  0.00    -0.051 C  
HETATM   11  C   UNL     1      -6.229   6.390  68.105  1.00  0.00    -0.032 C  
BRANCH  11  12
HETATM   12  C   UNL     1      -6.235   7.883  67.927  1.00  0.00    -0.050 C  
BRANCH  12  13
HETATM   13  C   UNL     1      -7.444   8.388  67.128  1.00  0.00    -0.089 C  
HETATM   14  C   UNL     1      -7.364   9.847  66.662  1.00  0.00    -0.099 C  
HETATM   15  O   UNL     1      -6.047  10.198  66.253  1.00  0.00    -0.063 OA 
HETATM   16  C   UNL     1      -8.279   9.894  65.443  1.00  0.00    -0.139 C  
HETATM   17  C   UNL     1      -7.996   8.578  64.726  1.00  0.00    -0.143 C  
HETATM   18  H   UNL     1      -5.998  11.102  65.964  1.00  0.00     0.000 HD 
HETATM   19  O   UNL     1      -6.869   8.735  63.857  1.00  0.00    -0.086 OA 
HETATM   20  C   UNL     1      -7.658   7.551  65.835  1.00  0.00    -0.088 C  
HETATM   21  H   UNL     1      -6.693   7.914  63.411  1.00  0.00     0.000 HD 
BRANCH  20  22
HETATM   22  C   UNL     1      -8.681   6.461  66.102  1.00  0.00    -0.151 C  
HETATM   23  C   UNL     1      -8.421   5.162  66.340  1.00  0.00    -0.112 C  
BRANCH  23  24
HETATM   24  C   UNL     1      -9.429   4.053  66.552  1.00  0.00    -0.194 C  
HETATM   25  H   UNL     1      -9.614   2.171  66.035  1.00  0.00     0.000 HD 
HETATM   26  O   UNL     1      -8.981   2.867  65.902  1.00  0.00    -0.137 OA 
BRANCH  24  27
HETATM   27  C   UNL     1      -9.626   3.789  68.058  1.00  0.00    -0.119 C  
BRANCH  27  28
HETATM   28  O   UNL     1      -9.035   2.539  68.449  1.00  0.00    -0.101 OA 
BRANCH  28  29
HETATM   29  C   UNL     1      -8.492   2.543  69.709  1.00  0.00    -0.047 A  
HETATM   30  C   UNL     1      -7.137   2.340  69.982  1.00  0.00    -0.033 A  
HETATM   31  C   UNL     1      -6.670   2.374  71.298  1.00  0.00    -0.031 A  
HETATM   32  C   UNL     1      -7.554   2.618  72.347  1.00  0.00    -0.052 A  
HETATM   33  C   UNL     1      -8.913   2.838  72.093  1.00  0.00    -0.128 A  
HETATM   34  C   UNL     1      -9.872   3.102  73.228  1.00  0.00    -0.110 C  
HETATM   35  C   UNL     1      -9.372   2.811  70.763  1.00  0.00    -0.221 A  
HETATM   36  F   UNL     1      -9.283   3.052  74.457  1.00  0.00    -0.086 F  
HETATM   37  F   UNL     1     -10.891   2.199  73.272  1.00  0.00    -0.203 F  
HETATM   38  F   UNL     1     -10.457   4.328  73.149  1.00  0.00    -0.185 F  
ENDBRANCH  28  29
ENDBRANCH  27  28
ENDBRANCH  24  27
ENDBRANCH  23  24
ENDBRANCH  20  22
ENDBRANCH  12  13
ENDBRANCH  11  12
ENDBRANCH   9  10
ENDBRANCH   8   9
ENDBRANCH   7   8
ENDBRANCH   5   7
ENDBRANCH   4   5
ENDBRANCH   2   4
TORSDOF 13
ENDMDL
MODEL      396
REMARK 921   NORMALIZED FREE ENERGY PREDICTED BY IDOCK:   -2.73 KCAL/MOL
REMARK 922        TOTAL FREE ENERGY PREDICTED BY IDOCK:   -7.03 KCAL/MOL
REMARK 923 INTER-LIGAND FREE ENERGY PREDICTED BY IDOCK:   -6.48 KCAL/MOL
REMARK 924 INTRA-LIGAND FREE ENERGY PREDICTED BY IDOCK:   -0.55 KCAL/MOL
REMARK 927      BINDING AFFINITY PREDICTED BY RF-SCORE:    0.00 PKD
ROOT
HETATM    1  C   UNL     1      -8.506  18.798  67.578  1.00  0.00    -0.288 C  
HETATM    2  C   UNL     1      -9.492  17.635  67.581  1.00  0.00    -0.258 C  
HETATM    3  C   UNL     1     -10.627  17.887  66.593  1.00  0.00    -0.243 C  
ENDROOT
BRANCH   2   4
HETATM    4  O   UNL     1      -8.814  16.436  67.167  1.00  0.00    -0.186 OA 
BRANCH   4   5
HETATM    5  C   UNL     1      -8.522  15.564  68.174  1.00  0.00    -0.147 C  
HETATM    6  O   UNL     1      -7.663  15.740  69.027  1.00  0.00    -0.171 OA 
BRANCH   5   7
HETATM    7  C   UNL     1      -9.369  14.325  68.054  1.00  0.00    -0.200 C  
BRANCH   7   8
HETATM    8  C   UNL     1     -10.260  14.183  69.288  1.00  0.00     0.021 C  
BRANCH   8   9
HETATM    9  C   UNL     1     -11.724  13.915  68.956  1.00  0.00    -0.378 C  
BRANCH   9  10
HETATM   10  C   UNL     1     -12.498  13.374  70.127  1.00  0.00    -0.243 C  
HETATM   11  C   UNL     1     -12.456  12.112  70.584  1.00  0.00    -0.330 C  
BRANCH  11  12
HETATM   12  C   UNL     1     -11.686  10.979  69.964  1.00  0.00    -0.437 C  
BRANCH  12  13
HETATM   13  C   UNL     1     -11.370   9.853  70.956  1.00  0.00    -0.460 C  
HETATM   14  C   UNL     1     -12.396   9.654  72.079  1.00  0.00    -0.298 C  
HETATM   15  O   UNL     1     -13.729   9.836  71.612  1.00  0.00    -0.303 OA 
HETATM   16  C   UNL     1     -12.218   8.196  72.485  1.00  0.00    -0.335 C  
HETATM   17  C   UNL     1     -12.006   7.473  71.159  1.00  0.00    -0.308 C  
HETATM   18  H   UNL     1     -14.364   9.712  72.308  1.00  0.00     0.000 HD 
HETATM   19  O   UNL     1     -13.273   7.134  70.586  1.00  0.00    -0.561 OA 
HETATM   20  C   UNL     1     -11.270   8.477  70.238  1.00  0.00    -0.185 C  
HETATM   21  H   UNL     1     -13.140   6.684  69.759  1.00  0.00     0.000 HD 
BRANCH  20  22
HETATM   22  C   UNL     1      -9.817   8.180  69.913  1.00  0.00    -0.186 C  
HETATM   23  C   UNL     1      -8.764   8.340  70.737  1.00  0.00    -0.151 C  
BRANCH  23  24
HETATM   24  C   UNL     1      -7.305   8.103  70.410  1.00  0.00    -0.062 C  
HETATM   25  H   UNL     1      -5.955   6.739  70.809  1.00  0.00     0.000 HD 
HETATM   26  O   UNL     1      -6.871   6.888  71.014  1.00  0.00    -0.056 OA 
BRANCH  24  27
HETATM   27  C   UNL     1      -7.102   8.038  68.883  1.00  0.00    -0.067 C  
BRANCH  27  28
HETATM   28  O   UNL     1      -6.047   7.125  68.538  1.00  0.00    -0.028 OA 
BRANCH  28  29
HETATM   29  C   UNL     1      -6.483   5.918  68.051  1.00  0.00    -0.043 A  
HETATM   30  C   UNL     1      -6.752   4.801  68.846  1.00  0.00    -0.050 A  
HETATM   31  C   UNL     1      -7.206   3.615  68.265  1.00  0.00    -0.051 A  
HETATM   32  C   UNL     1      -7.402   3.542  66.888  1.00  0.00    -0.067 A  
HETATM   33  C   UNL     1      -7.154   4.655  66.075  1.00  0.00    -0.075 A  
HETATM   34  C   UNL     1      -7.364   4.578  64.583  1.00  0.00    -0.071 C  
HETATM   35  C   UNL     1      -6.704   5.848  66.672  1.00  0.00    -0.057 A  
HETATM   36  F   UNL     1      -7.758   3.343  64.156  1.00  0.00    -0.071 F  
HETATM   37  F   UNL     1      -6.235   4.868  63.880  1.00  0.00    -0.020 F  
HETATM   38  F   UNL     1      -8.317   5.443  64.140  1.00  0.00    -0.121 F  
ENDBRANCH  28  29
ENDBRANCH  27  28
ENDBRANCH  24  27
ENDBRANCH  23  24
ENDBRANCH  20  22
ENDBRANCH  12  13
ENDBRANCH  11  12
ENDBRANCH   9  10
ENDBRANCH   8   9
ENDBRANCH   7   8
ENDBRANCH   5   7
ENDBRANCH   4   5
ENDBRANCH   2   4
TORSDOF 13
ENDMDL
MODEL      397
REMARK 921   NORMALIZED FREE ENERGY PREDICTED BY IDOCK:   -2.73 KCAL/MOL
REMARK 922        TOTAL FREE ENERGY PREDICTED BY IDOCK:   -7.02 KCAL/MOL
REMARK 923 INTER-LIGAND FREE ENERGY PREDICTED BY IDOCK:   -5.95 KCAL/MOL
REMARK 924 INTRA-LIGAND FREE ENERGY PREDICTED BY IDOCK:   -1.07 KCAL/MOL
REMARK 927      BINDING AFFINITY PREDICTED BY RF-SCORE:    0.00 PKD
ROOT
HETATM    1  C   UNL     1      -8.998   3.042  71.969  1.00  0.00    -0.133 C  
HETATM    2  C   UNL     1      -8.015   4.160  72.300  1.00  0.00    -0.086 C  
HETATM    3  C   UNL     1      -6.926   3.659  73.243  1.00  0.00    -0.049 C  
ENDROOT
BRANCH   2   4
HETATM    4  O   UNL     1      -7.372   4.600  71.090  1.00  0.00    -0.059 OA 
BRANCH   4   5
HETATM    5  C   UNL     1      -8.171   5.305  70.239  1.00  0.00    -0.095 C  
HETATM    6  O   UNL     1      -8.913   6.220  70.569  1.00  0.00    -0.148 OA 
BRANCH   5   7
HETATM    7  C   UNL     1      -8.055   4.757  68.841  1.00  0.00    -0.082 C  
BRANCH   7   8
HETATM    8  C   UNL     1      -6.893   5.433  68.113  1.00  0.00    -0.060 C  
BRANCH   8   9
HETATM    9  C   UNL     1      -6.574   4.806  66.759  1.00  0.00    -0.050 C  
BRANCH   9  10
HETATM   10  C   UNL     1      -6.800   5.752  65.612  1.00  0.00    -0.056 C  
HETATM   11  C   UNL     1      -6.999   7.076  65.710  1.00  0.00    -0.060 C  
BRANCH  11  12
HETATM   12  C   UNL     1      -7.113   7.855  66.991  1.00  0.00    -0.078 C  
BRANCH  12  13
HETATM   13  C   UNL     1      -8.071   9.048  66.887  1.00  0.00    -0.112 C  
HETATM   14  C   UNL     1      -9.541   8.694  66.628  1.00  0.00    -0.221 C  
HETATM   15  O   UNL     1      -9.935   7.526  67.340  1.00  0.00    -0.157 OA 
HETATM   16  C   UNL     1     -10.310   9.886  67.185  1.00  0.00    -0.304 C  
HETATM   17  C   UNL     1      -9.557  10.238  68.464  1.00  0.00    -0.161 C  
HETATM   18  H   UNL     1     -10.846   7.307  67.179  1.00  0.00     0.000 HD 
HETATM   19  O   UNL     1     -10.050   9.443  69.548  1.00  0.00    -0.186 OA 
HETATM   20  C   UNL     1      -8.073   9.888  68.196  1.00  0.00    -0.104 C  
HETATM   21  H   UNL     1      -9.580   9.662  70.345  1.00  0.00     0.000 HD 
BRANCH  20  22
HETATM   22  C   UNL     1      -7.104  11.049  68.053  1.00  0.00    -0.077 C  
HETATM   23  C   UNL     1      -7.195  12.246  68.661  1.00  0.00    -0.105 C  
BRANCH  23  24
HETATM   24  C   UNL     1      -6.270  13.432  68.485  1.00  0.00    -0.086 C  
HETATM   25  H   UNL     1      -5.203  14.210  67.037  1.00  0.00     0.000 HD 
HETATM   26  O   UNL     1      -5.784  13.466  67.147  1.00  0.00    -0.302 OA 
BRANCH  24  27
HETATM   27  C   UNL     1      -7.012  14.743  68.813  1.00  0.00    -0.103 C  
BRANCH  27  28
HETATM   28  O   UNL     1      -7.565  15.338  67.628  1.00  0.00    -0.140 OA 
BRANCH  28  29
HETATM   29  C   UNL     1      -8.929  15.486  67.656  1.00  0.00    -0.184 A  
HETATM   30  C   UNL     1      -9.606  16.375  68.496  1.00  0.00    -0.229 A  
HETATM   31  C   UNL     1     -10.999  16.469  68.447  1.00  0.00    -0.348 A  
HETATM   32  C   UNL     1     -11.721  15.681  67.553  1.00  0.00     0.069 A  
HETATM   33  C   UNL     1     -11.061  14.796  66.693  1.00  0.00    -0.333 A  
HETATM   34  C   UNL     1     -11.842  13.941  65.725  1.00  0.00    -0.378 C  
HETATM   35  C   UNL     1      -9.657  14.715  66.744  1.00  0.00    -0.266 A  
HETATM   36  F   UNL     1     -13.193  14.103  65.829  1.00  0.00    -0.549 F  
HETATM   37  F   UNL     1     -11.616  12.610  65.903  1.00  0.00    -0.347 F  
HETATM   38  F   UNL     1     -11.538  14.205  64.426  1.00  0.00    -0.369 F  
ENDBRANCH  28  29
ENDBRANCH  27  28
ENDBRANCH  24  27
ENDBRANCH  23  24
ENDBRANCH  20  22
ENDBRANCH  12  13
ENDBRANCH  11  12
ENDBRANCH   9  10
ENDBRANCH   8   9
ENDBRANCH   7   8
ENDBRANCH   5   7
ENDBRANCH   4   5
ENDBRANCH   2   4
TORSDOF 13
ENDMDL
MODEL      398
REMARK 921   NORMALIZED FREE ENERGY PREDICTED BY IDOCK:   -2.66 KCAL/MOL
REMARK 922        TOTAL FREE ENERGY PREDICTED BY IDOCK:   -6.91 KCAL/MOL
REMARK 923 INTER-LIGAND FREE ENERGY PREDICTED BY IDOCK:   -4.97 KCAL/MOL
REMARK 924 INTRA-LIGAND FREE ENERGY PREDICTED BY IDOCK:   -1.94 KCAL/MOL
REMARK 927      BINDING AFFINITY PREDICTED BY RF-SCORE:    0.00 PKD
ROOT
HETATM    1  C   UNL     1     -12.281  14.228  66.642  1.00  0.00    -0.411 C  
HETATM    2  C   UNL     1     -10.970  14.008  65.895  1.00  0.00    -0.286 C  
HETATM    3  C   UNL     1     -10.630  15.219  65.032  1.00  0.00    -0.444 C  
ENDROOT
BRANCH   2   4
HETATM    4  O   UNL     1      -9.903  13.840  66.846  1.00  0.00    -0.250 OA 
BRANCH   4   5
HETATM    5  C   UNL     1      -9.303  12.617  66.826  1.00  0.00    -0.232 C  
HETATM    6  O   UNL     1      -9.374  11.815  65.904  1.00  0.00    -0.227 OA 
BRANCH   5   7
HETATM    7  C   UNL     1      -8.588  12.364  68.126  1.00  0.00    -0.185 C  
BRANCH   7   8
HETATM    8  C   UNL     1      -7.980  10.962  68.121  1.00  0.00    -0.117 C  
BRANCH   8   9
HETATM    9  C   UNL     1      -6.461  10.956  67.970  1.00  0.00    -0.058 C  
BRANCH   9  10
HETATM   10  C   UNL     1      -5.746  11.236  69.264  1.00  0.00    -0.043 C  
HETATM   11  C   UNL     1      -5.955  10.607  70.431  1.00  0.00    -0.119 C  
BRANCH  11  12
HETATM   12  C   UNL     1      -6.998   9.554  70.688  1.00  0.00    -0.121 C  
BRANCH  12  13
HETATM   13  C   UNL     1      -6.589   8.165  70.181  1.00  0.00    -0.036 C  
HETATM   14  C   UNL     1      -5.508   7.454  71.004  1.00  0.00    -0.027 C  
HETATM   15  O   UNL     1      -5.675   7.680  72.400  1.00  0.00    -0.036 OA 
HETATM   16  C   UNL     1      -5.743   5.975  70.721  1.00  0.00    -0.018 C  
HETATM   17  C   UNL     1      -7.263   5.846  70.706  1.00  0.00    -0.080 C  
HETATM   18  H   UNL     1      -5.005   7.239  72.910  1.00  0.00     0.000 HD 
HETATM   19  O   UNL     1      -7.742   5.642  72.039  1.00  0.00    -0.098 OA 
HETATM   20  C   UNL     1      -7.800   7.191  70.159  1.00  0.00    -0.108 C  
HETATM   21  H   UNL     1      -8.689   5.562  72.030  1.00  0.00     0.000 HD 
BRANCH  20  22
HETATM   22  C   UNL     1      -8.414   7.177  68.770  1.00  0.00    -0.126 C  
HETATM   23  C   UNL     1      -9.659   7.570  68.442  1.00  0.00    -0.152 C  
BRANCH  23  24
HETATM   24  C   UNL     1     -10.303   7.511  67.074  1.00  0.00    -0.324 C  
HETATM   25  H   UNL     1     -10.307   8.603  65.447  1.00  0.00     0.000 HD 
HETATM   26  O   UNL     1      -9.902   8.641  66.305  1.00  0.00    -0.267 OA 
BRANCH  24  27
HETATM   27  C   UNL     1      -9.905   6.209  66.350  1.00  0.00    -0.092 C  
BRANCH  27  28
HETATM   28  O   UNL     1     -10.452   5.057  67.013  1.00  0.00    -0.211 OA 
BRANCH  28  29
HETATM   29  C   UNL     1      -9.568   4.018  67.158  1.00  0.00    -0.196 A  
HETATM   30  C   UNL     1      -9.522   3.175  68.272  1.00  0.00    -0.215 A  
HETATM   31  C   UNL     1      -8.594   2.132  68.330  1.00  0.00    -0.105 A  
HETATM   32  C   UNL     1      -7.714   1.922  67.271  1.00  0.00    -0.060 A  
HETATM   33  C   UNL     1      -7.754   2.746  66.139  1.00  0.00    -0.077 A  
HETATM   34  C   UNL     1      -6.800   2.520  64.992  1.00  0.00    -0.044 C  
HETATM   35  C   UNL     1      -8.697   3.788  66.088  1.00  0.00    -0.117 A  
HETATM   36  F   UNL     1      -5.919   1.501  65.213  1.00  0.00    -0.014 F  
HETATM   37  F   UNL     1      -6.036   3.614  64.724  1.00  0.00    -0.019 F  
HETATM   38  F   UNL     1      -7.437   2.211  63.830  1.00  0.00    -0.052 F  
ENDBRANCH  28  29
ENDBRANCH  27  28
ENDBRANCH  24  27
ENDBRANCH  23  24
ENDBRANCH  20  22
ENDBRANCH  12  13
ENDBRANCH  11  12
ENDBRANCH   9  10
ENDBRANCH   8   9
ENDBRANCH   7   8
ENDBRANCH   5   7
ENDBRANCH   4   5
ENDBRANCH   2   4
TORSDOF 13
ENDMDL
MODEL      399
REMARK 921   NORMALIZED FREE ENERGY PREDICTED BY IDOCK:   -2.65 KCAL/MOL
REMARK 922        TOTAL FREE ENERGY PREDICTED BY IDOCK:   -6.89 KCAL/MOL
REMARK 923 INTER-LIGAND FREE ENERGY PREDICTED BY IDOCK:   -5.40 KCAL/MOL
REMARK 924 INTRA-LIGAND FREE ENERGY PREDICTED BY IDOCK:   -1.49 KCAL/MOL
REMARK 927      BINDING AFFINITY PREDICTED BY RF-SCORE:    0.00 PKD
ROOT
HETATM    1  C   UNL     1     -10.657   9.336  71.185  1.00  0.00    -0.402 C  
HETATM    2  C   UNL     1     -10.651   8.904  69.723  1.00  0.00    -0.224 C  
HETATM    3  C   UNL     1     -10.898  10.098  68.806  1.00  0.00    -0.259 C  
ENDROOT
BRANCH   2   4
HETATM    4  O   UNL     1      -9.360   8.363  69.392  1.00  0.00    -0.153 OA 
BRANCH   4   5
HETATM    5  C   UNL     1      -8.365   9.287  69.266  1.00  0.00    -0.124 C  
HETATM    6  O   UNL     1      -8.368  10.396  69.783  1.00  0.00    -0.132 OA 
BRANCH   5   7
HETATM    7  C   UNL     1      -7.287   8.771  68.351  1.00  0.00    -0.086 C  
BRANCH   7   8
HETATM    8  C   UNL     1      -5.912   9.100  68.933  1.00  0.00    -0.043 C  
BRANCH   8   9
HETATM    9  C   UNL     1      -5.228   7.907  69.594  1.00  0.00    -0.023 C  
BRANCH   9  10
HETATM   10  C   UNL     1      -6.202   6.852  70.042  1.00  0.00    -0.031 C  
HETATM   11  C   UNL     1      -6.192   5.562  69.672  1.00  0.00    -0.029 C  
BRANCH  11  12
HETATM   12  C   UNL     1      -5.251   4.941  68.676  1.00  0.00    -0.004 C  
BRANCH  12  13
HETATM   13  C   UNL     1      -5.942   3.944  67.736  1.00  0.00    -0.027 C  
HETATM   14  C   UNL     1      -5.787   2.466  68.112  1.00  0.00    -0.023 C  
HETATM   15  O   UNL     1      -5.847   2.271  69.521  1.00  0.00    -0.021 OA 
HETATM   16  C   UNL     1      -7.000   1.795  67.477  1.00  0.00    -0.039 C  
HETATM   17  C   UNL     1      -8.130   2.794  67.711  1.00  0.00    -0.070 C  
HETATM   18  H   UNL     1      -5.751   1.355  69.754  1.00  0.00     0.000 HD 
HETATM   19  O   UNL     1      -8.711   2.571  69.000  1.00  0.00    -0.068 OA 
HETATM   20  C   UNL     1      -7.475   4.196  67.670  1.00  0.00    -0.069 C  
HETATM   21  H   UNL     1      -9.414   3.193  69.146  1.00  0.00     0.000 HD 
BRANCH  20  22
HETATM   22  C   UNL     1      -7.793   5.073  66.472  1.00  0.00    -0.100 C  
HETATM   23  C   UNL     1      -6.954   5.392  65.470  1.00  0.00    -0.065 C  
BRANCH  23  24
HETATM   24  C   UNL     1      -7.237   6.309  64.299  1.00  0.00    -0.064 C  
HETATM   25  H   UNL     1      -8.661   6.534  62.972  1.00  0.00     0.000 HD 
HETATM   26  O   UNL     1      -8.484   5.959  63.707  1.00  0.00    -0.041 OA 
BRANCH  24  27
HETATM   27  C   UNL     1      -7.266   7.779  64.765  1.00  0.00    -0.067 C  
BRANCH  27  28
HETATM   28  O   UNL     1      -8.599   8.186  65.119  1.00  0.00    -0.147 OA 
BRANCH  28  29
HETATM   29  C   UNL     1      -9.034   9.313  64.469  1.00  0.00    -0.136 A  
HETATM   30  C   UNL     1      -8.903   9.529  63.095  1.00  0.00    -0.239 A  
HETATM   31  C   UNL     1      -9.389  10.704  62.516  1.00  0.00    -0.316 A  
HETATM   32  C   UNL     1     -10.014  11.665  63.307  1.00  0.00    -0.442 A  
HETATM   33  C   UNL     1     -10.169  11.461  64.683  1.00  0.00    -0.347 A  
HETATM   34  C   UNL     1     -10.845  12.502  65.541  1.00  0.00    -0.278 C  
HETATM   35  C   UNL     1      -9.684  10.271  65.255  1.00  0.00    -0.354 A  
HETATM   36  F   UNL     1     -11.218  13.616  64.847  1.00  0.00    -0.305 F  
HETATM   37  F   UNL     1     -10.047  12.948  66.550  1.00  0.00    -0.239 F  
HETATM   38  F   UNL     1     -11.979  12.040  66.134  1.00  0.00    -0.431 F  
ENDBRANCH  28  29
ENDBRANCH  27  28
ENDBRANCH  24  27
ENDBRANCH  23  24
ENDBRANCH  20  22
ENDBRANCH  12  13
ENDBRANCH  11  12
ENDBRANCH   9  10
ENDBRANCH   8   9
ENDBRANCH   7   8
ENDBRANCH   5   7
ENDBRANCH   4   5
ENDBRANCH   2   4
TORSDOF 13
ENDMDL
MODEL      400
REMARK 921   NORMALIZED FREE ENERGY PREDICTED BY IDOCK:   -2.62 KCAL/MOL
REMARK 922        TOTAL FREE ENERGY PREDICTED BY IDOCK:   -6.84 KCAL/MOL
REMARK 923 INTER-LIGAND FREE ENERGY PREDICTED BY IDOCK:   -7.13 KCAL/MOL
REMARK 924 INTRA-LIGAND FREE ENERGY PREDICTED BY IDOCK:    0.29 KCAL/MOL
REMARK 927      BINDING AFFINITY PREDICTED BY RF-SCORE:    0.00 PKD
ROOT
HETATM    1  C   UNL     1      -9.097   3.697  71.528  1.00  0.00    -0.175 C  
HETATM    2  C   UNL     1      -7.642   3.256  71.421  1.00  0.00    -0.047 C  
HETATM    3  C   UNL     1      -7.235   3.083  69.961  1.00  0.00    -0.041 C  
ENDROOT
BRANCH   2   4
HETATM    4  O   UNL     1      -6.795   4.270  71.990  1.00  0.00    -0.038 OA 
BRANCH   4   5
HETATM    5  C   UNL     1      -6.931   5.509  71.437  1.00  0.00    -0.067 C  
HETATM    6  O   UNL     1      -7.764   6.340  71.773  1.00  0.00    -0.098 OA 
BRANCH   5   7
HETATM    7  C   UNL     1      -5.949   5.688  70.310  1.00  0.00    -0.025 C  
BRANCH   7   8
HETATM    8  C   UNL     1      -6.637   6.369  69.126  1.00  0.00    -0.048 C  
BRANCH   8   9
HETATM    9  C   UNL     1      -8.158   6.260  69.159  1.00  0.00    -0.110 C  
BRANCH   9  10
HETATM   10  C   UNL     1      -8.827   7.557  69.529  1.00  0.00    -0.137 C  
HETATM   11  C   UNL     1      -9.420   8.408  68.678  1.00  0.00    -0.147 C  
BRANCH  11  12
HETATM   12  C   UNL     1      -9.463   8.266  67.182  1.00  0.00    -0.206 C  
BRANCH  12  13
HETATM   13  C   UNL     1      -8.795   9.437  66.447  1.00  0.00    -0.167 C  
HETATM   14  C   UNL     1      -7.875   9.047  65.284  1.00  0.00    -0.102 C  
HETATM   15  O   UNL     1      -8.398   7.949  64.543  1.00  0.00    -0.309 OA 
HETATM   16  C   UNL     1      -7.873  10.280  64.388  1.00  0.00    -0.117 C  
HETATM   17  C   UNL     1      -9.321  10.759  64.426  1.00  0.00    -0.242 C  
HETATM   18  H   UNL     1      -7.828   7.708  63.822  1.00  0.00     0.000 HD 
HETATM   19  O   UNL     1     -10.084  10.067  63.432  1.00  0.00    -0.452 OA 
HETATM   20  C   UNL     1      -9.853  10.398  65.835  1.00  0.00    -0.294 C  
HETATM   21  H   UNL     1     -10.986  10.364  63.456  1.00  0.00     0.000 HD 
BRANCH  20  22
HETATM   22  C   UNL     1     -10.107  11.547  66.793  1.00  0.00    -0.245 C  
HETATM   23  C   UNL     1     -10.900  11.521  67.881  1.00  0.00    -0.257 C  
BRANCH  23  24
HETATM   24  C   UNL     1     -11.208  12.673  68.813  1.00  0.00    -0.280 C  
HETATM   25  H   UNL     1     -12.449  14.189  68.851  1.00  0.00     0.000 HD 
HETATM   26  O   UNL     1     -12.256  13.466  68.265  1.00  0.00    -0.286 OA 
BRANCH  24  27
HETATM   27  C   UNL     1     -11.616  12.143  70.203  1.00  0.00    -0.118 C  
BRANCH  27  28
HETATM   28  O   UNL     1     -11.075  10.832  70.438  1.00  0.00    -0.266 OA 
BRANCH  28  29
HETATM   29  C   UNL     1     -11.991   9.920  70.899  1.00  0.00    -0.345 A  
HETATM   30  C   UNL     1     -13.372  10.136  70.923  1.00  0.00    -0.272 A  
HETATM   31  C   UNL     1     -14.232   9.144  71.399  1.00  0.00    -0.129 A  
HETATM   32  C   UNL     1     -13.717   7.929  71.846  1.00  0.00    -0.366 A  
HETATM   33  C   UNL     1     -12.339   7.687  71.817  1.00  0.00    -0.349 A  
HETATM   34  C   UNL     1     -11.780   6.373  72.302  1.00  0.00    -0.290 C  
HETATM   35  C   UNL     1     -11.482   8.690  71.328  1.00  0.00    -0.341 A  
HETATM   36  F   UNL     1     -12.733   5.525  72.786  1.00  0.00    -0.206 F  
HETATM   37  F   UNL     1     -10.879   6.527  73.311  1.00  0.00    -0.240 F  
HETATM   38  F   UNL     1     -11.134   5.682  71.323  1.00  0.00    -0.317 F  
ENDBRANCH  28  29
ENDBRANCH  27  28
ENDBRANCH  24  27
ENDBRANCH  23  24
ENDBRANCH  20  22
ENDBRANCH  12  13
ENDBRANCH  11  12
ENDBRANCH   9  10
ENDBRANCH   8   9
ENDBRANCH   7   8
ENDBRANCH   5   7
ENDBRANCH   4   5
ENDBRANCH   2   4
TORSDOF 13
ENDMDL
MODEL      401
REMARK 921   NORMALIZED FREE ENERGY PREDICTED BY IDOCK:   -2.61 KCAL/MOL
REMARK 922        TOTAL FREE ENERGY PREDICTED BY IDOCK:   -6.81 KCAL/MOL
REMARK 923 INTER-LIGAND FREE ENERGY PREDICTED BY IDOCK:   -6.10 KCAL/MOL
REMARK 924 INTRA-LIGAND FREE ENERGY PREDICTED BY IDOCK:   -0.72 KCAL/MOL
REMARK 927      BINDING AFFINITY PREDICTED BY RF-SCORE:    0.00 PKD
ROOT
HETATM    1  C   UNL     1      -9.602   3.531  70.440  1.00  0.00    -0.241 C  
HETATM    2  C   UNL     1      -8.586   4.640  70.688  1.00  0.00    -0.099 C  
HETATM    3  C   UNL     1      -7.537   4.195  71.702  1.00  0.00    -0.065 C  
ENDROOT
BRANCH   2   4
HETATM    4  O   UNL     1      -7.901   4.941  69.459  1.00  0.00    -0.066 OA 
BRANCH   4   5
HETATM    5  C   UNL     1      -8.626   5.665  68.561  1.00  0.00    -0.107 C  
HETATM    6  O   UNL     1      -9.413   6.557  68.849  1.00  0.00    -0.131 OA 
BRANCH   5   7
HETATM    7  C   UNL     1      -8.367   5.173  67.162  1.00  0.00    -0.107 C  
BRANCH   7   8
HETATM    8  C   UNL     1      -7.125   5.858  66.592  1.00  0.00    -0.069 C  
BRANCH   8   9
HETATM    9  C   UNL     1      -6.751   5.378  65.193  1.00  0.00    -0.044 C  
BRANCH   9  10
HETATM   10  C   UNL     1      -6.734   6.490  64.180  1.00  0.00    -0.038 C  
HETATM   11  C   UNL     1      -6.824   7.802  64.449  1.00  0.00    -0.059 C  
BRANCH  11  12
HETATM   12  C   UNL     1      -7.036   8.407  65.810  1.00  0.00    -0.071 C  
BRANCH  12  13
HETATM   13  C   UNL     1      -7.849   9.708  65.769  1.00  0.00    -0.106 C  
HETATM   14  C   UNL     1      -9.219   9.610  65.087  1.00  0.00    -0.246 C  
HETATM   15  O   UNL     1      -9.867   8.377  65.381  1.00  0.00    -0.188 OA 
HETATM   16  C   UNL     1     -10.024  10.743  65.713  1.00  0.00    -0.306 C  
HETATM   17  C   UNL     1      -9.611  10.711  67.182  1.00  0.00    -0.164 C  
HETATM   18  H   UNL     1     -10.716   8.317  64.958  1.00  0.00     0.000 HD 
HETATM   19  O   UNL     1     -10.426   9.772  67.891  1.00  0.00    -0.208 OA 
HETATM   20  C   UNL     1      -8.137  10.240  67.202  1.00  0.00    -0.121 C  
HETATM   21  H   UNL     1     -10.169   9.752  68.806  1.00  0.00     0.000 HD 
BRANCH  20  22
HETATM   22  C   UNL     1      -7.087  11.270  67.579  1.00  0.00    -0.099 C  
HETATM   23  C   UNL     1      -7.211  12.234  68.509  1.00  0.00    -0.103 C  
BRANCH  23  24
HETATM   24  C   UNL     1      -6.196  13.302  68.858  1.00  0.00    -0.088 C  
HETATM   25  H   UNL     1      -5.031  14.539  67.881  1.00  0.00     0.000 HD 
HETATM   26  O   UNL     1      -5.668  13.869  67.663  1.00  0.00    -0.291 OA 
BRANCH  24  27
HETATM   27  C   UNL     1      -6.849  14.400  69.721  1.00  0.00    -0.095 C  
BRANCH  27  28
HETATM   28  O   UNL     1      -6.941  15.641  69.002  1.00  0.00    -0.126 OA 
BRANCH  28  29
HETATM   29  C   UNL     1      -8.193  16.202  69.004  1.00  0.00    -0.244 A  
HETATM   30  C   UNL     1      -8.534  17.367  68.312  1.00  0.00    -0.249 A  
HETATM   31  C   UNL     1      -9.840  17.860  68.361  1.00  0.00    -0.355 A  
HETATM   32  C   UNL     1     -10.813  17.187  69.096  1.00  0.00    -0.082 A  
HETATM   33  C   UNL     1     -10.496  16.010  69.785  1.00  0.00    -0.300 A  
HETATM   34  C   UNL     1     -11.548  15.280  70.582  1.00  0.00    -0.319 C  
HETATM   35  C   UNL     1      -9.179  15.517  69.722  1.00  0.00    -0.101 A  
HETATM   36  F   UNL     1     -12.760  15.908  70.580  1.00  0.00    -0.453 F  
HETATM   37  F   UNL     1     -11.209  15.141  71.893  1.00  0.00    -0.449 F  
HETATM   38  F   UNL     1     -11.784  14.023  70.118  1.00  0.00    -0.306 F  
ENDBRANCH  28  29
ENDBRANCH  27  28
ENDBRANCH  24  27
ENDBRANCH  23  24
ENDBRANCH  20  22
ENDBRANCH  12  13
ENDBRANCH  11  12
ENDBRANCH   9  10
ENDBRANCH   8   9
ENDBRANCH   7   8
ENDBRANCH   5   7
ENDBRANCH   4   5
ENDBRANCH   2   4
TORSDOF 13
ENDMDL
MODEL      402
REMARK 921   NORMALIZED FREE ENERGY PREDICTED BY IDOCK:   -2.49 KCAL/MOL
REMARK 922        TOTAL FREE ENERGY PREDICTED BY IDOCK:   -6.60 KCAL/MOL
REMARK 923 INTER-LIGAND FREE ENERGY PREDICTED BY IDOCK:   -4.32 KCAL/MOL
REMARK 924 INTRA-LIGAND FREE ENERGY PREDICTED BY IDOCK:   -2.28 KCAL/MOL
REMARK 927      BINDING AFFINITY PREDICTED BY RF-SCORE:    0.00 PKD
ROOT
HETATM    1  C   UNL     1     -10.719   9.649  67.445  1.00  0.00    -0.308 C  
HETATM    2  C   UNL     1     -10.078   9.709  68.827  1.00  0.00    -0.179 C  
HETATM    3  C   UNL     1      -9.684  11.140  69.179  1.00  0.00    -0.050 C  
ENDROOT
BRANCH   2   4
HETATM    4  O   UNL     1     -11.030   9.267  69.812  1.00  0.00    -0.234 OA 
BRANCH   4   5
HETATM    5  C   UNL     1     -10.652   8.168  70.524  1.00  0.00    -0.220 C  
HETATM    6  O   UNL     1      -9.921   8.184  71.505  1.00  0.00    -0.168 OA 
BRANCH   5   7
HETATM    7  C   UNL     1     -11.213   6.920  69.896  1.00  0.00    -0.334 C  
BRANCH   7   8
HETATM    8  C   UNL     1     -10.148   6.251  69.027  1.00  0.00    -0.206 C  
BRANCH   8   9
HETATM    9  C   UNL     1     -10.408   4.769  68.776  1.00  0.00     0.028 C  
BRANCH   9  10
HETATM   10  C   UNL     1      -9.198   3.913  69.036  1.00  0.00    -0.217 C  
HETATM   11  C   UNL     1      -8.862   3.361  70.213  1.00  0.00    -0.143 C  
BRANCH  11  12
HETATM   12  C   UNL     1      -9.589   3.556  71.514  1.00  0.00    -0.232 C  
BRANCH  12  13
HETATM   13  C   UNL     1      -8.985   4.669  72.381  1.00  0.00    -0.138 C  
HETATM   14  C   UNL     1      -9.366   4.630  73.866  1.00  0.00    -0.117 C  
HETATM   15  O   UNL     1      -9.422   3.296  74.361  1.00  0.00    -0.091 OA 
HETATM   16  C   UNL     1      -8.219   5.356  74.559  1.00  0.00    -0.103 C  
HETATM   17  C   UNL     1      -6.980   4.874  73.812  1.00  0.00    -0.076 C  
HETATM   18  H   UNL     1      -9.658   3.272  75.281  1.00  0.00     0.000 HD 
HETATM   19  O   UNL     1      -6.518   3.647  74.385  1.00  0.00    -0.035 OA 
HETATM   20  C   UNL     1      -7.431   4.628  72.351  1.00  0.00    -0.084 C  
HETATM   21  H   UNL     1      -5.746   3.347  73.920  1.00  0.00     0.000 HD 
BRANCH  20  22
HETATM   22  C   UNL     1      -6.920   5.595  71.297  1.00  0.00    -0.066 C  
HETATM   23  C   UNL     1      -7.189   6.911  71.222  1.00  0.00    -0.076 C  
BRANCH  23  24
HETATM   24  C   UNL     1      -6.734   7.876  70.148  1.00  0.00    -0.038 C  
HETATM   25  H   UNL     1      -5.753   9.571  70.072  1.00  0.00     0.000 HD 
HETATM   26  O   UNL     1      -6.038   8.965  70.746  1.00  0.00    -0.033 OA 
BRANCH  24  27
HETATM   27  C   UNL     1      -5.821   7.157  69.134  1.00  0.00    -0.019 C  
BRANCH  27  28
HETATM   28  O   UNL     1      -6.422   7.122  67.829  1.00  0.00    -0.044 OA 
BRANCH  28  29
HETATM   29  C   UNL     1      -6.523   8.348  67.222  1.00  0.00    -0.058 A  
HETATM   30  C   UNL     1      -5.807   9.481  67.615  1.00  0.00    -0.044 A  
HETATM   31  C   UNL     1      -5.964  10.688  66.929  1.00  0.00    -0.063 A  
HETATM   32  C   UNL     1      -6.832  10.765  65.842  1.00  0.00    -0.084 A  
HETATM   33  C   UNL     1      -7.548   9.638  65.423  1.00  0.00    -0.111 A  
HETATM   34  C   UNL     1      -8.489   9.721  64.247  1.00  0.00    -0.178 C  
HETATM   35  C   UNL     1      -7.376   8.425  66.115  1.00  0.00    -0.084 A  
HETATM   36  F   UNL     1      -8.578  10.973  63.712  1.00  0.00    -0.135 F  
HETATM   37  F   UNL     1      -9.763   9.368  64.570  1.00  0.00    -0.242 F  
HETATM   38  F   UNL     1      -8.121   8.907  63.220  1.00  0.00    -0.138 F  
ENDBRANCH  28  29
ENDBRANCH  27  28
ENDBRANCH  24  27
ENDBRANCH  23  24
ENDBRANCH  20  22
ENDBRANCH  12  13
ENDBRANCH  11  12
ENDBRANCH   9  10
ENDBRANCH   8   9
ENDBRANCH   7   8
ENDBRANCH   5   7
ENDBRANCH   4   5
ENDBRANCH   2   4
TORSDOF 13
ENDMDL
MODEL      403
REMARK 921   NORMALIZED FREE ENERGY PREDICTED BY IDOCK:   -2.40 KCAL/MOL
REMARK 922        TOTAL FREE ENERGY PREDICTED BY IDOCK:   -6.45 KCAL/MOL
REMARK 923 INTER-LIGAND FREE ENERGY PREDICTED BY IDOCK:   -5.06 KCAL/MOL
REMARK 924 INTRA-LIGAND FREE ENERGY PREDICTED BY IDOCK:   -1.39 KCAL/MOL
REMARK 927      BINDING AFFINITY PREDICTED BY RF-SCORE:    0.00 PKD
ROOT
HETATM    1  C   UNL     1     -11.358  16.883  66.065  1.00  0.00     0.789 C  
HETATM    2  C   UNL     1      -9.945  16.773  66.629  1.00  0.00    -0.293 C  
HETATM    3  C   UNL     1      -9.575  18.031  67.407  1.00  0.00    -0.272 C  
ENDROOT
BRANCH   2   4
HETATM    4  O   UNL     1      -9.884  15.663  67.544  1.00  0.00    -0.225 OA 
BRANCH   4   5
HETATM    5  C   UNL     1     -11.032  14.935  67.640  1.00  0.00    -0.300 C  
HETATM    6  O   UNL     1     -12.089  15.347  68.097  1.00  0.00    -0.153 OA 
BRANCH   5   7
HETATM    7  C   UNL     1     -10.799  13.528  67.157  1.00  0.00    -0.291 C  
BRANCH   7   8
HETATM    8  C   UNL     1     -11.852  12.593  67.753  1.00  0.00    -0.381 C  
BRANCH   8   9
HETATM    9  C   UNL     1     -11.425  11.957  69.073  1.00  0.00    -0.355 C  
BRANCH   9  10
HETATM   10  C   UNL     1     -11.480  10.454  69.041  1.00  0.00    -0.258 C  
HETATM   11  C   UNL     1     -10.424   9.629  68.965  1.00  0.00    -0.229 C  
BRANCH  11  12
HETATM   12  C   UNL     1      -8.988  10.051  68.820  1.00  0.00    -0.145 C  
BRANCH  12  13
HETATM   13  C   UNL     1      -8.418   9.776  67.422  1.00  0.00    -0.121 C  
HETATM   14  C   UNL     1      -8.385  10.980  66.474  1.00  0.00    -0.163 C  
HETATM   15  O   UNL     1      -8.039  12.180  67.158  1.00  0.00    -0.167 OA 
HETATM   16  C   UNL     1      -7.270  10.644  65.491  1.00  0.00    -0.052 C  
HETATM   17  C   UNL     1      -6.195  10.005  66.366  1.00  0.00    -0.068 C  
HETATM   18  H   UNL     1      -8.018  12.926  66.569  1.00  0.00     0.000 HD 
HETATM   19  O   UNL     1      -5.361  11.024  66.926  1.00  0.00    -0.052 OA 
HETATM   20  C   UNL     1      -6.950   9.269  67.499  1.00  0.00    -0.078 C  
HETATM   21  H   UNL     1      -4.693  10.626  67.472  1.00  0.00     0.000 HD 
BRANCH  20  22
HETATM   22  C   UNL     1      -6.937   7.751  67.466  1.00  0.00    -0.078 C  
HETATM   23  C   UNL     1      -7.855   6.955  66.888  1.00  0.00    -0.107 C  
BRANCH  23  24
HETATM   24  C   UNL     1      -7.887   5.442  66.894  1.00  0.00    -0.101 C  
HETATM   25  H   UNL     1      -6.699   3.985  66.338  1.00  0.00     0.000 HD 
HETATM   26  O   UNL     1      -6.679   4.935  66.334  1.00  0.00    -0.048 OA 
BRANCH  24  27
HETATM   27  C   UNL     1      -8.064   4.916  68.333  1.00  0.00    -0.085 C  
BRANCH  27  28
HETATM   28  O   UNL     1      -9.357   5.261  68.856  1.00  0.00    -0.114 OA 
BRANCH  28  29
HETATM   29  C   UNL     1      -9.452   5.176  70.223  1.00  0.00    -0.172 A  
HETATM   30  C   UNL     1      -9.963   4.070  70.908  1.00  0.00    -0.167 A  
HETATM   31  C   UNL     1     -10.010   4.067  72.304  1.00  0.00    -0.236 A  
HETATM   32  C   UNL     1      -9.539   5.164  73.022  1.00  0.00    -0.158 A  
HETATM   33  C   UNL     1      -9.010   6.275  72.355  1.00  0.00    -0.138 A  
HETATM   34  C   UNL     1      -8.501   7.465  73.130  1.00  0.00    -0.129 C  
HETATM   35  C   UNL     1      -8.960   6.265  70.949  1.00  0.00    -0.147 A  
HETATM   36  F   UNL     1      -8.660   7.339  74.480  1.00  0.00    -0.193 F  
HETATM   37  F   UNL     1      -9.135   8.621  72.791  1.00  0.00    -0.308 F  
HETATM   38  F   UNL     1      -7.173   7.692  72.935  1.00  0.00    -0.066 F  
ENDBRANCH  28  29
ENDBRANCH  27  28
ENDBRANCH  24  27
ENDBRANCH  23  24
ENDBRANCH  20  22
ENDBRANCH  12  13
ENDBRANCH  11  12
ENDBRANCH   9  10
ENDBRANCH   8   9
ENDBRANCH   7   8
ENDBRANCH   5   7
ENDBRANCH   4   5
ENDBRANCH   2   4
TORSDOF 13
ENDMDL
MODEL      404
REMARK 921   NORMALIZED FREE ENERGY PREDICTED BY IDOCK:   -2.39 KCAL/MOL
REMARK 922        TOTAL FREE ENERGY PREDICTED BY IDOCK:   -6.42 KCAL/MOL
REMARK 923 INTER-LIGAND FREE ENERGY PREDICTED BY IDOCK:   -4.80 KCAL/MOL
REMARK 924 INTRA-LIGAND FREE ENERGY PREDICTED BY IDOCK:   -1.63 KCAL/MOL
REMARK 927      BINDING AFFINITY PREDICTED BY RF-SCORE:    0.00 PKD
ROOT
HETATM    1  C   UNL     1     -12.267  15.410  66.704  1.00  0.00     0.775 C  
HETATM    2  C   UNL     1     -11.081  15.007  65.834  1.00  0.00    -0.334 C  
HETATM    3  C   UNL     1     -10.710  16.133  64.874  1.00  0.00    -0.297 C  
ENDROOT
BRANCH   2   4
HETATM    4  O   UNL     1      -9.939  14.758  66.673  1.00  0.00    -0.250 OA 
BRANCH   4   5
HETATM    5  C   UNL     1      -9.485  13.472  66.657  1.00  0.00    -0.265 C  
HETATM    6  O   UNL     1      -9.943  12.575  65.963  1.00  0.00    -0.250 OA 
BRANCH   5   7
HETATM    7  C   UNL     1      -8.378  13.297  67.662  1.00  0.00    -0.181 C  
BRANCH   7   8
HETATM    8  C   UNL     1      -7.971  11.825  67.735  1.00  0.00    -0.141 C  
BRANCH   8   9
HETATM    9  C   UNL     1      -6.571  11.552  67.192  1.00  0.00    -0.124 C  
BRANCH   9  10
HETATM   10  C   UNL     1      -5.485  12.094  68.082  1.00  0.00    -0.054 C  
HETATM   11  C   UNL     1      -5.446  12.003  69.421  1.00  0.00    -0.065 C  
BRANCH  11  12
HETATM   12  C   UNL     1      -6.517  11.410  70.293  1.00  0.00     0.047 C  
BRANCH  12  13
HETATM   13  C   UNL     1      -6.377   9.892  70.471  1.00  0.00    -0.109 C  
HETATM   14  C   UNL     1      -5.318   9.441  71.483  1.00  0.00    -0.062 C  
HETATM   15  O   UNL     1      -5.279  10.295  72.621  1.00  0.00    -0.295 OA 
HETATM   16  C   UNL     1      -5.796   8.063  71.927  1.00  0.00    -0.036 C  
HETATM   17  C   UNL     1      -7.310   8.223  72.037  1.00  0.00    -0.097 C  
HETATM   18  H   UNL     1      -4.623  10.015  73.249  1.00  0.00     0.000 HD 
HETATM   19  O   UNL     1      -7.647   8.731  73.332  1.00  0.00    -0.384 OA 
HETATM   20  C   UNL     1      -7.710   9.253  70.953  1.00  0.00    -0.134 C  
HETATM   21  H   UNL     1      -8.590   8.831  73.401  1.00  0.00     0.000 HD 
BRANCH  20  22
HETATM   22  C   UNL     1      -8.484   8.731  69.756  1.00  0.00    -0.129 C  
HETATM   23  C   UNL     1      -9.700   9.140  69.349  1.00  0.00    -0.170 C  
BRANCH  23  24
HETATM   24  C   UNL     1     -10.508   8.591  68.193  1.00  0.00    -0.182 C  
HETATM   25  H   UNL     1     -10.355   8.541  66.239  1.00  0.00     0.000 HD 
HETATM   26  O   UNL     1      -9.848   8.885  66.966  1.00  0.00    -0.178 OA 
BRANCH  24  27
HETATM   27  C   UNL     1     -10.693   7.068  68.343  1.00  0.00    -0.179 C  
BRANCH  27  28
HETATM   28  O   UNL     1     -10.801   6.692  69.726  1.00  0.00    -0.240 OA 
BRANCH  28  29
HETATM   29  C   UNL     1     -10.036   5.607  70.076  1.00  0.00    -0.228 A  
HETATM   30  C   UNL     1      -9.541   5.377  71.362  1.00  0.00    -0.202 A  
HETATM   31  C   UNL     1      -8.780   4.237  71.630  1.00  0.00    -0.136 A  
HETATM   32  C   UNL     1      -8.518   3.317  70.617  1.00  0.00    -0.101 A  
HETATM   33  C   UNL     1      -9.019   3.522  69.326  1.00  0.00    -0.179 A  
HETATM   34  C   UNL     1      -8.735   2.527  68.227  1.00  0.00    -0.094 C  
HETATM   35  C   UNL     1      -9.791   4.669  69.068  1.00  0.00    -0.224 A  
HETATM   36  F   UNL     1      -7.937   1.494  68.625  1.00  0.00    -0.048 F  
HETATM   37  F   UNL     1      -8.102   3.091  67.161  1.00  0.00    -0.076 F  
HETATM   38  F   UNL     1      -9.865   1.951  67.733  1.00  0.00    -0.174 F  
ENDBRANCH  28  29
ENDBRANCH  27  28
ENDBRANCH  24  27
ENDBRANCH  23  24
ENDBRANCH  20  22
ENDBRANCH  12  13
ENDBRANCH  11  12
ENDBRANCH   9  10
ENDBRANCH   8   9
ENDBRANCH   7   8
ENDBRANCH   5   7
ENDBRANCH   4   5
ENDBRANCH   2   4
TORSDOF 13
ENDMDL
MODEL      405
REMARK 921   NORMALIZED FREE ENERGY PREDICTED BY IDOCK:   -2.33 KCAL/MOL
REMARK 922        TOTAL FREE ENERGY PREDICTED BY IDOCK:   -6.33 KCAL/MOL
REMARK 923 INTER-LIGAND FREE ENERGY PREDICTED BY IDOCK:   -5.70 KCAL/MOL
REMARK 924 INTRA-LIGAND FREE ENERGY PREDICTED BY IDOCK:   -0.63 KCAL/MOL
REMARK 927      BINDING AFFINITY PREDICTED BY RF-SCORE:    0.00 PKD
ROOT
HETATM    1  C   UNL     1     -10.142   1.480  71.350  1.00  0.00    -0.117 C  
HETATM    2  C   UNL     1      -9.145   2.566  71.740  1.00  0.00    -0.088 C  
HETATM    3  C   UNL     1      -8.086   2.012  72.688  1.00  0.00    -0.054 C  
ENDROOT
BRANCH   2   4
HETATM    4  O   UNL     1      -8.467   3.034  70.560  1.00  0.00    -0.054 OA 
BRANCH   4   5
HETATM    5  C   UNL     1      -9.233   3.786  69.719  1.00  0.00    -0.143 C  
HETATM    6  O   UNL     1     -10.000   4.672  70.071  1.00  0.00    -0.217 OA 
BRANCH   5   7
HETATM    7  C   UNL     1      -9.045   3.332  68.296  1.00  0.00    -0.211 C  
BRANCH   7   8
HETATM    8  C   UNL     1      -7.865   4.072  67.666  1.00  0.00    -0.090 C  
BRANCH   8   9
HETATM    9  C   UNL     1      -7.458   3.522  66.302  1.00  0.00    -0.077 C  
BRANCH   9  10
HETATM   10  C   UNL     1      -7.542   4.552  65.210  1.00  0.00    -0.081 C  
HETATM   11  C   UNL     1      -7.665   5.878  65.385  1.00  0.00    -0.093 C  
BRANCH  11  12
HETATM   12  C   UNL     1      -7.820   6.578  66.706  1.00  0.00    -0.104 C  
BRANCH  12  13
HETATM   13  C   UNL     1      -8.667   7.855  66.615  1.00  0.00    -0.154 C  
HETATM   14  C   UNL     1     -10.162   7.638  66.353  1.00  0.00     0.034 C  
HETATM   15  O   UNL     1     -10.661   6.504  67.054  1.00  0.00    -0.255 OA 
HETATM   16  C   UNL     1     -10.820   8.889  66.922  1.00  0.00     0.010 C  
HETATM   17  C   UNL     1     -10.039   9.158  68.204  1.00  0.00    -0.189 C  
HETATM   18  H   UNL     1     -11.588   6.370  66.891  1.00  0.00     0.000 HD 
HETATM   19  O   UNL     1     -10.602   8.401  69.280  1.00  0.00    -0.230 OA 
HETATM   20  C   UNL     1      -8.592   8.679  67.931  1.00  0.00    -0.137 C  
HETATM   21  H   UNL     1     -10.114   8.568  70.079  1.00  0.00     0.000 HD 
BRANCH  20  22
HETATM   22  C   UNL     1      -7.522   9.748  67.799  1.00  0.00    -0.090 C  
HETATM   23  C   UNL     1      -7.473  10.917  68.465  1.00  0.00    -0.103 C  
BRANCH  23  24
HETATM   24  C   UNL     1      -6.446  12.016  68.304  1.00  0.00    -0.053 C  
HETATM   25  H   UNL     1      -5.453  12.839  66.827  1.00  0.00     0.000 HD 
HETATM   26  O   UNL     1      -6.098  12.149  66.929  1.00  0.00    -0.182 OA 
BRANCH  24  27
HETATM   27  C   UNL     1      -7.000  13.351  68.841  1.00  0.00    -0.102 C  
BRANCH  27  28
HETATM   28  O   UNL     1      -7.544  14.153  67.780  1.00  0.00    -0.133 OA 
BRANCH  28  29
HETATM   29  C   UNL     1      -8.646  14.889  68.137  1.00  0.00    -0.159 A  
HETATM   30  C   UNL     1      -9.802  14.347  68.704  1.00  0.00    -0.231 A  
HETATM   31  C   UNL     1     -10.873  15.175  69.050  1.00  0.00    -0.242 A  
HETATM   32  C   UNL     1     -10.789  16.549  68.838  1.00  0.00    -0.336 A  
HETATM   33  C   UNL     1      -9.633  17.114  68.285  1.00  0.00    -0.280 A  
HETATM   34  C   UNL     1      -9.542  18.602  68.054  1.00  0.00    -0.316 C  
HETATM   35  C   UNL     1      -8.557  16.272  67.948  1.00  0.00    -0.173 A  
HETATM   36  F   UNL     1     -10.681  19.273  68.390  1.00  0.00    -0.398 F  
HETATM   37  F   UNL     1      -9.301  18.915  66.750  1.00  0.00    -0.283 F  
HETATM   38  F   UNL     1      -8.544  19.186  68.772  1.00  0.00    -0.368 F  
ENDBRANCH  28  29
ENDBRANCH  27  28
ENDBRANCH  24  27
ENDBRANCH  23  24
ENDBRANCH  20  22
ENDBRANCH  12  13
ENDBRANCH  11  12
ENDBRANCH   9  10
ENDBRANCH   8   9
ENDBRANCH   7   8
ENDBRANCH   5   7
ENDBRANCH   4   5
ENDBRANCH   2   4
TORSDOF 13
ENDMDL
MODEL      406
REMARK 921   NORMALIZED FREE ENERGY PREDICTED BY IDOCK:   -2.16 KCAL/MOL
REMARK 922        TOTAL FREE ENERGY PREDICTED BY IDOCK:   -6.03 KCAL/MOL
REMARK 923 INTER-LIGAND FREE ENERGY PREDICTED BY IDOCK:   -5.22 KCAL/MOL
REMARK 924 INTRA-LIGAND FREE ENERGY PREDICTED BY IDOCK:   -0.81 KCAL/MOL
REMARK 927      BINDING AFFINITY PREDICTED BY RF-SCORE:    0.00 PKD
ROOT
HETATM    1  C   UNL     1     -10.239   1.475  71.338  1.00  0.00    -0.027 C  
HETATM    2  C   UNL     1      -9.001   2.315  71.634  1.00  0.00    -0.079 C  
HETATM    3  C   UNL     1      -7.986   1.513  72.443  1.00  0.00    -0.045 C  
ENDROOT
BRANCH   2   4
HETATM    4  O   UNL     1      -8.371   2.686  70.394  1.00  0.00    -0.044 OA 
BRANCH   4   5
HETATM    5  C   UNL     1      -9.098   3.533  69.612  1.00  0.00    -0.135 C  
HETATM    6  O   UNL     1      -9.937   4.323  70.024  1.00  0.00    -0.223 OA 
BRANCH   5   7
HETATM    7  C   UNL     1      -8.766   3.317  68.160  1.00  0.00    -0.135 C  
BRANCH   7   8
HETATM    8  C   UNL     1      -7.349   3.811  67.872  1.00  0.00    -0.062 C  
BRANCH   8   9
HETATM    9  C   UNL     1      -6.862   3.483  66.464  1.00  0.00    -0.053 C  
BRANCH   9  10
HETATM   10  C   UNL     1      -6.926   4.664  65.535  1.00  0.00    -0.062 C  
HETATM   11  C   UNL     1      -7.218   5.927  65.885  1.00  0.00    -0.075 C  
BRANCH  11  12
HETATM   12  C   UNL     1      -7.611   6.388  67.261  1.00  0.00    -0.096 C  
BRANCH  12  13
HETATM   13  C   UNL     1      -8.490   7.646  67.245  1.00  0.00    -0.121 C  
HETATM   14  C   UNL     1      -9.987   7.403  67.019  1.00  0.00    -0.231 C  
HETATM   15  O   UNL     1     -10.438   6.231  67.689  1.00  0.00    -0.170 OA 
HETATM   16  C   UNL     1     -10.657   8.614  67.657  1.00  0.00    -0.272 C  
HETATM   17  C   UNL     1      -9.843   8.853  68.925  1.00  0.00    -0.177 C  
HETATM   18  H   UNL     1     -11.366   6.081  67.548  1.00  0.00     0.000 HD 
HETATM   19  O   UNL     1     -10.355   8.040  69.986  1.00  0.00    -0.208 OA 
HETATM   20  C   UNL     1      -8.395   8.419  68.591  1.00  0.00    -0.120 C  
HETATM   21  H   UNL     1      -9.848   8.188  70.776  1.00  0.00     0.000 HD 
BRANCH  20  22
HETATM   22  C   UNL     1      -7.354   9.519  68.470  1.00  0.00    -0.079 C  
HETATM   23  C   UNL     1      -7.135  10.513  69.350  1.00  0.00    -0.110 C  
BRANCH  23  24
HETATM   24  C   UNL     1      -6.142  11.647  69.217  1.00  0.00    -0.078 C  
HETATM   25  H   UNL     1      -4.544  12.030  68.148  1.00  0.00     0.000 HD 
HETATM   26  O   UNL     1      -5.168  11.318  68.231  1.00  0.00    -0.040 OA 
BRANCH  24  27
HETATM   27  C   UNL     1      -6.867  12.952  68.830  1.00  0.00    -0.099 C  
BRANCH  27  28
HETATM   28  O   UNL     1      -8.292  12.768  68.811  1.00  0.00    -0.020 OA 
BRANCH  28  29
HETATM   29  C   UNL     1      -8.860  12.893  67.568  1.00  0.00    -0.192 A  
HETATM   30  C   UNL     1      -9.118  11.821  66.710  1.00  0.00    -0.194 A  
HETATM   31  C   UNL     1      -9.712  12.041  65.465  1.00  0.00    -0.221 A  
HETATM   32  C   UNL     1     -10.058  13.332  65.075  1.00  0.00    -0.247 A  
HETATM   33  C   UNL     1      -9.821  14.419  65.926  1.00  0.00    -0.336 A  
HETATM   34  C   UNL     1     -10.194  15.819  65.504  1.00  0.00    -0.378 C  
HETATM   35  C   UNL     1      -9.230  14.185  67.181  1.00  0.00    -0.237 A  
HETATM   36  F   UNL     1     -10.715  15.884  64.244  1.00  0.00    -0.282 F  
HETATM   37  F   UNL     1      -9.129  16.667  65.505  1.00  0.00    -0.182 F  
HETATM   38  F   UNL     1     -11.127  16.383  66.318  1.00  0.00    -0.191 F  
ENDBRANCH  28  29
ENDBRANCH  27  28
ENDBRANCH  24  27
ENDBRANCH  23  24
ENDBRANCH  20  22
ENDBRANCH  12  13
ENDBRANCH  11  12
ENDBRANCH   9  10
ENDBRANCH   8   9
ENDBRANCH   7   8
ENDBRANCH   5   7
ENDBRANCH   4   5
ENDBRANCH   2   4
TORSDOF 13
ENDMDL
MODEL      407
REMARK 921   NORMALIZED FREE ENERGY PREDICTED BY IDOCK:   -2.14 KCAL/MOL
REMARK 922        TOTAL FREE ENERGY PREDICTED BY IDOCK:   -5.99 KCAL/MOL
REMARK 923 INTER-LIGAND FREE ENERGY PREDICTED BY IDOCK:   -4.94 KCAL/MOL
REMARK 924 INTRA-LIGAND FREE ENERGY PREDICTED BY IDOCK:   -1.05 KCAL/MOL
REMARK 927      BINDING AFFINITY PREDICTED BY RF-SCORE:    0.00 PKD
ROOT
HETATM    1  C   UNL     1      -9.730  13.218  68.058  1.00  0.00    -0.223 C  
HETATM    2  C   UNL     1     -10.348  11.843  67.828  1.00  0.00    -0.198 C  
HETATM    3  C   UNL     1      -9.709  11.159  66.623  1.00  0.00    -0.224 C  
ENDROOT
BRANCH   2   4
HETATM    4  O   UNL     1     -10.102  11.014  68.978  1.00  0.00    -0.205 OA 
BRANCH   4   5
HETATM    5  C   UNL     1      -8.872  10.427  69.011  1.00  0.00    -0.172 C  
HETATM    6  O   UNL     1      -7.809  11.019  68.883  1.00  0.00    -0.129 OA 
BRANCH   5   7
HETATM    7  C   UNL     1      -9.008   8.936  69.166  1.00  0.00    -0.140 C  
BRANCH   7   8
HETATM    8  C   UNL     1     -10.155   8.617  70.126  1.00  0.00    -0.196 C  
BRANCH   8   9
HETATM    9  C   UNL     1      -9.947   9.173  71.531  1.00  0.00    -0.358 C  
BRANCH   9  10
HETATM   10  C   UNL     1      -8.565   8.909  72.064  1.00  0.00    -0.004 C  
HETATM   11  C   UNL     1      -8.239   7.989  72.985  1.00  0.00    -0.234 C  
BRANCH  11  12
HETATM   12  C   UNL     1      -9.204   7.098  73.717  1.00  0.00    -0.253 C  
BRANCH  12  13
HETATM   13  C   UNL     1      -9.207   5.656  73.194  1.00  0.00    -0.132 C  
HETATM   14  C   UNL     1     -10.511   4.878  73.411  1.00  0.00    -0.216 C  
HETATM   15  O   UNL     1     -11.655   5.704  73.223  1.00  0.00    -0.498 OA 
HETATM   16  C   UNL     1     -10.493   3.818  72.316  1.00  0.00    -0.085 C  
HETATM   17  C   UNL     1      -9.937   4.558  71.104  1.00  0.00    -0.187 C  
HETATM   18  H   UNL     1     -12.463   5.222  73.357  1.00  0.00     0.000 HD 
HETATM   19  O   UNL     1     -11.002   5.219  70.413  1.00  0.00    -0.153 OA 
HETATM   20  C   UNL     1      -8.947   5.609  71.662  1.00  0.00    -0.143 C  
HETATM   21  H   UNL     1     -10.656   5.680  69.658  1.00  0.00     0.000 HD 
BRANCH  20  22
HETATM   22  C   UNL     1      -7.469   5.371  71.407  1.00  0.00    -0.097 C  
HETATM   23  C   UNL     1      -6.935   4.687  70.378  1.00  0.00    -0.041 C  
BRANCH  23  24
HETATM   24  C   UNL     1      -5.470   4.393  70.140  1.00  0.00    -0.012 C  
HETATM   25  H   UNL     1      -4.210   2.958  70.581  1.00  0.00     0.000 HD 
HETATM   26  O   UNL     1      -5.130   3.142  70.730  1.00  0.00    -0.003 OA 
BRANCH  24  27
HETATM   27  C   UNL     1      -5.167   4.366  68.628  1.00  0.00    -0.007 C  
BRANCH  27  28
HETATM   28  O   UNL     1      -6.224   3.720  67.899  1.00  0.00    -0.031 OA 
BRANCH  28  29
HETATM   29  C   UNL     1      -6.797   4.502  66.928  1.00  0.00    -0.052 A  
HETATM   30  C   UNL     1      -6.605   5.881  66.814  1.00  0.00    -0.056 A  
HETATM   31  C   UNL     1      -7.219   6.596  65.783  1.00  0.00    -0.070 A  
HETATM   32  C   UNL     1      -8.021   5.934  64.856  1.00  0.00    -0.125 A  
HETATM   33  C   UNL     1      -8.214   4.550  64.943  1.00  0.00    -0.107 A  
HETATM   34  C   UNL     1      -9.083   3.833  63.940  1.00  0.00    -0.123 C  
HETATM   35  C   UNL     1      -7.584   3.839  65.980  1.00  0.00    -0.088 A  
HETATM   36  F   UNL     1      -9.657   4.668  63.026  1.00  0.00    -0.138 F  
HETATM   37  F   UNL     1     -10.115   3.164  64.526  1.00  0.00    -0.160 F  
HETATM   38  F   UNL     1      -8.397   2.907  63.216  1.00  0.00    -0.081 F  
ENDBRANCH  28  29
ENDBRANCH  27  28
ENDBRANCH  24  27
ENDBRANCH  23  24
ENDBRANCH  20  22
ENDBRANCH  12  13
ENDBRANCH  11  12
ENDBRANCH   9  10
ENDBRANCH   8   9
ENDBRANCH   7   8
ENDBRANCH   5   7
ENDBRANCH   4   5
ENDBRANCH   2   4
TORSDOF 13
ENDMDL
MODEL      408
REMARK 921   NORMALIZED FREE ENERGY PREDICTED BY IDOCK:   -2.09 KCAL/MOL
REMARK 922        TOTAL FREE ENERGY PREDICTED BY IDOCK:   -5.90 KCAL/MOL
REMARK 923 INTER-LIGAND FREE ENERGY PREDICTED BY IDOCK:   -5.48 KCAL/MOL
REMARK 924 INTRA-LIGAND FREE ENERGY PREDICTED BY IDOCK:   -0.42 KCAL/MOL
REMARK 927      BINDING AFFINITY PREDICTED BY RF-SCORE:    0.00 PKD
ROOT
HETATM    1  C   UNL     1     -10.243   1.489  71.330  1.00  0.00     0.036 C  
HETATM    2  C   UNL     1      -9.029   2.343  71.681  1.00  0.00    -0.083 C  
HETATM    3  C   UNL     1      -8.057   1.564  72.561  1.00  0.00    -0.045 C  
ENDROOT
BRANCH   2   4
HETATM    4  O   UNL     1      -8.332   2.696  70.472  1.00  0.00    -0.048 OA 
BRANCH   4   5
HETATM    5  C   UNL     1      -9.034   3.490  69.615  1.00  0.00    -0.110 C  
HETATM    6  O   UNL     1      -9.948   4.237  69.939  1.00  0.00    -0.221 OA 
BRANCH   5   7
HETATM    7  C   UNL     1      -8.566   3.274  68.201  1.00  0.00    -0.118 C  
BRANCH   7   8
HETATM    8  C   UNL     1      -7.161   3.851  68.025  1.00  0.00    -0.055 C  
BRANCH   8   9
HETATM    9  C   UNL     1      -6.510   3.477  66.697  1.00  0.00    -0.040 C  
BRANCH   9  10
HETATM   10  C   UNL     1      -6.575   4.587  65.684  1.00  0.00    -0.041 C  
HETATM   11  C   UNL     1      -7.052   5.824  65.899  1.00  0.00    -0.070 C  
BRANCH  11  12
HETATM   12  C   UNL     1      -7.683   6.312  67.174  1.00  0.00    -0.097 C  
BRANCH  12  13
HETATM   13  C   UNL     1      -8.677   7.460  66.952  1.00  0.00    -0.126 C  
HETATM   14  C   UNL     1     -10.089   7.038  66.530  1.00  0.00    -0.079 C  
HETATM   15  O   UNL     1     -10.509   5.855  67.202  1.00  0.00    -0.209 OA 
HETATM   16  C   UNL     1     -10.971   8.194  66.987  1.00  0.00     0.149 C  
HETATM   17  C   UNL     1     -10.385   8.584  68.341  1.00  0.00    -0.202 C  
HETATM   18  H   UNL     1     -11.385   5.594  66.941  1.00  0.00     0.000 HD 
HETATM   19  O   UNL     1     -10.961   7.770  69.368  1.00  0.00    -0.398 OA 
HETATM   20  C   UNL     1      -8.865   8.302  68.246  1.00  0.00    -0.140 C  
HETATM   21  H   UNL     1     -10.596   8.012  70.211  1.00  0.00     0.000 HD 
BRANCH  20  22
HETATM   22  C   UNL     1      -7.940   9.506  68.204  1.00  0.00    -0.094 C  
HETATM   23  C   UNL     1      -7.979  10.573  69.023  1.00  0.00    -0.136 C  
BRANCH  23  24
HETATM   24  C   UNL     1      -7.102  11.805  68.960  1.00  0.00    -0.100 C  
HETATM   25  H   UNL     1      -5.374  12.289  68.173  1.00  0.00     0.000 HD 
HETATM   26  O   UNL     1      -5.924  11.516  68.213  1.00  0.00    -0.046 OA 
BRANCH  24  27
HETATM   27  C   UNL     1      -7.868  12.975  68.311  1.00  0.00    -0.143 C  
BRANCH  27  28
HETATM   28  O   UNL     1      -9.228  12.611  68.023  1.00  0.00    -0.195 OA 
BRANCH  28  29
HETATM   29  C   UNL     1     -10.127  13.638  68.160  1.00  0.00    -0.245 A  
HETATM   30  C   UNL     1     -10.577  14.435  67.104  1.00  0.00    -0.277 A  
HETATM   31  C   UNL     1     -11.506  15.452  67.335  1.00  0.00    -0.197 A  
HETATM   32  C   UNL     1     -11.996  15.672  68.620  1.00  0.00    -0.201 A  
HETATM   33  C   UNL     1     -11.569  14.875  69.689  1.00  0.00    -0.337 A  
HETATM   34  C   UNL     1     -12.098  15.113  71.082  1.00  0.00    -0.333 C  
HETATM   35  C   UNL     1     -10.640  13.848  69.445  1.00  0.00     0.019 A  
HETATM   36  F   UNL     1     -12.955  16.172  71.162  1.00  0.00    -0.464 F  
HETATM   37  F   UNL     1     -11.108  15.374  71.980  1.00  0.00    -0.468 F  
HETATM   38  F   UNL     1     -12.783  14.046  71.575  1.00  0.00    -0.370 F  
ENDBRANCH  28  29
ENDBRANCH  27  28
ENDBRANCH  24  27
ENDBRANCH  23  24
ENDBRANCH  20  22
ENDBRANCH  12  13
ENDBRANCH  11  12
ENDBRANCH   9  10
ENDBRANCH   8   9
ENDBRANCH   7   8
ENDBRANCH   5   7
ENDBRANCH   4   5
ENDBRANCH   2   4
TORSDOF 13
ENDMDL
MODEL      409
REMARK 921   NORMALIZED FREE ENERGY PREDICTED BY IDOCK:   -2.07 KCAL/MOL
REMARK 922        TOTAL FREE ENERGY PREDICTED BY IDOCK:   -5.87 KCAL/MOL
REMARK 923 INTER-LIGAND FREE ENERGY PREDICTED BY IDOCK:   -4.83 KCAL/MOL
REMARK 924 INTRA-LIGAND FREE ENERGY PREDICTED BY IDOCK:   -1.03 KCAL/MOL
REMARK 927      BINDING AFFINITY PREDICTED BY RF-SCORE:    0.00 PKD
ROOT
HETATM    1  C   UNL     1     -12.262  15.395  66.699  1.00  0.00     0.775 C  
HETATM    2  C   UNL     1     -11.106  14.994  65.789  1.00  0.00    -0.346 C  
HETATM    3  C   UNL     1     -10.755  16.128  64.830  1.00  0.00    -0.297 C  
ENDROOT
BRANCH   2   4
HETATM    4  O   UNL     1      -9.940  14.728  66.590  1.00  0.00    -0.250 OA 
BRANCH   4   5
HETATM    5  C   UNL     1      -9.495  13.441  66.545  1.00  0.00    -0.245 C  
HETATM    6  O   UNL     1      -9.937  12.570  65.808  1.00  0.00    -0.261 OA 
BRANCH   5   7
HETATM    7  C   UNL     1      -8.418  13.224  67.575  1.00  0.00    -0.202 C  
BRANCH   7   8
HETATM    8  C   UNL     1      -8.023  11.748  67.611  1.00  0.00    -0.143 C  
BRANCH   8   9
HETATM    9  C   UNL     1      -6.614  11.481  67.089  1.00  0.00    -0.124 C  
BRANCH   9  10
HETATM   10  C   UNL     1      -5.544  12.012  68.003  1.00  0.00    -0.052 C  
HETATM   11  C   UNL     1      -5.525  11.902  69.341  1.00  0.00    -0.064 C  
BRANCH  11  12
HETATM   12  C   UNL     1      -6.609  11.295  70.188  1.00  0.00    -0.002 C  
BRANCH  12  13
HETATM   13  C   UNL     1      -6.438   9.784  70.392  1.00  0.00    -0.101 C  
HETATM   14  C   UNL     1      -5.410   9.373  71.453  1.00  0.00    -0.059 C  
HETATM   15  O   UNL     1      -5.439  10.243  72.580  1.00  0.00    -0.309 OA 
HETATM   16  C   UNL     1      -5.871   7.990  71.896  1.00  0.00    -0.036 C  
HETATM   17  C   UNL     1      -7.391   8.112  71.943  1.00  0.00    -0.089 C  
HETATM   18  H   UNL     1      -4.802   9.988  73.237  1.00  0.00     0.000 HD 
HETATM   19  O   UNL     1      -7.794   8.628  73.216  1.00  0.00    -0.391 OA 
HETATM   20  C   UNL     1      -7.773   9.117  70.829  1.00  0.00    -0.162 C  
HETATM   21  H   UNL     1      -8.741   8.704  73.245  1.00  0.00     0.000 HD 
BRANCH  20  22
HETATM   22  C   UNL     1      -8.484   8.560  69.609  1.00  0.00    -0.130 C  
HETATM   23  C   UNL     1      -9.688   8.937  69.143  1.00  0.00    -0.168 C  
BRANCH  23  24
HETATM   24  C   UNL     1     -10.435   8.354  67.962  1.00  0.00    -0.184 C  
HETATM   25  H   UNL     1     -10.184   8.253  66.021  1.00  0.00     0.000 HD 
HETATM   26  O   UNL     1      -9.715   8.619  66.762  1.00  0.00    -0.190 OA 
BRANCH  24  27
HETATM   27  C   UNL     1     -10.619   6.834  68.144  1.00  0.00    -0.230 C  
BRANCH  27  28
HETATM   28  O   UNL     1      -9.380   6.198  68.496  1.00  0.00    -0.118 OA 
BRANCH  28  29
HETATM   29  C   UNL     1      -9.160   5.001  67.861  1.00  0.00    -0.114 A  
HETATM   30  C   UNL     1      -8.524   3.905  68.449  1.00  0.00    -0.107 A  
HETATM   31  C   UNL     1      -8.354   2.719  67.730  1.00  0.00    -0.094 A  
HETATM   32  C   UNL     1      -8.827   2.622  66.423  1.00  0.00    -0.136 A  
HETATM   33  C   UNL     1      -9.481   3.704  65.821  1.00  0.00    -0.161 A  
HETATM   34  C   UNL     1      -9.992   3.600  64.406  1.00  0.00    -0.197 C  
HETATM   35  C   UNL     1      -9.653   4.890  66.557  1.00  0.00    -0.176 A  
HETATM   36  F   UNL     1      -9.708   2.403  63.814  1.00  0.00    -0.113 F  
HETATM   37  F   UNL     1      -9.463   4.550  63.587  1.00  0.00    -0.149 F  
HETATM   38  F   UNL     1     -11.343   3.740  64.322  1.00  0.00    -0.211 F  
ENDBRANCH  28  29
ENDBRANCH  27  28
ENDBRANCH  24  27
ENDBRANCH  23  24
ENDBRANCH  20  22
ENDBRANCH  12  13
ENDBRANCH  11  12
ENDBRANCH   9  10
ENDBRANCH   8   9
ENDBRANCH   7   8
ENDBRANCH   5   7
ENDBRANCH   4   5
ENDBRANCH   2   4
TORSDOF 13
ENDMDL
MODEL      410
REMARK 921   NORMALIZED FREE ENERGY PREDICTED BY IDOCK:   -2.00 KCAL/MOL
REMARK 922        TOTAL FREE ENERGY PREDICTED BY IDOCK:   -5.74 KCAL/MOL
REMARK 923 INTER-LIGAND FREE ENERGY PREDICTED BY IDOCK:   -5.34 KCAL/MOL
REMARK 924 INTRA-LIGAND FREE ENERGY PREDICTED BY IDOCK:   -0.40 KCAL/MOL
REMARK 927      BINDING AFFINITY PREDICTED BY RF-SCORE:    0.00 PKD
ROOT
HETATM    1  C   UNL     1     -13.055  15.091  70.623  1.00  0.00    -0.365 C  
HETATM    2  C   UNL     1     -12.124  15.410  69.459  1.00  0.00    -0.305 C  
HETATM    3  C   UNL     1     -10.720  15.729  69.961  1.00  0.00    -0.347 C  
ENDROOT
BRANCH   2   4
HETATM    4  O   UNL     1     -12.027  14.259  68.600  1.00  0.00    -0.333 OA 
BRANCH   4   5
HETATM    5  C   UNL     1     -11.255  13.245  69.084  1.00  0.00    -0.251 C  
HETATM    6  O   UNL     1     -11.263  12.849  70.242  1.00  0.00     0.218 OA 
BRANCH   5   7
HETATM    7  C   UNL     1     -10.347  12.718  68.005  1.00  0.00    -0.232 C  
BRANCH   7   8
HETATM    8  C   UNL     1     -11.057  11.612  67.223  1.00  0.00    -0.346 C  
BRANCH   8   9
HETATM    9  C   UNL     1     -11.454  12.024  65.809  1.00  0.00    -0.377 C  
BRANCH   9  10
HETATM   10  C   UNL     1     -10.266  12.255  64.914  1.00  0.00    -0.307 C  
HETATM   11  C   UNL     1      -9.362  11.332  64.551  1.00  0.00    -0.149 C  
BRANCH  11  12
HETATM   12  C   UNL     1      -9.320   9.907  65.031  1.00  0.00    -0.323 C  
BRANCH  12  13
HETATM   13  C   UNL     1      -7.917   9.458  65.460  1.00  0.00    -0.111 C  
HETATM   14  C   UNL     1      -7.051   8.848  64.350  1.00  0.00    -0.089 C  
HETATM   15  O   UNL     1      -7.233   9.523  63.110  1.00  0.00    -0.103 OA 
HETATM   16  C   UNL     1      -5.623   9.084  64.826  1.00  0.00    -0.061 C  
HETATM   17  C   UNL     1      -5.669  10.485  65.430  1.00  0.00    -0.139 C  
HETATM   18  H   UNL     1      -6.696   9.145  62.422  1.00  0.00     0.000 HD 
HETATM   19  O   UNL     1      -5.462  11.460  64.403  1.00  0.00    -0.312 OA 
HETATM   20  C   UNL     1      -7.089  10.647  66.024  1.00  0.00    -0.127 C  
HETATM   21  H   UNL     1      -5.491  12.332  64.779  1.00  0.00     0.000 HD 
BRANCH  20  22
HETATM   22  C   UNL     1      -7.208  10.673  67.538  1.00  0.00    -0.090 C  
HETATM   23  C   UNL     1      -6.948   9.653  68.377  1.00  0.00    -0.065 C  
BRANCH  23  24
HETATM   24  C   UNL     1      -7.115   9.645  69.882  1.00  0.00    -0.095 C  
HETATM   25  H   UNL     1      -6.448  10.691  71.399  1.00  0.00     0.000 HD 
HETATM   26  O   UNL     1      -6.343  10.696  70.455  1.00  0.00    -0.133 OA 
BRANCH  24  27
HETATM   27  C   UNL     1      -8.601   9.813  70.257  1.00  0.00    -0.129 C  
BRANCH  27  28
HETATM   28  O   UNL     1      -8.779   9.819  71.683  1.00  0.00     0.397 OA 
BRANCH  28  29
HETATM   29  C   UNL     1      -8.731   8.576  72.262  1.00  0.00    -0.190 A  
HETATM   30  C   UNL     1      -9.545   8.172  73.324  1.00  0.00    -0.261 A  
HETATM   31  C   UNL     1      -9.436   6.879  73.843  1.00  0.00    -0.255 A  
HETATM   32  C   UNL     1      -8.519   5.983  73.297  1.00  0.00    -0.117 A  
HETATM   33  C   UNL     1      -7.706   6.364  72.223  1.00  0.00    -0.098 A  
HETATM   34  C   UNL     1      -6.712   5.394  71.632  1.00  0.00    -0.056 C  
HETATM   35  C   UNL     1      -7.829   7.665  71.703  1.00  0.00    -0.089 A  
HETATM   36  F   UNL     1      -6.682   4.191  72.276  1.00  0.00    -0.033 F  
HETATM   37  F   UNL     1      -5.435   5.865  71.673  1.00  0.00    -0.018 F  
HETATM   38  F   UNL     1      -6.968   5.108  70.327  1.00  0.00    -0.045 F  
ENDBRANCH  28  29
ENDBRANCH  27  28
ENDBRANCH  24  27
ENDBRANCH  23  24
ENDBRANCH  20  22
ENDBRANCH  12  13
ENDBRANCH  11  12
ENDBRANCH   9  10
ENDBRANCH   8   9
ENDBRANCH   7   8
ENDBRANCH   5   7
ENDBRANCH   4   5
ENDBRANCH   2   4
TORSDOF 13
ENDMDL
MODEL      411
REMARK 921   NORMALIZED FREE ENERGY PREDICTED BY IDOCK:   -1.84 KCAL/MOL
REMARK 922        TOTAL FREE ENERGY PREDICTED BY IDOCK:   -5.47 KCAL/MOL
REMARK 923 INTER-LIGAND FREE ENERGY PREDICTED BY IDOCK:   -7.46 KCAL/MOL
REMARK 924 INTRA-LIGAND FREE ENERGY PREDICTED BY IDOCK:    1.99 KCAL/MOL
REMARK 927      BINDING AFFINITY PREDICTED BY RF-SCORE:    0.00 PKD
ROOT
HETATM    1  C   UNL     1     -10.545   2.482  73.243  1.00  0.00    -0.259 C  
HETATM    2  C   UNL     1      -9.673   3.729  73.144  1.00  0.00    -0.120 C  
HETATM    3  C   UNL     1      -9.850   4.406  71.789  1.00  0.00    -0.253 C  
ENDROOT
BRANCH   2   4
HETATM    4  O   UNL     1     -10.074   4.671  74.155  1.00  0.00    -0.160 OA 
BRANCH   4   5
HETATM    5  C   UNL     1     -10.095   5.972  73.751  1.00  0.00    -0.229 C  
HETATM    6  O   UNL     1      -9.822   6.932  74.459  1.00  0.00    -0.275 OA 
BRANCH   5   7
HETATM    7  C   UNL     1     -10.560   6.068  72.322  1.00  0.00    -0.256 C  
BRANCH   7   8
HETATM    8  C   UNL     1     -11.942   6.719  72.269  1.00  0.00    -0.245 C  
BRANCH   8   9
HETATM    9  C   UNL     1     -11.918   8.160  71.768  1.00  0.00    -0.348 C  
BRANCH   9  10
HETATM   10  C   UNL     1     -10.523   8.679  71.551  1.00  0.00    -0.344 C  
HETATM   11  C   UNL     1      -9.859   8.690  70.384  1.00  0.00    -0.207 C  
BRANCH  11  12
HETATM   12  C   UNL     1     -10.355   8.115  69.087  1.00  0.00    -0.228 C  
BRANCH  12  13
HETATM   13  C   UNL     1      -9.248   7.955  68.037  1.00  0.00    -0.134 C  
HETATM   14  C   UNL     1      -9.504   6.891  66.963  1.00  0.00    -0.151 C  
HETATM   15  O   UNL     1     -10.871   6.864  66.563  1.00  0.00    -0.509 OA 
HETATM   16  C   UNL     1      -8.662   7.352  65.779  1.00  0.00    -0.132 C  
HETATM   17  C   UNL     1      -8.840   8.867  65.776  1.00  0.00    -0.186 C  
HETATM   18  H   UNL     1     -11.029   6.204  65.898  1.00  0.00     0.000 HD 
HETATM   19  O   UNL     1     -10.019   9.213  65.041  1.00  0.00    -0.292 OA 
HETATM   20  C   UNL     1      -9.011   9.280  67.258  1.00  0.00    -0.136 C  
HETATM   21  H   UNL     1     -10.130  10.156  65.039  1.00  0.00     0.000 HD 
BRANCH  20  22
HETATM   22  C   UNL     1      -7.868  10.046  67.899  1.00  0.00    -0.090 C  
HETATM   23  C   UNL     1      -7.973  10.998  68.845  1.00  0.00    -0.138 C  
BRANCH  23  24
HETATM   24  C   UNL     1      -6.849  11.809  69.453  1.00  0.00    -0.067 C  
HETATM   25  H   UNL     1      -5.659  11.665  71.004  1.00  0.00     0.000 HD 
HETATM   26  O   UNL     1      -6.365  11.155  70.622  1.00  0.00    -0.333 OA 
BRANCH  24  27
HETATM   27  C   UNL     1      -5.706  11.989  68.434  1.00  0.00    -0.049 C  
BRANCH  27  28
HETATM   28  O   UNL     1      -6.074  12.917  67.399  1.00  0.00    -0.205 OA 
BRANCH  28  29
HETATM   29  C   UNL     1      -6.609  14.093  67.862  1.00  0.00    -0.165 A  
HETATM   30  C   UNL     1      -5.960  14.956  68.749  1.00  0.00    -0.084 A  
HETATM   31  C   UNL     1      -6.577  16.141  69.157  1.00  0.00    -0.176 A  
HETATM   32  C   UNL     1      -7.841  16.473  68.673  1.00  0.00    -0.226 A  
HETATM   33  C   UNL     1      -8.501  15.629  67.772  1.00  0.00    -0.158 A  
HETATM   34  C   UNL     1      -9.870  15.986  67.249  1.00  0.00    -0.236 C  
HETATM   35  C   UNL     1      -7.867  14.442  67.361  1.00  0.00    -0.211 A  
HETATM   36  F   UNL     1     -10.366  17.143  67.776  1.00  0.00    -0.291 F  
HETATM   37  F   UNL     1     -10.800  15.030  67.522  1.00  0.00    -0.268 F  
HETATM   38  F   UNL     1      -9.890  16.157  65.899  1.00  0.00    -0.297 F  
ENDBRANCH  28  29
ENDBRANCH  27  28
ENDBRANCH  24  27
ENDBRANCH  23  24
ENDBRANCH  20  22
ENDBRANCH  12  13
ENDBRANCH  11  12
ENDBRANCH   9  10
ENDBRANCH   8   9
ENDBRANCH   7   8
ENDBRANCH   5   7
ENDBRANCH   4   5
ENDBRANCH   2   4
TORSDOF 13
ENDMDL
MODEL      412
REMARK 921   NORMALIZED FREE ENERGY PREDICTED BY IDOCK:   -1.45 KCAL/MOL
REMARK 922        TOTAL FREE ENERGY PREDICTED BY IDOCK:   -4.78 KCAL/MOL
REMARK 923 INTER-LIGAND FREE ENERGY PREDICTED BY IDOCK:   -5.22 KCAL/MOL
REMARK 924 INTRA-LIGAND FREE ENERGY PREDICTED BY IDOCK:    0.44 KCAL/MOL
REMARK 927      BINDING AFFINITY PREDICTED BY RF-SCORE:    0.00 PKD
ROOT
HETATM    1  C   UNL     1      -9.697   1.741  66.737  1.00  0.00     0.530 C  
HETATM    2  C   UNL     1      -9.042   2.801  67.616  1.00  0.00    -0.181 C  
HETATM    3  C   UNL     1      -7.780   2.254  68.273  1.00  0.00    -0.054 C  
ENDROOT
BRANCH   2   4
HETATM    4  O   UNL     1      -8.656   3.922  66.800  1.00  0.00    -0.103 OA 
BRANCH   4   5
HETATM    5  C   UNL     1      -9.609   4.886  66.660  1.00  0.00    -0.163 C  
HETATM    6  O   UNL     1     -10.647   4.761  66.025  1.00  0.00    -0.311 OA 
BRANCH   5   7
HETATM    7  C   UNL     1      -9.175   6.153  67.350  1.00  0.00    -0.112 C  
BRANCH   7   8
HETATM    8  C   UNL     1      -7.709   6.039  67.770  1.00  0.00    -0.101 C  
BRANCH   8   9
HETATM    9  C   UNL     1      -7.503   5.242  69.055  1.00  0.00    -0.070 C  
BRANCH   9  10
HETATM   10  C   UNL     1      -6.305   5.702  69.840  1.00  0.00    -0.034 C  
HETATM   11  C   UNL     1      -6.325   6.537  70.891  1.00  0.00    -0.048 C  
BRANCH  11  12
HETATM   12  C   UNL     1      -7.541   7.233  71.437  1.00  0.00    -0.083 C  
BRANCH  12  13
HETATM   13  C   UNL     1      -8.856   6.554  71.032  1.00  0.00    -0.139 C  
HETATM   14  C   UNL     1      -9.174   5.243  71.761  1.00  0.00    -0.138 C  
HETATM   15  O   UNL     1      -8.796   5.298  73.133  1.00  0.00    -0.120 OA 
HETATM   16  C   UNL     1     -10.692   5.135  71.680  1.00  0.00    -0.181 C  
HETATM   17  C   UNL     1     -11.170   6.567  71.902  1.00  0.00    -0.272 C  
HETATM   18  H   UNL     1      -8.994   4.486  73.584  1.00  0.00     0.000 HD 
HETATM   19  O   UNL     1     -11.287   6.824  73.305  1.00  0.00    -0.500 OA 
HETATM   20  C   UNL     1     -10.076   7.481  71.295  1.00  0.00    -0.197 C  
HETATM   21  H   UNL     1     -11.584   7.716  73.443  1.00  0.00     0.000 HD 
BRANCH  20  22
HETATM   22  C   UNL     1     -10.428   8.228  70.021  1.00  0.00    -0.231 C  
HETATM   23  C   UNL     1     -10.165   9.520  69.752  1.00  0.00    -0.249 C  
BRANCH  23  24
HETATM   24  C   UNL     1     -10.558  10.294  68.512  1.00  0.00    -0.213 C  
HETATM   25  H   UNL     1     -12.190  10.582  67.466  1.00  0.00     0.000 HD 
HETATM   26  O   UNL     1     -11.943  10.097  68.244  1.00  0.00    -0.014 OA 
BRANCH  24  27
HETATM   27  C   UNL     1     -10.264  11.795  68.702  1.00  0.00    -0.201 C  
BRANCH  27  28
HETATM   28  O   UNL     1     -11.476  12.566  68.708  1.00  0.00    -0.263 OA 
BRANCH  28  29
HETATM   29  C   UNL     1     -11.301  13.889  69.028  1.00  0.00    -0.283 A  
HETATM   30  C   UNL     1     -12.329  14.740  69.443  1.00  0.00    -0.184 A  
HETATM   31  C   UNL     1     -12.056  16.072  69.762  1.00  0.00    -0.123 A  
HETATM   32  C   UNL     1     -10.753  16.558  69.675  1.00  0.00    -0.323 A  
HETATM   33  C   UNL     1      -9.706  15.717  69.276  1.00  0.00    -0.263 A  
HETATM   34  C   UNL     1      -8.295  16.242  69.181  1.00  0.00    -0.211 C  
HETATM   35  C   UNL     1      -9.991  14.375  68.965  1.00  0.00    -0.135 A  
HETATM   36  F   UNL     1      -8.191  17.572  69.471  1.00  0.00     0.036 F  
HETATM   37  F   UNL     1      -7.765  16.095  67.935  1.00  0.00    -0.129 F  
HETATM   38  F   UNL     1      -7.440  15.611  70.031  1.00  0.00    -0.152 F  
ENDBRANCH  28  29
ENDBRANCH  27  28
ENDBRANCH  24  27
ENDBRANCH  23  24
ENDBRANCH  20  22
ENDBRANCH  12  13
ENDBRANCH  11  12
ENDBRANCH   9  10
ENDBRANCH   8   9
ENDBRANCH   7   8
ENDBRANCH   5   7
ENDBRANCH   4   5
ENDBRANCH   2   4
TORSDOF 13
ENDMDL
MODEL      413
REMARK 921   NORMALIZED FREE ENERGY PREDICTED BY IDOCK:   -1.25 KCAL/MOL
REMARK 922        TOTAL FREE ENERGY PREDICTED BY IDOCK:   -4.43 KCAL/MOL
REMARK 923 INTER-LIGAND FREE ENERGY PREDICTED BY IDOCK:   -4.53 KCAL/MOL
REMARK 924 INTRA-LIGAND FREE ENERGY PREDICTED BY IDOCK:    0.10 KCAL/MOL
REMARK 927      BINDING AFFINITY PREDICTED BY RF-SCORE:    0.00 PKD
ROOT
HETATM    1  C   UNL     1     -10.768  15.830  71.621  1.00  0.00     0.527 C  
HETATM    2  C   UNL     1     -12.096  15.293  72.143  1.00  0.00    -0.396 C  
HETATM    3  C   UNL     1     -12.518  16.035  73.408  1.00  0.00    -0.668 C  
ENDROOT
BRANCH   2   4
HETATM    4  O   UNL     1     -13.118  15.508  71.153  1.00  0.00    -0.472 OA 
BRANCH   4   5
HETATM    5  C   UNL     1     -12.896  14.895  69.956  1.00  0.00    -0.076 C  
HETATM    6  O   UNL     1     -13.409  15.220  68.895  1.00  0.00     1.590 OA 
BRANCH   5   7
HETATM    7  C   UNL     1     -11.972  13.719  70.136  1.00  0.00    -0.404 C  
BRANCH   7   8
HETATM    8  C   UNL     1     -10.693  13.936  69.327  1.00  0.00    -0.117 C  
BRANCH   8   9
HETATM    9  C   UNL     1     -10.209  12.682  68.604  1.00  0.00    -0.165 C  
BRANCH   9  10
HETATM   10  C   UNL     1      -8.825  12.835  68.036  1.00  0.00    -0.195 C  
HETATM   11  C   UNL     1      -8.518  13.345  66.833  1.00  0.00    -0.066 C  
BRANCH  11  12
HETATM   12  C   UNL     1      -9.507  13.791  65.791  1.00  0.00    -0.000 C  
BRANCH  12  13
HETATM   13  C   UNL     1     -10.789  12.949  65.779  1.00  0.00    -0.292 C  
HETATM   14  C   UNL     1     -12.097  13.738  65.643  1.00  0.00    -0.418 C  
HETATM   15  O   UNL     1     -11.959  14.836  64.747  1.00  0.00    -0.411 OA 
HETATM   16  C   UNL     1     -13.071  12.735  65.037  1.00  0.00     0.126 C  
HETATM   17  C   UNL     1     -12.226  11.981  64.016  1.00  0.00    -0.403 C  
HETATM   18  H   UNL     1     -12.770  15.325  64.664  1.00  0.00     0.000 HD 
HETATM   19  O   UNL     1     -12.222  12.692  62.774  1.00  0.00    -0.399 OA 
HETATM   20  C   UNL     1     -10.791  11.939  64.596  1.00  0.00    -0.363 C  
HETATM   21  H   UNL     1     -11.695  12.222  62.138  1.00  0.00     0.000 HD 
BRANCH  20  22
HETATM   22  C   UNL     1     -10.279  10.593  65.079  1.00  0.00    -0.380 C  
HETATM   23  C   UNL     1     -10.319  10.129  66.342  1.00  0.00    -0.258 C  
BRANCH  23  24
HETATM   24  C   UNL     1      -9.763   8.816  66.849  1.00  0.00    -0.210 C  
HETATM   25  H   UNL     1     -10.419   6.985  67.091  1.00  0.00     0.000 HD 
HETATM   26  O   UNL     1     -10.768   7.809  66.772  1.00  0.00    -0.311 OA 
BRANCH  24  27
HETATM   27  C   UNL     1      -8.531   8.399  66.019  1.00  0.00    -0.132 C  
BRANCH  27  28
HETATM   28  O   UNL     1      -8.823   7.261  65.192  1.00  0.00     0.067 OA 
BRANCH  28  29
HETATM   29  C   UNL     1      -7.884   6.262  65.257  1.00  0.00    -0.107 A  
HETATM   30  C   UNL     1      -6.553   6.458  65.633  1.00  0.00    -0.047 A  
HETATM   31  C   UNL     1      -5.668   5.379  65.683  1.00  0.00    -0.014 A  
HETATM   32  C   UNL     1      -6.112   4.097  65.366  1.00  0.00    -0.024 A  
HETATM   33  C   UNL     1      -7.445   3.877  65.002  1.00  0.00    -0.077 A  
HETATM   34  C   UNL     1      -7.927   2.489  64.657  1.00  0.00    -0.078 C  
HETATM   35  C   UNL     1      -8.330   4.969  64.962  1.00  0.00    -0.140 A  
HETATM   36  F   UNL     1      -6.940   1.548  64.699  1.00  0.00    -0.034 F  
HETATM   37  F   UNL     1      -8.453   2.414  63.403  1.00  0.00    -0.081 F  
HETATM   38  F   UNL     1      -8.897   2.044  65.500  1.00  0.00    -0.103 F  
ENDBRANCH  28  29
ENDBRANCH  27  28
ENDBRANCH  24  27
ENDBRANCH  23  24
ENDBRANCH  20  22
ENDBRANCH  12  13
ENDBRANCH  11  12
ENDBRANCH   9  10
ENDBRANCH   8   9
ENDBRANCH   7   8
ENDBRANCH   5   7
ENDBRANCH   4   5
ENDBRANCH   2   4
TORSDOF 13
ENDMDL
MODEL      414
REMARK 921   NORMALIZED FREE ENERGY PREDICTED BY IDOCK:   -1.18 KCAL/MOL
REMARK 922        TOTAL FREE ENERGY PREDICTED BY IDOCK:   -4.30 KCAL/MOL
REMARK 923 INTER-LIGAND FREE ENERGY PREDICTED BY IDOCK:   -4.80 KCAL/MOL
REMARK 924 INTRA-LIGAND FREE ENERGY PREDICTED BY IDOCK:    0.50 KCAL/MOL
REMARK 927      BINDING AFFINITY PREDICTED BY RF-SCORE:    0.00 PKD
ROOT
HETATM    1  C   UNL     1      -8.331  17.717  69.257  1.00  0.00     0.245 C  
HETATM    2  C   UNL     1      -8.508  16.330  68.648  1.00  0.00    -0.221 C  
HETATM    3  C   UNL     1      -8.112  15.247  69.646  1.00  0.00    -0.125 C  
ENDROOT
BRANCH   2   4
HETATM    4  O   UNL     1      -9.894  16.130  68.317  1.00  0.00    -0.219 OA 
BRANCH   4   5
HETATM    5  C   UNL     1     -10.700  15.837  69.377  1.00  0.00    -0.266 C  
HETATM    6  O   UNL     1     -11.022  16.626  70.254  1.00  0.00    -0.300 OA 
BRANCH   5   7
HETATM    7  C   UNL     1     -11.092  14.383  69.348  1.00  0.00    -0.294 C  
BRANCH   7   8
HETATM    8  C   UNL     1     -10.764  13.784  67.980  1.00  0.00    -0.260 C  
BRANCH   8   9
HETATM    9  C   UNL     1     -11.757  14.174  66.889  1.00  0.00    -0.437 C  
BRANCH   9  10
HETATM   10  C   UNL     1     -11.255  15.290  66.015  1.00  0.00    -0.231 C  
HETATM   11  C   UNL     1     -10.719  15.152  64.792  1.00  0.00    -0.344 C  
BRANCH  11  12
HETATM   12  C   UNL     1     -10.447  13.848  64.094  1.00  0.00     0.282 C  
BRANCH  12  13
HETATM   13  C   UNL     1     -10.658  12.626  64.998  1.00  0.00    -0.329 C  
HETATM   14  C   UNL     1     -11.868  11.750  64.653  1.00  0.00    -0.124 C  
HETATM   15  O   UNL     1     -12.049  11.632  63.245  1.00  0.00    -0.851 OA 
HETATM   16  C   UNL     1     -11.503  10.380  65.212  1.00  0.00     1.731 C  
HETATM   17  C   UNL     1     -10.019  10.241  64.889  1.00  0.00    -0.323 C  
HETATM   18  H   UNL     1     -12.799  11.089  63.032  1.00  0.00     0.000 HD 
HETATM   19  O   UNL     1      -9.860   9.717  63.567  1.00  0.00    -0.409 OA 
HETATM   20  C   UNL     1      -9.431  11.672  64.956  1.00  0.00    -0.128 C  
HETATM   21  H   UNL     1      -8.936   9.630  63.366  1.00  0.00     0.000 HD 
BRANCH  20  22
HETATM   22  C   UNL     1      -8.506  11.986  66.118  1.00  0.00     0.172 C  
HETATM   23  C   UNL     1      -7.229  11.582  66.255  1.00  0.00     0.146 C  
BRANCH  23  24
HETATM   24  C   UNL     1      -6.312  11.839  67.432  1.00  0.00    -0.114 C  
HETATM   25  H   UNL     1      -5.690  13.397  68.445  1.00  0.00     0.000 HD 
HETATM   26  O   UNL     1      -6.266  13.236  67.707  1.00  0.00    -0.132 OA 
BRANCH  24  27
HETATM   27  C   UNL     1      -6.806  11.070  68.674  1.00  0.00    -0.064 C  
BRANCH  27  28
HETATM   28  O   UNL     1      -7.607   9.937  68.300  1.00  0.00    -0.080 OA 
BRANCH  28  29
HETATM   29  C   UNL     1      -8.748   9.783  69.046  1.00  0.00    -0.148 A  
HETATM   30  C   UNL     1      -9.771  10.733  69.124  1.00  0.00    -0.181 A  
HETATM   31  C   UNL     1     -10.905  10.485  69.900  1.00  0.00    -0.334 A  
HETATM   32  C   UNL     1     -11.027   9.284  70.595  1.00  0.00    -0.336 A  
HETATM   33  C   UNL     1     -10.020   8.313  70.518  1.00  0.00    -0.198 A  
HETATM   34  C   UNL     1     -10.150   7.013  71.272  1.00  0.00    -0.190 C  
HETATM   35  C   UNL     1      -8.886   8.569  69.727  1.00  0.00    -0.137 A  
HETATM   36  F   UNL     1     -11.284   6.935  72.027  1.00  0.00    -0.248 F  
HETATM   37  F   UNL     1      -9.118   6.803  72.136  1.00  0.00    -0.137 F  
HETATM   38  F   UNL     1     -10.180   5.928  70.450  1.00  0.00    -0.213 F  
ENDBRANCH  28  29
ENDBRANCH  27  28
ENDBRANCH  24  27
ENDBRANCH  23  24
ENDBRANCH  20  22
ENDBRANCH  12  13
ENDBRANCH  11  12
ENDBRANCH   9  10
ENDBRANCH   8   9
ENDBRANCH   7   8
ENDBRANCH   5   7
ENDBRANCH   4   5
ENDBRANCH   2   4
TORSDOF 13
ENDMDL
MODEL      415
REMARK 921   NORMALIZED FREE ENERGY PREDICTED BY IDOCK:   -1.06 KCAL/MOL
REMARK 922        TOTAL FREE ENERGY PREDICTED BY IDOCK:   -4.08 KCAL/MOL
REMARK 923 INTER-LIGAND FREE ENERGY PREDICTED BY IDOCK:   -5.09 KCAL/MOL
REMARK 924 INTRA-LIGAND FREE ENERGY PREDICTED BY IDOCK:    1.00 KCAL/MOL
REMARK 927      BINDING AFFINITY PREDICTED BY RF-SCORE:    0.00 PKD
ROOT
HETATM    1  C   UNL     1     -12.622  14.224  70.818  1.00  0.00    -0.427 C  
HETATM    2  C   UNL     1     -12.647  14.657  69.356  1.00  0.00     0.057 C  
HETATM    3  C   UNL     1     -11.564  15.696  69.082  1.00  0.00    -0.393 C  
ENDROOT
BRANCH   2   4
HETATM    4  O   UNL     1     -12.379  13.519  68.519  1.00  0.00    -0.223 OA 
BRANCH   4   5
HETATM    5  C   UNL     1     -11.439  12.659  69.003  1.00  0.00    -0.303 C  
HETATM    6  O   UNL     1     -11.367  12.277  70.164  1.00  0.00    -0.055 OA 
BRANCH   5   7
HETATM    7  C   UNL     1     -10.461  12.290  67.919  1.00  0.00    -0.227 C  
BRANCH   7   8
HETATM    8  C   UNL     1     -10.708  10.851  67.465  1.00  0.00    -0.299 C  
BRANCH   8   9
HETATM    9  C   UNL     1     -11.246  10.746  66.041  1.00  0.00     0.233 C  
BRANCH   9  10
HETATM   10  C   UNL     1     -10.154  10.666  65.009  1.00  0.00    -0.388 C  
HETATM   11  C   UNL     1      -9.002   9.988  65.133  1.00  0.00    -0.227 C  
BRANCH  11  12
HETATM   12  C   UNL     1      -8.550   9.241  66.357  1.00  0.00    -0.141 C  
BRANCH  12  13
HETATM   13  C   UNL     1      -7.137   9.631  66.811  1.00  0.00    -0.086 C  
HETATM   14  C   UNL     1      -6.177  10.054  65.692  1.00  0.00    -0.088 C  
HETATM   15  O   UNL     1      -6.838  10.822  64.693  1.00  0.00    -0.354 OA 
HETATM   16  C   UNL     1      -5.161  10.946  66.396  1.00  0.00    -0.095 C  
HETATM   17  C   UNL     1      -6.007  11.755  67.375  1.00  0.00    -0.105 C  
HETATM   18  H   UNL     1      -6.243  11.084  64.000  1.00  0.00     0.000 HD 
HETATM   19  O   UNL     1      -6.531  12.913  66.716  1.00  0.00    -0.410 OA 
HETATM   20  C   UNL     1      -7.171  10.828  67.802  1.00  0.00    -0.088 C  
HETATM   21  H   UNL     1      -7.057  13.417  67.325  1.00  0.00     0.000 HD 
BRANCH  20  22
HETATM   22  C   UNL     1      -7.151  10.306  69.228  1.00  0.00    -0.083 C  
HETATM   23  C   UNL     1      -6.664   9.120  69.638  1.00  0.00    -0.046 C  
BRANCH  23  24
HETATM   24  C   UNL     1      -6.688   8.561  71.045  1.00  0.00    -0.054 C  
HETATM   25  H   UNL     1      -5.723   8.871  72.722  1.00  0.00     0.000 HD 
HETATM   26  O   UNL     1      -5.708   9.222  71.839  1.00  0.00    -0.071 OA 
BRANCH  24  27
HETATM   27  C   UNL     1      -8.087   8.741  71.669  1.00  0.00    -0.096 C  
BRANCH  27  28
HETATM   28  O   UNL     1      -8.159   8.129  72.968  1.00  0.00    -0.154 OA 
BRANCH  28  29
HETATM   29  C   UNL     1      -7.971   6.770  72.960  1.00  0.00    -0.104 A  
HETATM   30  C   UNL     1      -7.062   6.097  73.781  1.00  0.00    -0.084 A  
HETATM   31  C   UNL     1      -6.947   4.707  73.715  1.00  0.00    -0.071 A  
HETATM   32  C   UNL     1      -7.746   3.981  72.834  1.00  0.00    -0.076 A  
HETATM   33  C   UNL     1      -8.674   4.635  72.013  1.00  0.00    -0.132 A  
HETATM   34  C   UNL     1      -9.539   3.850  71.058  1.00  0.00    -0.181 C  
HETATM   35  C   UNL     1      -8.787   6.035  72.094  1.00  0.00    -0.135 A  
HETATM   36  F   UNL     1      -9.278   2.511  71.066  1.00  0.00    -0.143 F  
HETATM   37  F   UNL     1      -9.382   4.247  69.765  1.00  0.00    -0.154 F  
HETATM   38  F   UNL     1     -10.866   3.969  71.331  1.00  0.00     0.115 F  
ENDBRANCH  28  29
ENDBRANCH  27  28
ENDBRANCH  24  27
ENDBRANCH  23  24
ENDBRANCH  20  22
ENDBRANCH  12  13
ENDBRANCH  11  12
ENDBRANCH   9  10
ENDBRANCH   8   9
ENDBRANCH   7   8
ENDBRANCH   5   7
ENDBRANCH   4   5
ENDBRANCH   2   4
TORSDOF 13
ENDMDL
MODEL      416
REMARK 921   NORMALIZED FREE ENERGY PREDICTED BY IDOCK:   -0.55 KCAL/MOL
REMARK 922        TOTAL FREE ENERGY PREDICTED BY IDOCK:   -3.19 KCAL/MOL
REMARK 923 INTER-LIGAND FREE ENERGY PREDICTED BY IDOCK:   -5.81 KCAL/MOL
REMARK 924 INTRA-LIGAND FREE ENERGY PREDICTED BY IDOCK:    2.63 KCAL/MOL
REMARK 927      BINDING AFFINITY PREDICTED BY RF-SCORE:    0.00 PKD
ROOT
HETATM    1  C   UNL     1     -11.530  19.006  67.919  1.00  0.00     0.900 C  
HETATM    2  C   UNL     1     -10.568  18.694  66.777  1.00  0.00    -0.371 C  
HETATM    3  C   UNL     1     -10.823  19.616  65.589  1.00  0.00    -0.358 C  
ENDROOT
BRANCH   2   4
HETATM    4  O   UNL     1      -9.217  18.918  67.219  1.00  0.00    -0.279 OA 
BRANCH   4   5
HETATM    5  C   UNL     1      -9.036  18.851  68.569  1.00  0.00    -0.352 C  
HETATM    6  O   UNL     1      -8.740  19.798  69.285  1.00  0.00    -0.129 OA 
BRANCH   5   7
HETATM    7  C   UNL     1      -9.195  17.432  69.047  1.00  0.00    -0.093 C  
BRANCH   7   8
HETATM    8  C   UNL     1      -8.929  16.464  67.895  1.00  0.00    -0.196 C  
BRANCH   8   9
HETATM    9  C   UNL     1      -8.175  15.206  68.317  1.00  0.00    -0.144 C  
BRANCH   9  10
HETATM   10  C   UNL     1      -7.416  14.574  67.182  1.00  0.00    -0.002 C  
HETATM   11  C   UNL     1      -7.589  13.327  66.717  1.00  0.00     0.571 C  
BRANCH  11  12
HETATM   12  C   UNL     1      -8.522  12.297  67.292  1.00  0.00    -0.181 C  
BRANCH  12  13
HETATM   13  C   UNL     1      -9.991  12.740  67.276  1.00  0.00    -0.219 C  
HETATM   14  C   UNL     1     -10.308  13.946  66.384  1.00  0.00    -0.289 C  
HETATM   15  O   UNL     1      -9.563  13.914  65.171  1.00  0.00    -0.559 OA 
HETATM   16  C   UNL     1     -11.785  13.780  66.051  1.00  0.00    -0.383 C  
HETATM   17  C   UNL     1     -11.940  12.278  65.828  1.00  0.00    -0.293 C  
HETATM   18  H   UNL     1      -9.759  14.662  64.618  1.00  0.00     0.000 HD 
HETATM   19  O   UNL     1     -11.622  11.958  64.469  1.00  0.00    -0.322 OA 
HETATM   20  C   UNL     1     -10.921  11.599  66.775  1.00  0.00    -0.341 C  
HETATM   21  H   UNL     1     -11.717  11.023  64.331  1.00  0.00     0.000 HD 
BRANCH  20  22
HETATM   22  C   UNL     1     -11.482  10.844  67.967  1.00  0.00    -0.356 C  
HETATM   23  C   UNL     1     -11.039   9.668  68.450  1.00  0.00    -0.090 C  
BRANCH  23  24
HETATM   24  C   UNL     1     -11.622   8.876  69.600  1.00  0.00     0.412 C  
HETATM   25  H   UNL     1     -11.330   7.118  70.417  1.00  0.00     0.000 HD 
HETATM   26  O   UNL     1     -10.964   7.616  69.695  1.00  0.00    -0.226 OA 
BRANCH  24  27
HETATM   27  C   UNL     1     -11.466   9.655  70.921  1.00  0.00    -0.353 C  
BRANCH  27  28
HETATM   28  O   UNL     1     -11.879   8.861  72.045  1.00  0.00    -0.346 OA 
BRANCH  28  29
HETATM   29  C   UNL     1     -10.891   8.061  72.563  1.00  0.00    -0.349 A  
HETATM   30  C   UNL     1      -9.671   8.536  73.051  1.00  0.00    -0.063 A  
HETATM   31  C   UNL     1      -8.727   7.649  73.573  1.00  0.00    -0.267 A  
HETATM   32  C   UNL     1      -9.001   6.284  73.616  1.00  0.00    -0.129 A  
HETATM   33  C   UNL     1     -10.223   5.789  73.145  1.00  0.00    -0.212 A  
HETATM   34  C   UNL     1     -10.521   4.311  73.190  1.00  0.00    -0.181 C  
HETATM   35  C   UNL     1     -11.170   6.692  72.630  1.00  0.00    -0.285 A  
HETATM   36  F   UNL     1      -9.486   3.565  73.675  1.00  0.00    -0.098 F  
HETATM   37  F   UNL     1     -10.800   3.796  71.961  1.00  0.00    -0.057 F  
HETATM   38  F   UNL     1     -11.591   4.012  73.976  1.00  0.00    -0.173 F  
ENDBRANCH  28  29
ENDBRANCH  27  28
ENDBRANCH  24  27
ENDBRANCH  23  24
ENDBRANCH  20  22
ENDBRANCH  12  13
ENDBRANCH  11  12
ENDBRANCH   9  10
ENDBRANCH   8   9
ENDBRANCH   7   8
ENDBRANCH   5   7
ENDBRANCH   4   5
ENDBRANCH   2   4
TORSDOF 13
ENDMDL
MODEL      417
REMARK 921   NORMALIZED FREE ENERGY PREDICTED BY IDOCK:   -0.25 KCAL/MOL
REMARK 922        TOTAL FREE ENERGY PREDICTED BY IDOCK:   -2.67 KCAL/MOL
REMARK 923 INTER-LIGAND FREE ENERGY PREDICTED BY IDOCK:   -3.34 KCAL/MOL
REMARK 924 INTRA-LIGAND FREE ENERGY PREDICTED BY IDOCK:    0.67 KCAL/MOL
REMARK 927      BINDING AFFINITY PREDICTED BY RF-SCORE:    0.00 PKD
ROOT
HETATM    1  C   UNL     1      -9.919   1.702  66.757  1.00  0.00     1.071 C  
HETATM    2  C   UNL     1      -9.308   2.909  67.460  1.00  0.00    -0.174 C  
HETATM    3  C   UNL     1      -7.892   2.597  67.935  1.00  0.00    -0.059 C  
ENDROOT
BRANCH   2   4
HETATM    4  O   UNL     1      -9.222   4.006  66.532  1.00  0.00    -0.140 OA 
BRANCH   4   5
HETATM    5  C   UNL     1     -10.112   5.015  66.753  1.00  0.00    -0.239 C  
HETATM    6  O   UNL     1     -11.281   4.860  67.079  1.00  0.00     0.724 OA 
BRANCH   5   7
HETATM    7  C   UNL     1      -9.469   6.348  66.479  1.00  0.00    -0.189 C  
BRANCH   7   8
HETATM    8  C   UNL     1      -8.078   6.140  65.879  1.00  0.00    -0.121 C  
BRANCH   8   9
HETATM    9  C   UNL     1      -7.165   5.274  66.742  1.00  0.00    -0.078 C  
BRANCH   9  10
HETATM   10  C   UNL     1      -5.723   5.697  66.669  1.00  0.00    -0.017 C  
HETATM   11  C   UNL     1      -5.126   6.600  67.462  1.00  0.00    -0.008 C  
BRANCH  11  12
HETATM   12  C   UNL     1      -5.803   7.419  68.526  1.00  0.00    -0.023 C  
BRANCH  12  13
HETATM   13  C   UNL     1      -7.018   6.715  69.145  1.00  0.00    -0.078 C  
HETATM   14  C   UNL     1      -6.697   5.518  70.048  1.00  0.00    -0.048 C  
HETATM   15  O   UNL     1      -5.532   5.746  70.833  1.00  0.00    -0.012 OA 
HETATM   16  C   UNL     1      -7.900   5.426  70.979  1.00  0.00    -0.103 C  
HETATM   17  C   UNL     1      -8.225   6.883  71.296  1.00  0.00    -0.114 C  
HETATM   18  H   UNL     1      -5.334   5.004  71.392  1.00  0.00     0.000 HD 
HETATM   19  O   UNL     1      -7.432   7.325  72.402  1.00  0.00    -0.081 OA 
HETATM   20  C   UNL     1      -7.847   7.690  70.029  1.00  0.00    -0.101 C  
HETATM   21  H   UNL     1      -7.634   8.232  72.599  1.00  0.00     0.000 HD 
BRANCH  20  22
HETATM   22  C   UNL     1      -8.988   8.268  69.211  1.00  0.00    -0.147 C  
HETATM   23  C   UNL     1      -9.101   9.539  68.784  1.00  0.00    -0.133 C  
BRANCH  23  24
HETATM   24  C   UNL     1     -10.257  10.145  68.017  1.00  0.00    -0.173 C  
HETATM   25  H   UNL     1     -12.210  10.188  68.175  1.00  0.00     0.000 HD 
HETATM   26  O   UNL     1     -11.484   9.808  68.656  1.00  0.00    -0.004 OA 
BRANCH  24  27
HETATM   27  C   UNL     1     -10.104  11.678  67.939  1.00  0.00    -0.187 C  
BRANCH  27  28
HETATM   28  O   UNL     1     -11.161  12.342  68.650  1.00  0.00    -0.228 OA 
BRANCH  28  29
HETATM   29  C   UNL     1     -11.253  13.687  68.394  1.00  0.00    -0.276 A  
HETATM   30  C   UNL     1     -11.875  14.608  69.241  1.00  0.00    -0.357 A  
HETATM   31  C   UNL     1     -11.910  15.963  68.905  1.00  0.00    -0.314 A  
HETATM   32  C   UNL     1     -11.317  16.406  67.725  1.00  0.00    -0.034 A  
HETATM   33  C   UNL     1     -10.675  15.502  66.870  1.00  0.00    -0.317 A  
HETATM   34  C   UNL     1     -10.033  15.979  65.591  1.00  0.00    -0.313 C  
HETATM   35  C   UNL     1     -10.638  14.140  67.222  1.00  0.00    -0.277 A  
HETATM   36  F   UNL     1     -10.193  17.316  65.371  1.00  0.00    -0.210 F  
HETATM   37  F   UNL     1     -10.540  15.362  64.488  1.00  0.00    -0.388 F  
HETATM   38  F   UNL     1      -8.690  15.759  65.562  1.00  0.00    -0.190 F  
ENDBRANCH  28  29
ENDBRANCH  27  28
ENDBRANCH  24  27
ENDBRANCH  23  24
ENDBRANCH  20  22
ENDBRANCH  12  13
ENDBRANCH  11  12
ENDBRANCH   9  10
ENDBRANCH   8   9
ENDBRANCH   7   8
ENDBRANCH   5   7
ENDBRANCH   4   5
ENDBRANCH   2   4
TORSDOF 13
ENDMDL
MODEL      418
REMARK 921   NORMALIZED FREE ENERGY PREDICTED BY IDOCK:   -0.25 KCAL/MOL
REMARK 922        TOTAL FREE ENERGY PREDICTED BY IDOCK:   -2.65 KCAL/MOL
REMARK 923 INTER-LIGAND FREE ENERGY PREDICTED BY IDOCK:   -4.04 KCAL/MOL
REMARK 924 INTRA-LIGAND FREE ENERGY PREDICTED BY IDOCK:    1.39 KCAL/MOL
REMARK 927      BINDING AFFINITY PREDICTED BY RF-SCORE:    0.00 PKD
ROOT
HETATM    1  C   UNL     1     -11.843  15.796  66.730  1.00  0.00     0.648 C  
HETATM    2  C   UNL     1     -10.700  16.036  65.748  1.00  0.00    -0.301 C  
HETATM    3  C   UNL     1     -10.568  17.521  65.426  1.00  0.00    -0.005 C  
ENDROOT
BRANCH   2   4
HETATM    4  O   UNL     1      -9.463  15.610  66.347  1.00  0.00    -0.245 OA 
BRANCH   4   5
HETATM    5  C   UNL     1      -9.591  15.007  67.563  1.00  0.00    -0.203 C  
HETATM    6  O   UNL     1      -9.657  15.595  68.634  1.00  0.00    -0.190 OA 
BRANCH   5   7
HETATM    7  C   UNL     1      -9.580  13.509  67.407  1.00  0.00    -0.227 C  
BRANCH   7   8
HETATM    8  C   UNL     1     -10.505  12.873  68.445  1.00  0.00    -0.260 C  
BRANCH   8   9
HETATM    9  C   UNL     1      -9.782  11.956  69.426  1.00  0.00     0.688 C  
BRANCH   9  10
HETATM   10  C   UNL     1     -10.690  10.924  70.037  1.00  0.00    -0.049 C  
HETATM   11  C   UNL     1     -10.350   9.666  70.358  1.00  0.00    -0.350 C  
BRANCH  11  12
HETATM   12  C   UNL     1      -9.016   9.023  70.095  1.00  0.00    -0.200 C  
BRANCH  12  13
HETATM   13  C   UNL     1      -8.623   9.034  68.612  1.00  0.00    -0.129 C  
HETATM   14  C   UNL     1      -7.888  10.292  68.133  1.00  0.00    -0.104 C  
HETATM   15  O   UNL     1      -6.975  10.774  69.113  1.00  0.00    -0.071 OA 
HETATM   16  C   UNL     1      -7.095   9.816  66.922  1.00  0.00    -0.089 C  
HETATM   17  C   UNL     1      -6.591   8.437  67.338  1.00  0.00    -0.059 C  
HETATM   18  H   UNL     1      -6.519  11.553  68.816  1.00  0.00     0.000 HD 
HETATM   19  O   UNL     1      -5.363   8.570  68.061  1.00  0.00    -0.033 OA 
HETATM   20  C   UNL     1      -7.680   7.847  68.267  1.00  0.00    -0.121 C  
HETATM   21  H   UNL     1      -5.050   7.711  68.320  1.00  0.00     0.000 HD 
BRANCH  20  22
HETATM   22  C   UNL     1      -8.501   6.691  67.723  1.00  0.00    -0.122 C  
HETATM   23  C   UNL     1      -8.927   6.539  66.455  1.00  0.00    -0.152 C  
BRANCH  23  24
HETATM   24  C   UNL     1      -9.792   5.423  65.911  1.00  0.00    -0.043 C  
HETATM   25  H   UNL     1      -9.550   3.546  65.401  1.00  0.00     0.000 HD 
HETATM   26  O   UNL     1      -9.007   4.247  65.743  1.00  0.00    -0.121 OA 
BRANCH  24  27
HETATM   27  C   UNL     1     -10.969   5.142  66.867  1.00  0.00     0.329 C  
BRANCH  27  28
HETATM   28  O   UNL     1     -10.997   6.088  67.949  1.00  0.00    -0.302 OA 
BRANCH  28  29
HETATM   29  C   UNL     1     -10.624   5.566  69.162  1.00  0.00    -0.230 A  
HETATM   30  C   UNL     1      -9.855   4.410  69.318  1.00  0.00    -0.218 A  
HETATM   31  C   UNL     1      -9.511   3.959  70.594  1.00  0.00    -0.244 A  
HETATM   32  C   UNL     1      -9.927   4.666  71.720  1.00  0.00    -0.260 A  
HETATM   33  C   UNL     1     -10.686   5.835  71.585  1.00  0.00    -0.314 A  
HETATM   34  C   UNL     1     -11.138   6.601  72.804  1.00  0.00    -0.249 C  
HETATM   35  C   UNL     1     -11.020   6.285  70.295  1.00  0.00    -0.400 A  
HETATM   36  F   UNL     1     -10.773   6.012  73.980  1.00  0.00    -0.259 F  
HETATM   37  F   UNL     1     -12.492   6.735  72.865  1.00  0.00     0.164 F  
HETATM   38  F   UNL     1     -10.632   7.863  72.851  1.00  0.00    -0.322 F  
ENDBRANCH  28  29
ENDBRANCH  27  28
ENDBRANCH  24  27
ENDBRANCH  23  24
ENDBRANCH  20  22
ENDBRANCH  12  13
ENDBRANCH  11  12
ENDBRANCH   9  10
ENDBRANCH   8   9
ENDBRANCH   7   8
ENDBRANCH   5   7
ENDBRANCH   4   5
ENDBRANCH   2   4
TORSDOF 13
ENDMDL
MODEL      419
REMARK 921   NORMALIZED FREE ENERGY PREDICTED BY IDOCK:   -0.05 KCAL/MOL
REMARK 922        TOTAL FREE ENERGY PREDICTED BY IDOCK:   -2.30 KCAL/MOL
REMARK 923 INTER-LIGAND FREE ENERGY PREDICTED BY IDOCK:   -2.02 KCAL/MOL
REMARK 924 INTRA-LIGAND FREE ENERGY PREDICTED BY IDOCK:   -0.29 KCAL/MOL
REMARK 927      BINDING AFFINITY PREDICTED BY RF-SCORE:    0.00 PKD
ROOT
HETATM    1  C   UNL     1     -14.297   8.710  70.865  1.00  0.00     0.121 C  
HETATM    2  C   UNL     1     -13.286   7.587  71.073  1.00  0.00    -0.067 C  
HETATM    3  C   UNL     1     -12.682   7.151  69.742  1.00  0.00     1.634 C  
ENDROOT
BRANCH   2   4
HETATM    4  O   UNL     1     -12.210   8.064  71.902  1.00  0.00    -0.292 OA 
BRANCH   4   5
HETATM    5  C   UNL     1     -10.961   7.729  71.470  1.00  0.00    -0.233 C  
HETATM    6  O   UNL     1     -10.612   6.606  71.134  1.00  0.00    -0.221 OA 
BRANCH   5   7
HETATM    7  C   UNL     1     -10.052   8.928  71.522  1.00  0.00    -0.394 C  
BRANCH   7   8
HETATM    8  C   UNL     1      -9.022   8.751  72.639  1.00  0.00     0.069 C  
BRANCH   8   9
HETATM    9  C   UNL     1      -7.705   8.146  72.162  1.00  0.00    -0.149 C  
BRANCH   9  10
HETATM   10  C   UNL     1      -7.068   8.937  71.052  1.00  0.00    -0.090 C  
HETATM   11  C   UNL     1      -7.452   8.937  69.765  1.00  0.00    -0.057 C  
BRANCH  11  12
HETATM   12  C   UNL     1      -8.542   8.087  69.174  1.00  0.00    -0.137 C  
BRANCH  12  13
HETATM   13  C   UNL     1      -8.423   7.929  67.652  1.00  0.00    -0.127 C  
HETATM   14  C   UNL     1      -7.814   6.607  67.172  1.00  0.00    -0.105 C  
HETATM   15  O   UNL     1      -8.244   5.508  67.968  1.00  0.00    -0.100 OA 
HETATM   16  C   UNL     1      -8.372   6.433  65.764  1.00  0.00    -0.146 C  
HETATM   17  C   UNL     1      -9.818   6.904  65.888  1.00  0.00     0.486 C  
HETATM   18  H   UNL     1      -7.866   4.688  67.670  1.00  0.00     0.000 HD 
HETATM   19  O   UNL     1     -10.643   5.819  66.323  1.00  0.00    -0.447 OA 
HETATM   20  C   UNL     1      -9.814   8.018  66.963  1.00  0.00    -0.295 C  
HETATM   21  H   UNL     1     -11.544   6.112  66.401  1.00  0.00     0.000 HD 
BRANCH  20  22
HETATM   22  C   UNL     1     -10.052   9.440  66.487  1.00  0.00    -0.332 C  
HETATM   23  C   UNL     1     -10.681  10.417  67.167  1.00  0.00    -0.316 C  
BRANCH  23  24
HETATM   24  C   UNL     1     -10.975  11.821  66.684  1.00  0.00    -0.294 C  
HETATM   25  H   UNL     1     -12.556  12.963  66.490  1.00  0.00     0.000 HD 
HETATM   26  O   UNL     1     -12.371  12.082  66.793  1.00  0.00    -0.340 OA 
BRANCH  24  27
HETATM   27  C   UNL     1     -10.178  12.850  67.511  1.00  0.00    -0.213 C  
BRANCH  27  28
HETATM   28  O   UNL     1      -9.237  12.201  68.381  1.00  0.00    -0.192 OA 
BRANCH  28  29
HETATM   29  C   UNL     1      -7.992  12.777  68.394  1.00  0.00    -0.137 A  
HETATM   30  C   UNL     1      -6.892  12.290  67.684  1.00  0.00    -0.124 A  
HETATM   31  C   UNL     1      -5.663  12.951  67.746  1.00  0.00    -0.135 A  
HETATM   32  C   UNL     1      -5.530  14.106  68.512  1.00  0.00    -0.097 A  
HETATM   33  C   UNL     1      -6.623  14.620  69.219  1.00  0.00    -0.128 A  
HETATM   34  C   UNL     1      -6.480  15.871  70.051  1.00  0.00    -0.055 C  
HETATM   35  C   UNL     1      -7.859  13.951  69.143  1.00  0.00     0.151 A  
HETATM   36  F   UNL     1      -5.211  16.374  70.058  1.00  0.00    -0.126 F  
HETATM   37  F   UNL     1      -6.803  15.670  71.358  1.00  0.00     1.080 F  
HETATM   38  F   UNL     1      -7.276  16.885  69.617  1.00  0.00    -0.206 F  
ENDBRANCH  28  29
ENDBRANCH  27  28
ENDBRANCH  24  27
ENDBRANCH  23  24
ENDBRANCH  20  22
ENDBRANCH  12  13
ENDBRANCH  11  12
ENDBRANCH   9  10
ENDBRANCH   8   9
ENDBRANCH   7   8
ENDBRANCH   5   7
ENDBRANCH   4   5
ENDBRANCH   2   4
TORSDOF 13
ENDMDL
MODEL      420
REMARK 921   NORMALIZED FREE ENERGY PREDICTED BY IDOCK:    0.01 KCAL/MOL
REMARK 922        TOTAL FREE ENERGY PREDICTED BY IDOCK:   -2.21 KCAL/MOL
REMARK 923 INTER-LIGAND FREE ENERGY PREDICTED BY IDOCK:   -3.58 KCAL/MOL
REMARK 924 INTRA-LIGAND FREE ENERGY PREDICTED BY IDOCK:    1.37 KCAL/MOL
REMARK 927      BINDING AFFINITY PREDICTED BY RF-SCORE:    0.00 PKD
ROOT
HETATM    1  C   UNL     1     -11.267   4.542  64.437  1.00  0.00     0.513 C  
HETATM    2  C   UNL     1     -10.157   5.177  65.268  1.00  0.00     0.262 C  
HETATM    3  C   UNL     1     -10.732   6.192  66.251  1.00  0.00     0.086 C  
ENDROOT
BRANCH   2   4
HETATM    4  O   UNL     1      -9.495   4.157  66.037  1.00  0.00    -0.155 OA 
BRANCH   4   5
HETATM    5  C   UNL     1      -8.318   3.715  65.510  1.00  0.00    -0.105 C  
HETATM    6  O   UNL     1      -7.840   4.088  64.447  1.00  0.00    -0.083 OA 
BRANCH   5   7
HETATM    7  C   UNL     1      -7.715   2.656  66.395  1.00  0.00    -0.076 C  
BRANCH   7   8
HETATM    8  C   UNL     1      -6.418   3.176  67.017  1.00  0.00    -0.037 C  
BRANCH   8   9
HETATM    9  C   UNL     1      -6.248   2.791  68.484  1.00  0.00    -0.029 C  
BRANCH   9  10
HETATM   10  C   UNL     1      -7.524   2.293  69.107  1.00  0.00    -0.043 C  
HETATM   11  C   UNL     1      -8.649   3.006  69.273  1.00  0.00    -0.113 C  
BRANCH  11  12
HETATM   12  C   UNL     1      -8.825   4.461  68.938  1.00  0.00    -0.134 C  
BRANCH  12  13
HETATM   13  C   UNL     1      -8.133   5.397  69.937  1.00  0.00    -0.088 C  
HETATM   14  C   UNL     1      -6.603   5.438  69.853  1.00  0.00    -0.046 C  
HETATM   15  O   UNL     1      -6.148   5.376  68.505  1.00  0.00    -0.023 OA 
HETATM   16  C   UNL     1      -6.239   6.802  70.426  1.00  0.00    -0.035 C  
HETATM   17  C   UNL     1      -7.316   7.729  69.869  1.00  0.00    -0.079 C  
HETATM   18  H   UNL     1      -5.199   5.402  68.453  1.00  0.00     0.000 HD 
HETATM   19  O   UNL     1      -6.927   8.195  68.573  1.00  0.00    -0.068 OA 
HETATM   20  C   UNL     1      -8.598   6.869  69.749  1.00  0.00    -0.141 C  
HETATM   21  H   UNL     1      -7.598   8.772  68.226  1.00  0.00     0.000 HD 
BRANCH  20  22
HETATM   22  C   UNL     1      -9.726   7.171  70.719  1.00  0.00    -0.171 C  
HETATM   23  C   UNL     1     -11.011   6.789  70.596  1.00  0.00    -0.313 C  
BRANCH  23  24
HETATM   24  C   UNL     1     -12.157   7.129  71.523  1.00  0.00    -0.342 C  
HETATM   25  H   UNL     1     -12.406   7.398  73.449  1.00  0.00     0.000 HD 
HETATM   26  O   UNL     1     -11.686   7.184  72.866  1.00  0.00    -0.142 OA 
BRANCH  24  27
HETATM   27  C   UNL     1     -12.785   8.480  71.126  1.00  0.00    -0.110 C  
BRANCH  27  28
HETATM   28  O   UNL     1     -12.016   9.581  71.637  1.00  0.00    -0.362 OA 
BRANCH  28  29
HETATM   29  C   UNL     1     -12.465  10.815  71.238  1.00  0.00    -0.399 A  
HETATM   30  C   UNL     1     -13.345  11.608  71.978  1.00  0.00    -0.405 A  
HETATM   31  C   UNL     1     -13.739  12.860  71.499  1.00  0.00     0.195 A  
HETATM   32  C   UNL     1     -13.249  13.327  70.281  1.00  0.00     0.642 A  
HETATM   33  C   UNL     1     -12.354  12.554  69.532  1.00  0.00     0.009 A  
HETATM   34  C   UNL     1     -11.823  13.059  68.213  1.00  0.00    -0.343 C  
HETATM   35  C   UNL     1     -11.957  11.299  70.027  1.00  0.00    -0.447 A  
HETATM   36  F   UNL     1     -12.337  14.270  67.850  1.00  0.00    -0.362 F  
HETATM   37  F   UNL     1     -12.103  12.217  67.179  1.00  0.00    -0.411 F  
HETATM   38  F   UNL     1     -10.472  13.217  68.215  1.00  0.00    -0.221 F  
ENDBRANCH  28  29
ENDBRANCH  27  28
ENDBRANCH  24  27
ENDBRANCH  23  24
ENDBRANCH  20  22
ENDBRANCH  12  13
ENDBRANCH  11  12
ENDBRANCH   9  10
ENDBRANCH   8   9
ENDBRANCH   7   8
ENDBRANCH   5   7
ENDBRANCH   4   5
ENDBRANCH   2   4
TORSDOF 13
ENDMDL
MODEL      421
REMARK 921   NORMALIZED FREE ENERGY PREDICTED BY IDOCK:    0.01 KCAL/MOL
REMARK 922        TOTAL FREE ENERGY PREDICTED BY IDOCK:   -2.21 KCAL/MOL
REMARK 923 INTER-LIGAND FREE ENERGY PREDICTED BY IDOCK:   -3.83 KCAL/MOL
REMARK 924 INTRA-LIGAND FREE ENERGY PREDICTED BY IDOCK:    1.61 KCAL/MOL
REMARK 927      BINDING AFFINITY PREDICTED BY RF-SCORE:    0.00 PKD
ROOT
HETATM    1  C   UNL     1      -5.879   3.318  72.495  1.00  0.00    -0.008 C  
HETATM    2  C   UNL     1      -7.255   3.641  71.921  1.00  0.00    -0.050 C  
HETATM    3  C   UNL     1      -8.349   3.349  72.944  1.00  0.00    -0.081 C  
ENDROOT
BRANCH   2   4
HETATM    4  O   UNL     1      -7.321   5.043  71.605  1.00  0.00    -0.070 OA 
BRANCH   4   5
HETATM    5  C   UNL     1      -8.264   5.379  70.680  1.00  0.00    -0.114 C  
HETATM    6  O   UNL     1      -9.344   4.821  70.543  1.00  0.00    -0.134 OA 
BRANCH   5   7
HETATM    7  C   UNL     1      -7.763   6.499  69.807  1.00  0.00    -0.113 C  
BRANCH   7   8
HETATM    8  C   UNL     1      -8.369   6.378  68.408  1.00  0.00    -0.116 C  
BRANCH   8   9
HETATM    9  C   UNL     1      -8.146   5.013  67.763  1.00  0.00    -0.098 C  
BRANCH   9  10
HETATM   10  C   UNL     1      -9.297   4.584  66.894  1.00  0.00    -0.156 C  
HETATM   11  C   UNL     1     -10.141   5.402  66.245  1.00  0.00    -0.209 C  
BRANCH  11  12
HETATM   12  C   UNL     1     -10.144   6.903  66.324  1.00  0.00     0.084 C  
BRANCH  12  13
HETATM   13  C   UNL     1      -8.879   7.540  65.735  1.00  0.00    -0.122 C  
HETATM   14  C   UNL     1      -8.171   6.720  64.650  1.00  0.00    -0.032 C  
HETATM   15  O   UNL     1      -9.101   6.065  63.794  1.00  0.00    -0.024 OA 
HETATM   16  C   UNL     1      -7.413   7.762  63.836  1.00  0.00    -0.107 C  
HETATM   17  C   UNL     1      -8.385   8.936  63.756  1.00  0.00    -0.161 C  
HETATM   18  H   UNL     1      -8.662   5.556  63.121  1.00  0.00     0.000 HD 
HETATM   19  O   UNL     1      -9.273   8.751  62.648  1.00  0.00    -0.480 OA 
HETATM   20  C   UNL     1      -9.190   8.914  65.078  1.00  0.00    -0.033 C  
HETATM   21  H   UNL     1      -9.878   9.482  62.599  1.00  0.00     0.000 HD 
BRANCH  20  22
HETATM   22  C   UNL     1      -8.913  10.026  66.074  1.00  0.00    -0.174 C  
HETATM   23  C   UNL     1      -8.071   9.969  67.122  1.00  0.00    -0.117 C  
BRANCH  23  24
HETATM   24  C   UNL     1      -7.825  11.047  68.156  1.00  0.00    -0.116 C  
HETATM   25  H   UNL     1      -8.190  12.964  68.336  1.00  0.00     0.000 HD 
HETATM   26  O   UNL     1      -8.344  12.287  67.687  1.00  0.00    -0.146 OA 
BRANCH  24  27
HETATM   27  C   UNL     1      -8.491  10.667  69.495  1.00  0.00     0.026 C  
BRANCH  27  28
HETATM   28  O   UNL     1      -9.839  10.213  69.294  1.00  0.00    -0.197 OA 
BRANCH  28  29
HETATM   29  C   UNL     1     -10.779  11.214  69.314  1.00  0.00    -0.199 A  
HETATM   30  C   UNL     1     -11.095  12.016  68.215  1.00  0.00    -0.290 A  
HETATM   31  C   UNL     1     -12.076  13.005  68.323  1.00  0.00    -0.197 A  
HETATM   32  C   UNL     1     -12.751  13.189  69.527  1.00  0.00     0.501 A  
HETATM   33  C   UNL     1     -12.460  12.385  70.636  1.00  0.00    -0.320 A  
HETATM   34  C   UNL     1     -13.190  12.585  71.941  1.00  0.00    -0.392 C  
HETATM   35  C   UNL     1     -11.476  11.387  70.514  1.00  0.00    -0.005 A  
HETATM   36  F   UNL     1     -14.080  13.619  71.911  1.00  0.00    -0.454 F  
HETATM   37  F   UNL     1     -12.347  12.856  72.976  1.00  0.00     0.647 F  
HETATM   38  F   UNL     1     -13.908  11.492  72.316  1.00  0.00    -0.365 F  
ENDBRANCH  28  29
ENDBRANCH  27  28
ENDBRANCH  24  27
ENDBRANCH  23  24
ENDBRANCH  20  22
ENDBRANCH  12  13
ENDBRANCH  11  12
ENDBRANCH   9  10
ENDBRANCH   8   9
ENDBRANCH   7   8
ENDBRANCH   5   7
ENDBRANCH   4   5
ENDBRANCH   2   4
TORSDOF 13
ENDMDL
MODEL      422
REMARK 921   NORMALIZED FREE ENERGY PREDICTED BY IDOCK:    0.11 KCAL/MOL
REMARK 922        TOTAL FREE ENERGY PREDICTED BY IDOCK:   -2.03 KCAL/MOL
REMARK 923 INTER-LIGAND FREE ENERGY PREDICTED BY IDOCK:   -3.15 KCAL/MOL
REMARK 924 INTRA-LIGAND FREE ENERGY PREDICTED BY IDOCK:    1.12 KCAL/MOL
REMARK 927      BINDING AFFINITY PREDICTED BY RF-SCORE:    0.00 PKD
ROOT
HETATM    1  C   UNL     1     -10.601  18.524  68.067  1.00  0.00    -0.347 C  
HETATM    2  C   UNL     1     -10.170  17.790  66.802  1.00  0.00    -0.351 C  
HETATM    3  C   UNL     1     -10.999  18.243  65.605  1.00  0.00     0.255 C  
ENDROOT
BRANCH   2   4
HETATM    4  O   UNL     1      -8.793  18.100  66.519  1.00  0.00    -0.272 OA 
BRANCH   4   5
HETATM    5  C   UNL     1      -8.098  18.630  67.564  1.00  0.00    -0.249 C  
HETATM    6  O   UNL     1      -7.638  19.763  67.599  1.00  0.00    -0.266 OA 
BRANCH   5   7
HETATM    7  C   UNL     1      -7.923  17.602  68.650  1.00  0.00    -0.275 C  
BRANCH   7   8
HETATM    8  C   UNL     1      -7.745  16.216  68.030  1.00  0.00    -0.143 C  
BRANCH   8   9
HETATM    9  C   UNL     1      -7.521  15.111  69.058  1.00  0.00    -0.161 C  
BRANCH   9  10
HETATM   10  C   UNL     1      -7.011  13.837  68.442  1.00  0.00    -0.103 C  
HETATM   11  C   UNL     1      -7.616  12.640  68.493  1.00  0.00    -0.121 C  
BRANCH  11  12
HETATM   12  C   UNL     1      -8.882  12.327  69.242  1.00  0.00     0.875 C  
BRANCH  12  13
HETATM   13  C   UNL     1     -10.133  12.373  68.354  1.00  0.00    -0.217 C  
HETATM   14  C   UNL     1      -9.940  13.013  66.974  1.00  0.00    -0.242 C  
HETATM   15  O   UNL     1      -8.679  12.672  66.407  1.00  0.00    -0.415 OA 
HETATM   16  C   UNL     1     -11.040  12.389  66.122  1.00  0.00    -0.340 C  
HETATM   17  C   UNL     1     -11.068  10.933  66.577  1.00  0.00    -0.048 C  
HETATM   18  H   UNL     1      -8.560  13.068  65.551  1.00  0.00     0.000 HD 
HETATM   19  O   UNL     1     -10.101  10.179  65.838  1.00  0.00    -0.258 OA 
HETATM   20  C   UNL     1     -10.683  10.946  68.076  1.00  0.00    -0.263 C  
HETATM   21  H   UNL     1     -10.119   9.272  66.121  1.00  0.00     0.000 HD 
BRANCH  20  22
HETATM   22  C   UNL     1     -11.780  10.623  69.075  1.00  0.00    -0.305 C  
HETATM   23  C   UNL     1     -11.780   9.613  69.965  1.00  0.00    -0.074 C  
BRANCH  23  24
HETATM   24  C   UNL     1     -12.888   9.244  70.927  1.00  0.00    -0.043 C  
HETATM   25  H   UNL     1     -13.595   7.603  71.731  1.00  0.00     0.000 HD 
HETATM   26  O   UNL     1     -12.899   7.834  71.127  1.00  0.00    -0.262 OA 
BRANCH  24  27
HETATM   27  C   UNL     1     -12.692   9.969  72.274  1.00  0.00    -0.145 C  
BRANCH  27  28
HETATM   28  O   UNL     1     -11.742  11.040  72.154  1.00  0.00     1.525 OA 
BRANCH  28  29
HETATM   29  C   UNL     1     -12.308  12.280  71.990  1.00  0.00     0.751 A  
HETATM   30  C   UNL     1     -13.436  12.726  72.684  1.00  0.00    -0.128 A  
HETATM   31  C   UNL     1     -13.937  14.011  72.462  1.00  0.00    -0.553 A  
HETATM   32  C   UNL     1     -13.308  14.858  71.553  1.00  0.00    -0.476 A  
HETATM   33  C   UNL     1     -12.168  14.436  70.859  1.00  0.00    -0.413 A  
HETATM   34  C   UNL     1     -11.486  15.352  69.872  1.00  0.00    -0.312 C  
HETATM   35  C   UNL     1     -11.667  13.142  71.095  1.00  0.00     0.811 A  
HETATM   36  F   UNL     1     -12.118  16.552  69.722  1.00  0.00    -0.027 F  
HETATM   37  F   UNL     1     -11.416  14.815  68.623  1.00  0.00    -0.260 F  
HETATM   38  F   UNL     1     -10.207  15.650  70.227  1.00  0.00    -0.297 F  
ENDBRANCH  28  29
ENDBRANCH  27  28
ENDBRANCH  24  27
ENDBRANCH  23  24
ENDBRANCH  20  22
ENDBRANCH  12  13
ENDBRANCH  11  12
ENDBRANCH   9  10
ENDBRANCH   8   9
ENDBRANCH   7   8
ENDBRANCH   5   7
ENDBRANCH   4   5
ENDBRANCH   2   4
TORSDOF 13
ENDMDL
MODEL      423
REMARK 921   NORMALIZED FREE ENERGY PREDICTED BY IDOCK:    0.30 KCAL/MOL
REMARK 922        TOTAL FREE ENERGY PREDICTED BY IDOCK:   -1.68 KCAL/MOL
REMARK 923 INTER-LIGAND FREE ENERGY PREDICTED BY IDOCK:   -2.54 KCAL/MOL
REMARK 924 INTRA-LIGAND FREE ENERGY PREDICTED BY IDOCK:    0.86 KCAL/MOL
REMARK 927      BINDING AFFINITY PREDICTED BY RF-SCORE:    0.00 PKD
ROOT
HETATM    1  C   UNL     1      -8.237  19.356  65.247  1.00  0.00     1.042 C  
HETATM    2  C   UNL     1      -9.521  19.411  66.067  1.00  0.00    -0.205 C  
HETATM    3  C   UNL     1     -10.745  19.304  65.162  1.00  0.00     0.639 C  
ENDROOT
BRANCH   2   4
HETATM    4  O   UNL     1      -9.554  18.295  66.975  1.00  0.00    -0.275 OA 
BRANCH   4   5
HETATM    5  C   UNL     1      -9.030  18.544  68.209  1.00  0.00    -0.310 C  
HETATM    6  O   UNL     1      -9.611  19.131  69.112  1.00  0.00    -0.349 OA 
BRANCH   5   7
HETATM    7  C   UNL     1      -7.612  18.046  68.284  1.00  0.00    -0.278 C  
BRANCH   7   8
HETATM    8  C   UNL     1      -7.281  17.228  67.036  1.00  0.00    -0.218 C  
BRANCH   8   9
HETATM    9  C   UNL     1      -7.628  15.748  67.166  1.00  0.00    -0.259 C  
BRANCH   9  10
HETATM   10  C   UNL     1      -9.105  15.506  67.312  1.00  0.00    -0.215 C  
HETATM   11  C   UNL     1      -9.676  14.426  67.869  1.00  0.00    -0.223 C  
BRANCH  11  12
HETATM   12  C   UNL     1      -8.947  13.215  68.383  1.00  0.00    -0.128 C  
BRANCH  12  13
HETATM   13  C   UNL     1      -9.380  11.914  67.694  1.00  0.00    -0.183 C  
HETATM   14  C   UNL     1      -8.996  11.791  66.215  1.00  0.00    -0.176 C  
HETATM   15  O   UNL     1      -7.705  12.334  65.959  1.00  0.00     0.093 OA 
HETATM   16  C   UNL     1      -8.946  10.287  65.971  1.00  0.00    -0.173 C  
HETATM   17  C   UNL     1      -8.305   9.735  67.241  1.00  0.00    -0.121 C  
HETATM   18  H   UNL     1      -7.467  12.257  65.042  1.00  0.00     0.000 HD 
HETATM   19  O   UNL     1      -6.880   9.778  67.118  1.00  0.00    -0.081 OA 
HETATM   20  C   UNL     1      -8.757  10.671  68.389  1.00  0.00    -0.141 C  
HETATM   21  H   UNL     1      -6.480   9.435  67.909  1.00  0.00     0.000 HD 
BRANCH  20  22
HETATM   22  C   UNL     1      -9.744  10.105  69.394  1.00  0.00    -0.247 C  
HETATM   23  C   UNL     1      -9.518   9.888  70.703  1.00  0.00     0.106 C  
BRANCH  23  24
HETATM   24  C   UNL     1     -10.471   9.273  71.705  1.00  0.00    -0.258 C  
HETATM   25  H   UNL     1     -11.575   7.658  71.822  1.00  0.00     0.000 HD 
HETATM   26  O   UNL     1     -10.976   8.044  71.193  1.00  0.00    -0.235 OA 
BRANCH  24  27
HETATM   27  C   UNL     1      -9.754   9.033  73.049  1.00  0.00     1.336 C  
BRANCH  27  28
HETATM   28  O   UNL     1      -8.367   8.714  72.848  1.00  0.00    -0.400 OA 
BRANCH  28  29
HETATM   29  C   UNL     1      -8.078   7.376  72.938  1.00  0.00    -0.108 A  
HETATM   30  C   UNL     1      -6.804   6.862  73.194  1.00  0.00    -0.074 A  
HETATM   31  C   UNL     1      -6.605   5.482  73.281  1.00  0.00    -0.069 A  
HETATM   32  C   UNL     1      -7.679   4.610  73.121  1.00  0.00    -0.088 A  
HETATM   33  C   UNL     1      -8.966   5.105  72.879  1.00  0.00    -0.120 A  
HETATM   34  C   UNL     1     -10.130   4.162  72.704  1.00  0.00    -0.165 C  
HETATM   35  C   UNL     1      -9.158   6.497  72.801  1.00  0.00    -0.142 A  
HETATM   36  F   UNL     1      -9.774   2.846  72.762  1.00  0.00    -0.136 F  
HETATM   37  F   UNL     1     -10.757   4.320  71.506  1.00  0.00    -0.106 F  
HETATM   38  F   UNL     1     -11.089   4.326  73.656  1.00  0.00    -0.275 F  
ENDBRANCH  28  29
ENDBRANCH  27  28
ENDBRANCH  24  27
ENDBRANCH  23  24
ENDBRANCH  20  22
ENDBRANCH  12  13
ENDBRANCH  11  12
ENDBRANCH   9  10
ENDBRANCH   8   9
ENDBRANCH   7   8
ENDBRANCH   5   7
ENDBRANCH   4   5
ENDBRANCH   2   4
TORSDOF 13
ENDMDL
MODEL      424
REMARK 921   NORMALIZED FREE ENERGY PREDICTED BY IDOCK:    0.45 KCAL/MOL
REMARK 922        TOTAL FREE ENERGY PREDICTED BY IDOCK:   -1.44 KCAL/MOL
REMARK 923 INTER-LIGAND FREE ENERGY PREDICTED BY IDOCK:   -0.99 KCAL/MOL
REMARK 924 INTRA-LIGAND FREE ENERGY PREDICTED BY IDOCK:   -0.45 KCAL/MOL
REMARK 927      BINDING AFFINITY PREDICTED BY RF-SCORE:    0.00 PKD
ROOT
HETATM    1  C   UNL     1     -11.705   8.508  67.072  1.00  0.00     3.427 C  
HETATM    2  C   UNL     1     -10.773   8.411  68.275  1.00  0.00    -0.028 C  
HETATM    3  C   UNL     1     -10.960   7.080  68.996  1.00  0.00    -0.169 C  
ENDROOT
BRANCH   2   4
HETATM    4  O   UNL     1      -9.408   8.472  67.824  1.00  0.00    -0.136 OA 
BRANCH   4   5
HETATM    5  C   UNL     1      -8.854   9.717  67.839  1.00  0.00    -0.122 C  
HETATM    6  O   UNL     1      -9.024  10.551  68.718  1.00  0.00    -0.149 OA 
BRANCH   5   7
HETATM    7  C   UNL     1      -8.049   9.945  66.588  1.00  0.00    -0.117 C  
BRANCH   7   8
HETATM    8  C   UNL     1      -8.400  11.306  65.985  1.00  0.00    -0.071 C  
BRANCH   8   9
HETATM    9  C   UNL     1      -9.254  11.212  64.724  1.00  0.00    -0.157 C  
BRANCH   9  10
HETATM   10  C   UNL     1     -10.704  10.941  65.021  1.00  0.00    -0.216 C  
HETATM   11  C   UNL     1     -11.456  11.585  65.928  1.00  0.00    -0.086 C  
BRANCH  11  12
HETATM   12  C   UNL     1     -10.972  12.649  66.874  1.00  0.00    -0.297 C  
BRANCH  12  13
HETATM   13  C   UNL     1     -10.134  13.733  66.183  1.00  0.00    -0.314 C  
HETATM   14  C   UNL     1     -10.640  14.180  64.806  1.00  0.00    -0.418 C  
HETATM   15  O   UNL     1     -12.061  14.246  64.762  1.00  0.00    -0.403 OA 
HETATM   16  C   UNL     1     -10.084  15.591  64.650  1.00  0.00     0.564 C  
HETATM   17  C   UNL     1     -10.241  16.198  66.041  1.00  0.00    -0.356 C  
HETATM   18  H   UNL     1     -12.374  14.524  63.909  1.00  0.00     0.000 HD 
HETATM   19  O   UNL     1     -11.553  16.756  66.178  1.00  0.00     0.810 OA 
HETATM   20  C   UNL     1     -10.067  15.028  67.040  1.00  0.00    -0.244 C  
HETATM   21  H   UNL     1     -11.651  17.133  67.044  1.00  0.00     0.000 HD 
BRANCH  20  22
HETATM   22  C   UNL     1      -8.799  15.016  67.876  1.00  0.00    -0.171 C  
HETATM   23  C   UNL     1      -8.036  13.944  68.156  1.00  0.00    -0.150 C  
BRANCH  23  24
HETATM   24  C   UNL     1      -6.803  13.905  69.033  1.00  0.00    -0.111 C  
HETATM   25  H   UNL     1      -5.665  12.527  69.838  1.00  0.00     0.000 HD 
HETATM   26  O   UNL     1      -6.439  12.551  69.288  1.00  0.00    -0.098 OA 
BRANCH  24  27
HETATM   27  C   UNL     1      -5.637  14.647  68.350  1.00  0.00    -0.107 C  
BRANCH  27  28
HETATM   28  O   UNL     1      -5.151  15.720  69.173  1.00  0.00    -0.100 OA 
BRANCH  28  29
HETATM   29  C   UNL     1      -5.723  16.939  68.905  1.00  0.00    -0.144 A  
HETATM   30  C   UNL     1      -6.005  17.904  69.875  1.00  0.00    -0.208 A  
HETATM   31  C   UNL     1      -6.577  19.125  69.509  1.00  0.00    -0.305 A  
HETATM   32  C   UNL     1      -6.863  19.388  68.171  1.00  0.00    -0.301 A  
HETATM   33  C   UNL     1      -6.574  18.440  67.182  1.00  0.00    -0.198 A  
HETATM   34  C   UNL     1      -6.884  18.724  65.733  1.00  0.00    -0.270 C  
HETATM   35  C   UNL     1      -5.990  17.218  67.561  1.00  0.00    -0.158 A  
HETATM   36  F   UNL     1      -7.488  19.931  65.535  1.00  0.00    -0.318 F  
HETATM   37  F   UNL     1      -7.721  17.800  65.186  1.00  0.00     0.349 F  
HETATM   38  F   UNL     1      -5.771  18.736  64.949  1.00  0.00    -0.215 F  
ENDBRANCH  28  29
ENDBRANCH  27  28
ENDBRANCH  24  27
ENDBRANCH  23  24
ENDBRANCH  20  22
ENDBRANCH  12  13
ENDBRANCH  11  12
ENDBRANCH   9  10
ENDBRANCH   8   9
ENDBRANCH   7   8
ENDBRANCH   5   7
ENDBRANCH   4   5
ENDBRANCH   2   4
TORSDOF 13
ENDMDL
MODEL      425
REMARK 921   NORMALIZED FREE ENERGY PREDICTED BY IDOCK:    0.45 KCAL/MOL
REMARK 922        TOTAL FREE ENERGY PREDICTED BY IDOCK:   -1.43 KCAL/MOL
REMARK 923 INTER-LIGAND FREE ENERGY PREDICTED BY IDOCK:   -4.37 KCAL/MOL
REMARK 924 INTRA-LIGAND FREE ENERGY PREDICTED BY IDOCK:    2.94 KCAL/MOL
REMARK 927      BINDING AFFINITY PREDICTED BY RF-SCORE:    0.00 PKD
ROOT
HETATM    1  C   UNL     1      -5.868   3.319  72.481  1.00  0.00    -0.008 C  
HETATM    2  C   UNL     1      -7.203   3.672  71.834  1.00  0.00    -0.050 C  
HETATM    3  C   UNL     1      -8.357   3.403  72.795  1.00  0.00    -0.081 C  
ENDROOT
BRANCH   2   4
HETATM    4  O   UNL     1      -7.220   5.075  71.516  1.00  0.00    -0.064 OA 
BRANCH   4   5
HETATM    5  C   UNL     1      -8.111   5.434  70.549  1.00  0.00    -0.106 C  
HETATM    6  O   UNL     1      -9.194   4.897  70.357  1.00  0.00    -0.122 OA 
BRANCH   5   7
HETATM    7  C   UNL     1      -7.548   6.548  69.707  1.00  0.00    -0.097 C  
BRANCH   7   8
HETATM    8  C   UNL     1      -8.121   6.471  68.292  1.00  0.00    -0.110 C  
BRANCH   8   9
HETATM    9  C   UNL     1      -7.936   5.107  67.633  1.00  0.00    -0.099 C  
BRANCH   9  10
HETATM   10  C   UNL     1      -9.091   4.726  66.748  1.00  0.00    -0.117 C  
HETATM   11  C   UNL     1      -9.938   5.577  66.148  1.00  0.00    -0.133 C  
BRANCH  11  12
HETATM   12  C   UNL     1      -9.942   7.072  66.309  1.00  0.00     0.033 C  
BRANCH  12  13
HETATM   13  C   UNL     1      -8.652   7.734  65.806  1.00  0.00    -0.162 C  
HETATM   14  C   UNL     1      -7.872   6.942  64.750  1.00  0.00    -0.119 C  
HETATM   15  O   UNL     1      -8.741   6.291  63.829  1.00  0.00    -0.310 OA 
HETATM   16  C   UNL     1      -7.081   8.008  64.000  1.00  0.00    -0.083 C  
HETATM   17  C   UNL     1      -8.061   9.171  63.883  1.00  0.00    -0.155 C  
HETATM   18  H   UNL     1      -8.257   5.801  63.175  1.00  0.00     0.000 HD 
HETATM   19  O   UNL     1      -8.881   8.996  62.723  1.00  0.00    -0.370 OA 
HETATM   20  C   UNL     1      -8.942   9.116  65.155  1.00  0.00    -0.238 C  
HETATM   21  H   UNL     1      -9.492   9.720  62.650  1.00  0.00     0.000 HD 
BRANCH  20  22
HETATM   22  C   UNL     1      -8.738  10.213  66.185  1.00  0.00    -0.154 C  
HETATM   23  C   UNL     1      -7.870  10.192  67.214  1.00  0.00    -0.103 C  
BRANCH  23  24
HETATM   24  C   UNL     1      -7.694  11.251  68.281  1.00  0.00    -0.122 C  
HETATM   25  H   UNL     1      -8.318  13.083  68.593  1.00  0.00     0.000 HD 
HETATM   26  O   UNL     1      -8.429  12.418  67.924  1.00  0.00    -0.147 OA 
BRANCH  24  27
HETATM   27  C   UNL     1      -8.174  10.721  69.647  1.00  0.00     0.162 C  
BRANCH  27  28
HETATM   28  O   UNL     1      -9.448  10.065  69.532  1.00  0.00    -0.204 OA 
BRANCH  28  29
HETATM   29  C   UNL     1     -10.526  10.904  69.661  1.00  0.00    -0.088 A  
HETATM   30  C   UNL     1     -11.413  10.884  70.741  1.00  0.00    -0.115 A  
HETATM   31  C   UNL     1     -12.478  11.786  70.795  1.00  0.00    -0.405 A  
HETATM   32  C   UNL     1     -12.657  12.717  69.775  1.00  0.00     0.227 A  
HETATM   33  C   UNL     1     -11.771  12.764  68.692  1.00  0.00    -0.360 A  
HETATM   34  C   UNL     1     -11.965  13.772  67.586  1.00  0.00    -0.356 C  
HETATM   35  C   UNL     1     -10.697  11.857  68.651  1.00  0.00    -0.266 A  
HETATM   36  F   UNL     1     -13.075  14.549  67.750  1.00  0.00     0.630 F  
HETATM   37  F   UNL     1     -12.102  13.188  66.364  1.00  0.00    -0.405 F  
HETATM   38  F   UNL     1     -10.921  14.639  67.475  1.00  0.00    -0.271 F  
ENDBRANCH  28  29
ENDBRANCH  27  28
ENDBRANCH  24  27
ENDBRANCH  23  24
ENDBRANCH  20  22
ENDBRANCH  12  13
ENDBRANCH  11  12
ENDBRANCH   9  10
ENDBRANCH   8   9
ENDBRANCH   7   8
ENDBRANCH   5   7
ENDBRANCH   4   5
ENDBRANCH   2   4
TORSDOF 13
ENDMDL
MODEL      426
REMARK 921   NORMALIZED FREE ENERGY PREDICTED BY IDOCK:    0.72 KCAL/MOL
REMARK 922        TOTAL FREE ENERGY PREDICTED BY IDOCK:   -0.95 KCAL/MOL
REMARK 923 INTER-LIGAND FREE ENERGY PREDICTED BY IDOCK:   -3.58 KCAL/MOL
REMARK 924 INTRA-LIGAND FREE ENERGY PREDICTED BY IDOCK:    2.63 KCAL/MOL
REMARK 927      BINDING AFFINITY PREDICTED BY RF-SCORE:    0.00 PKD
ROOT
HETATM    1  C   UNL     1      -7.758  17.241  69.749  1.00  0.00     0.933 C  
HETATM    2  C   UNL     1      -8.258  16.009  69.003  1.00  0.00    -0.235 C  
HETATM    3  C   UNL     1      -8.125  14.762  69.871  1.00  0.00     0.323 C  
ENDROOT
BRANCH   2   4
HETATM    4  O   UNL     1      -9.653  16.175  68.692  1.00  0.00    -0.209 OA 
BRANCH   4   5
HETATM    5  C   UNL     1     -10.502  15.977  69.740  1.00  0.00    -0.300 C  
HETATM    6  O   UNL     1     -10.614  16.723  70.703  1.00  0.00     0.245 OA 
BRANCH   5   7
HETATM    7  C   UNL     1     -11.242  14.677  69.574  1.00  0.00    -0.300 C  
BRANCH   7   8
HETATM    8  C   UNL     1     -11.048  14.146  68.153  1.00  0.00    -0.276 C  
BRANCH   8   9
HETATM    9  C   UNL     1     -11.617  15.065  67.076  1.00  0.00    -0.248 C  
BRANCH   9  10
HETATM   10  C   UNL     1     -10.583  15.988  66.491  1.00  0.00    -0.284 C  
HETATM   11  C   UNL     1     -10.032  15.881  65.272  1.00  0.00    -0.121 C  
BRANCH  11  12
HETATM   12  C   UNL     1     -10.286  14.774  64.287  1.00  0.00     0.864 C  
BRANCH  12  13
HETATM   13  C   UNL     1     -11.172  13.656  64.853  1.00  0.00    -0.349 C  
HETATM   14  C   UNL     1     -12.510  13.446  64.134  1.00  0.00    -0.245 C  
HETATM   15  O   UNL     1     -12.382  13.605  62.725  1.00  0.00    -0.858 OA 
HETATM   16  C   UNL     1     -12.862  11.992  64.429  1.00  0.00    -0.114 C  
HETATM   17  C   UNL     1     -11.523  11.267  64.324  1.00  0.00     0.056 C  
HETATM   18  H   UNL     1     -13.211  13.474  62.280  1.00  0.00     0.000 HD 
HETATM   19  O   UNL     1     -11.275  10.907  62.962  1.00  0.00    -0.623 OA 
HETATM   20  C   UNL     1     -10.451  12.279  64.798  1.00  0.00    -0.328 C  
HETATM   21  H   UNL     1     -10.441  10.456  62.897  1.00  0.00     0.000 HD 
BRANCH  20  22
HETATM   22  C   UNL     1      -9.783  12.005  66.133  1.00  0.00    -0.254 C  
HETATM   23  C   UNL     1      -8.561  11.473  66.321  1.00  0.00    -0.133 C  
BRANCH  23  24
HETATM   24  C   UNL     1      -7.904  11.141  67.644  1.00  0.00    -0.115 C  
HETATM   25  H   UNL     1      -7.724  11.987  69.403  1.00  0.00     0.000 HD 
HETATM   26  O   UNL     1      -8.137  12.195  68.573  1.00  0.00    -0.150 OA 
BRANCH  24  27
HETATM   27  C   UNL     1      -8.458   9.813  68.199  1.00  0.00    -0.114 C  
BRANCH  27  28
HETATM   28  O   UNL     1      -7.407   8.999  68.744  1.00  0.00    -0.074 OA 
BRANCH  28  29
HETATM   29  C   UNL     1      -7.244   7.792  68.111  1.00  0.00    -0.090 A  
HETATM   30  C   UNL     1      -6.844   7.650  66.780  1.00  0.00    -0.067 A  
HETATM   31  C   UNL     1      -6.691   6.379  66.222  1.00  0.00    -0.056 A  
HETATM   32  C   UNL     1      -6.931   5.244  66.993  1.00  0.00    -0.065 A  
HETATM   33  C   UNL     1      -7.319   5.364  68.333  1.00  0.00    -0.072 A  
HETATM   34  C   UNL     1      -7.580   4.136  69.169  1.00  0.00    -0.054 C  
HETATM   35  C   UNL     1      -7.461   6.649  68.888  1.00  0.00    -0.096 A  
HETATM   36  F   UNL     1      -7.442   2.969  68.475  1.00  0.00    -0.048 F  
HETATM   37  F   UNL     1      -8.840   4.111  69.684  1.00  0.00    -0.094 F  
HETATM   38  F   UNL     1      -6.736   4.034  70.232  1.00  0.00    -0.030 F  
ENDBRANCH  28  29
ENDBRANCH  27  28
ENDBRANCH  24  27
ENDBRANCH  23  24
ENDBRANCH  20  22
ENDBRANCH  12  13
ENDBRANCH  11  12
ENDBRANCH   9  10
ENDBRANCH   8   9
ENDBRANCH   7   8
ENDBRANCH   5   7
ENDBRANCH   4   5
ENDBRANCH   2   4
TORSDOF 13
ENDMDL
MODEL      427
REMARK 921   NORMALIZED FREE ENERGY PREDICTED BY IDOCK:    1.06 KCAL/MOL
REMARK 922        TOTAL FREE ENERGY PREDICTED BY IDOCK:   -0.36 KCAL/MOL
REMARK 923 INTER-LIGAND FREE ENERGY PREDICTED BY IDOCK:   -0.85 KCAL/MOL
REMARK 924 INTRA-LIGAND FREE ENERGY PREDICTED BY IDOCK:    0.49 KCAL/MOL
REMARK 927      BINDING AFFINITY PREDICTED BY RF-SCORE:    0.00 PKD
ROOT
HETATM    1  C   UNL     1     -13.095  12.989  67.953  1.00  0.00     3.248 C  
HETATM    2  C   UNL     1     -11.710  13.572  67.694  1.00  0.00    -0.363 C  
HETATM    3  C   UNL     1     -10.963  13.793  69.006  1.00  0.00    -0.277 C  
ENDROOT
BRANCH   2   4
HETATM    4  O   UNL     1     -10.942  12.642  66.909  1.00  0.00    -0.249 OA 
BRANCH   4   5
HETATM    5  C   UNL     1      -9.661  13.028  66.653  1.00  0.00    -0.259 C  
HETATM    6  O   UNL     1      -9.113  14.009  67.138  1.00  0.00    -0.212 OA 
BRANCH   5   7
HETATM    7  C   UNL     1      -9.031  12.109  65.640  1.00  0.00     0.231 C  
BRANCH   7   8
HETATM    8  C   UNL     1      -8.355  10.937  66.352  1.00  0.00    -0.162 C  
BRANCH   8   9
HETATM    9  C   UNL     1      -7.033  11.308  67.018  1.00  0.00    -0.126 C  
BRANCH   9  10
HETATM   10  C   UNL     1      -5.906  11.454  66.032  1.00  0.00     0.100 C  
HETATM   11  C   UNL     1      -5.204  10.451  65.483  1.00  0.00    -0.087 C  
BRANCH  11  12
HETATM   12  C   UNL     1      -5.359   8.991  65.808  1.00  0.00    -0.040 C  
BRANCH  12  13
HETATM   13  C   UNL     1      -6.719   8.421  65.384  1.00  0.00    -0.056 C  
HETATM   14  C   UNL     1      -6.953   8.326  63.872  1.00  0.00    -0.076 C  
HETATM   15  O   UNL     1      -5.773   7.934  63.179  1.00  0.00    -0.057 OA 
HETATM   16  C   UNL     1      -7.990   7.218  63.729  1.00  0.00    -0.078 C  
HETATM   17  C   UNL     1      -7.558   6.181  64.760  1.00  0.00    -0.092 C  
HETATM   18  H   UNL     1      -5.918   7.875  62.242  1.00  0.00     0.000 HD 
HETATM   19  O   UNL     1      -6.580   5.308  64.185  1.00  0.00    -0.039 OA 
HETATM   20  C   UNL     1      -6.922   6.978  65.926  1.00  0.00    -0.064 C  
HETATM   21  H   UNL     1      -6.310   4.662  64.828  1.00  0.00     0.000 HD 
BRANCH  20  22
HETATM   22  C   UNL     1      -7.697   7.031  67.231  1.00  0.00    -0.109 C  
HETATM   23  C   UNL     1      -8.053   5.981  67.993  1.00  0.00    -0.110 C  
BRANCH  23  24
HETATM   24  C   UNL     1      -8.873   6.013  69.265  1.00  0.00    -0.123 C  
HETATM   25  H   UNL     1      -8.997   7.149  70.857  1.00  0.00     0.000 HD 
HETATM   26  O   UNL     1      -8.483   7.130  70.058  1.00  0.00    -0.136 OA 
BRANCH  24  27
HETATM   27  C   UNL     1     -10.376   6.099  68.932  1.00  0.00    -0.208 C  
BRANCH  27  28
HETATM   28  O   UNL     1     -11.164   5.381  69.895  1.00  0.00    -0.016 OA 
BRANCH  28  29
HETATM   29  C   UNL     1     -10.622   5.350  71.155  1.00  0.00    -0.206 A  
HETATM   30  C   UNL     1     -10.927   6.267  72.164  1.00  0.00    -0.298 A  
HETATM   31  C   UNL     1     -10.336   6.151  73.425  1.00  0.00    -0.253 A  
HETATM   32  C   UNL     1      -9.444   5.113  73.684  1.00  0.00    -0.134 A  
HETATM   33  C   UNL     1      -9.136   4.175  72.691  1.00  0.00    -0.129 A  
HETATM   34  C   UNL     1      -8.169   3.051  72.971  1.00  0.00    -0.075 C  
HETATM   35  C   UNL     1      -9.744   4.296  71.428  1.00  0.00    -0.252 A  
HETATM   36  F   UNL     1      -7.633   3.098  74.225  1.00  0.00    -0.051 F  
HETATM   37  F   UNL     1      -7.108   3.049  72.117  1.00  0.00    -0.033 F  
HETATM   38  F   UNL     1      -8.744   1.822  72.861  1.00  0.00    -0.059 F  
ENDBRANCH  28  29
ENDBRANCH  27  28
ENDBRANCH  24  27
ENDBRANCH  23  24
ENDBRANCH  20  22
ENDBRANCH  12  13
ENDBRANCH  11  12
ENDBRANCH   9  10
ENDBRANCH   8   9
ENDBRANCH   7   8
ENDBRANCH   5   7
ENDBRANCH   4   5
ENDBRANCH   2   4
TORSDOF 13
ENDMDL
MODEL      428
REMARK 921   NORMALIZED FREE ENERGY PREDICTED BY IDOCK:    1.73 KCAL/MOL
REMARK 922        TOTAL FREE ENERGY PREDICTED BY IDOCK:    0.83 KCAL/MOL
REMARK 923 INTER-LIGAND FREE ENERGY PREDICTED BY IDOCK:    1.10 KCAL/MOL
REMARK 924 INTRA-LIGAND FREE ENERGY PREDICTED BY IDOCK:   -0.27 KCAL/MOL
REMARK 927      BINDING AFFINITY PREDICTED BY RF-SCORE:    0.00 PKD
ROOT
HETATM    1  C   UNL     1      -6.060   9.122  65.413  1.00  0.00    -0.063 C  
HETATM    2  C   UNL     1      -6.444   8.615  66.799  1.00  0.00    -0.060 C  
HETATM    3  C   UNL     1      -5.694   7.328  67.129  1.00  0.00    -0.029 C  
ENDROOT
BRANCH   2   4
HETATM    4  O   UNL     1      -6.075   9.597  67.784  1.00  0.00    -0.051 OA 
BRANCH   4   5
HETATM    5  C   UNL     1      -6.567  10.848  67.559  1.00  0.00    -0.063 C  
HETATM    6  O   UNL     1      -5.937  11.772  67.062  1.00  0.00    -0.127 OA 
BRANCH   5   7
HETATM    7  C   UNL     1      -7.982  10.951  68.064  1.00  0.00    -0.109 C  
BRANCH   7   8
HETATM    8  C   UNL     1      -8.905  11.405  66.933  1.00  0.00    -0.173 C  
BRANCH   8   9
HETATM    9  C   UNL     1      -9.926  10.350  66.518  1.00  0.00    -0.271 C  
BRANCH   9  10
HETATM   10  C   UNL     1     -11.322  10.679  66.974  1.00  0.00     0.023 C  
HETATM   11  C   UNL     1     -12.104  11.651  66.479  1.00  0.00     0.664 C  
BRANCH  11  12
HETATM   12  C   UNL     1     -11.705  12.648  65.426  1.00  0.00    -0.428 C  
BRANCH  12  13
HETATM   13  C   UNL     1     -11.244  13.989  66.011  1.00  0.00    -0.310 C  
HETATM   14  C   UNL     1     -10.540  14.931  65.027  1.00  0.00    -0.422 C  
HETATM   15  O   UNL     1     -11.138  14.888  63.736  1.00  0.00     0.055 OA 
HETATM   16  C   UNL     1     -10.765  16.317  65.620  1.00  0.00    -0.297 C  
HETATM   17  C   UNL     1     -12.202  16.265  66.129  1.00  0.00     2.261 C  
HETATM   18  H   UNL     1     -10.701  15.472  63.127  1.00  0.00     0.000 HD 
HETATM   19  O   UNL     1     -13.102  16.598  65.068  1.00  0.00     3.500 OA 
HETATM   20  C   UNL     1     -12.443  14.802  66.576  1.00  0.00     0.247 C  
HETATM   21  H   UNL     1     -13.997  16.565  65.385  1.00  0.00     0.000 HD 
BRANCH  20  22
HETATM   22  C   UNL     1     -12.569  14.547  68.068  1.00  0.00     0.539 C  
HETATM   23  C   UNL     1     -11.939  15.217  69.050  1.00  0.00    -0.295 C  
BRANCH  23  24
HETATM   24  C   UNL     1     -12.010  14.938  70.536  1.00  0.00    -0.309 C  
HETATM   25  H   UNL     1     -13.386  14.972  71.932  1.00  0.00     0.000 HD 
HETATM   26  O   UNL     1     -13.341  15.146  70.999  1.00  0.00    -0.424 OA 
BRANCH  24  27
HETATM   27  C   UNL     1     -11.567  13.491  70.832  1.00  0.00     0.519 C  
BRANCH  27  28
HETATM   28  O   UNL     1     -12.282  12.551  70.015  1.00  0.00    -0.272 OA 
BRANCH  28  29
HETATM   29  C   UNL     1     -12.182  11.249  70.436  1.00  0.00    -0.365 A  
HETATM   30  C   UNL     1     -12.838  10.733  71.557  1.00  0.00    -0.567 A  
HETATM   31  C   UNL     1     -12.689   9.388  71.904  1.00  0.00    -0.484 A  
HETATM   32  C   UNL     1     -11.890   8.551  71.128  1.00  0.00    -0.322 A  
HETATM   33  C   UNL     1     -11.236   9.045  69.993  1.00  0.00    -0.141 A  
HETATM   34  C   UNL     1     -10.369   8.140  69.152  1.00  0.00    -0.220 C  
HETATM   35  C   UNL     1     -11.400  10.399  69.647  1.00  0.00    -0.333 A  
HETATM   36  F   UNL     1     -10.277   6.870  69.644  1.00  0.00    -0.178 F  
HETATM   37  F   UNL     1      -9.088   8.589  69.051  1.00  0.00    -0.142 F  
HETATM   38  F   UNL     1     -10.826   8.009  67.877  1.00  0.00    -0.255 F  
ENDBRANCH  28  29
ENDBRANCH  27  28
ENDBRANCH  24  27
ENDBRANCH  23  24
ENDBRANCH  20  22
ENDBRANCH  12  13
ENDBRANCH  11  12
ENDBRANCH   9  10
ENDBRANCH   8   9
ENDBRANCH   7   8
ENDBRANCH   5   7
ENDBRANCH   4   5
ENDBRANCH   2   4
TORSDOF 13
ENDMDL
MODEL      429
REMARK 921   NORMALIZED FREE ENERGY PREDICTED BY IDOCK:    2.18 KCAL/MOL
REMARK 922        TOTAL FREE ENERGY PREDICTED BY IDOCK:    1.62 KCAL/MOL
REMARK 923 INTER-LIGAND FREE ENERGY PREDICTED BY IDOCK:    2.08 KCAL/MOL
REMARK 924 INTRA-LIGAND FREE ENERGY PREDICTED BY IDOCK:   -0.45 KCAL/MOL
REMARK 927      BINDING AFFINITY PREDICTED BY RF-SCORE:    0.00 PKD
ROOT
HETATM    1  C   UNL     1      -7.392   9.764  66.520  1.00  0.00    -0.095 C  
HETATM    2  C   UNL     1      -8.817   9.899  67.045  1.00  0.00    -0.134 C  
HETATM    3  C   UNL     1      -9.536   8.554  67.009  1.00  0.00    -0.223 C  
ENDROOT
BRANCH   2   4
HETATM    4  O   UNL     1      -8.779  10.334  68.416  1.00  0.00    -0.122 OA 
BRANCH   4   5
HETATM    5  C   UNL     1      -7.979  11.412  68.654  1.00  0.00    -0.141 C  
HETATM    6  O   UNL     1      -6.764  11.430  68.505  1.00  0.00    -0.062 OA 
BRANCH   5   7
HETATM    7  C   UNL     1      -8.794  12.561  69.184  1.00  0.00     0.692 C  
BRANCH   7   8
HETATM    8  C   UNL     1      -8.972  13.618  68.094  1.00  0.00    -0.191 C  
BRANCH   8   9
HETATM    9  C   UNL     1     -10.154  13.346  67.169  1.00  0.00    -0.240 C  
BRANCH   9  10
HETATM   10  C   UNL     1     -10.625  14.579  66.447  1.00  0.00    -0.302 C  
HETATM   11  C   UNL     1      -9.841  15.491  65.852  1.00  0.00    -0.385 C  
BRANCH  11  12
HETATM   12  C   UNL     1      -8.337  15.495  65.858  1.00  0.00     0.803 C  
BRANCH  12  13
HETATM   13  C   UNL     1      -7.742  16.168  67.103  1.00  0.00    -0.229 C  
HETATM   14  C   UNL     1      -6.279  15.822  67.405  1.00  0.00    -0.109 C  
HETATM   15  O   UNL     1      -5.505  15.720  66.215  1.00  0.00     1.069 OA 
HETATM   16  C   UNL     1      -5.778  17.014  68.210  1.00  0.00    -0.123 C  
HETATM   17  C   UNL     1      -6.420  18.214  67.519  1.00  0.00    -0.184 C  
HETATM   18  H   UNL     1      -4.598  15.506  66.402  1.00  0.00     0.000 HD 
HETATM   19  O   UNL     1      -5.599  18.637  66.425  1.00  0.00    -0.147 OA 
HETATM   20  C   UNL     1      -7.785  17.717  66.984  1.00  0.00    -0.233 C  
HETATM   21  H   UNL     1      -5.999  19.383  65.995  1.00  0.00     0.000 HD 
BRANCH  20  22
HETATM   22  C   UNL     1      -9.031  18.244  67.673  1.00  0.00    -0.271 C  
HETATM   23  C   UNL     1      -9.126  19.371  68.403  1.00  0.00    -0.410 C  
BRANCH  23  24
HETATM   24  C   UNL     1     -10.345  19.879  69.143  1.00  0.00    -0.067 C  
HETATM   25  H   UNL     1     -12.228  20.227  68.725  1.00  0.00     0.000 HD 
HETATM   26  O   UNL     1     -11.463  19.908  68.261  1.00  0.00     0.935 OA 
BRANCH  24  27
HETATM   27  C   UNL     1     -10.650  18.978  70.356  1.00  0.00     2.004 C  
BRANCH  27  28
HETATM   28  O   UNL     1     -11.090  17.676  69.938  1.00  0.00     0.767 OA 
BRANCH  28  29
HETATM   29  C   UNL     1     -11.520  16.871  70.964  1.00  0.00     0.672 A  
HETATM   30  C   UNL     1     -11.573  17.266  72.303  1.00  0.00     1.150 A  
HETATM   31  C   UNL     1     -12.038  16.383  73.280  1.00  0.00    -0.553 A  
HETATM   32  C   UNL     1     -12.460  15.104  72.922  1.00  0.00    -0.507 A  
HETATM   33  C   UNL     1     -12.428  14.694  71.584  1.00  0.00    -0.410 A  
HETATM   34  C   UNL     1     -12.883  13.309  71.195  1.00  0.00    -0.280 C  
HETATM   35  C   UNL     1     -11.966  15.594  70.607  1.00  0.00    -0.438 A  
HETATM   36  F   UNL     1     -13.259  12.544  72.261  1.00  0.00    -0.558 F  
HETATM   37  F   UNL     1     -11.911  12.599  70.557  1.00  0.00    -0.408 F  
HETATM   38  F   UNL     1     -13.953  13.323  70.355  1.00  0.00     0.807 F  
ENDBRANCH  28  29
ENDBRANCH  27  28
ENDBRANCH  24  27
ENDBRANCH  23  24
ENDBRANCH  20  22
ENDBRANCH  12  13
ENDBRANCH  11  12
ENDBRANCH   9  10
ENDBRANCH   8   9
ENDBRANCH   7   8
ENDBRANCH   5   7
ENDBRANCH   4   5
ENDBRANCH   2   4
TORSDOF 13
ENDMDL
MODEL      430
REMARK 921   NORMALIZED FREE ENERGY PREDICTED BY IDOCK:    2.43 KCAL/MOL
REMARK 922        TOTAL FREE ENERGY PREDICTED BY IDOCK:    2.05 KCAL/MOL
REMARK 923 INTER-LIGAND FREE ENERGY PREDICTED BY IDOCK:   -0.63 KCAL/MOL
REMARK 924 INTRA-LIGAND FREE ENERGY PREDICTED BY IDOCK:    2.69 KCAL/MOL
REMARK 927      BINDING AFFINITY PREDICTED BY RF-SCORE:    0.00 PKD
ROOT
HETATM    1  C   UNL     1      -9.030   8.391  66.387  1.00  0.00    -0.207 C  
HETATM    2  C   UNL     1     -10.059   9.326  67.015  1.00  0.00    -0.247 C  
HETATM    3  C   UNL     1     -11.474   8.912  66.624  1.00  0.00     2.530 C  
ENDROOT
BRANCH   2   4
HETATM    4  O   UNL     1      -9.963   9.244  68.448  1.00  0.00    -0.164 OA 
BRANCH   4   5
HETATM    5  C   UNL     1     -10.577  10.257  69.123  1.00  0.00    -0.230 C  
HETATM    6  O   UNL     1     -10.008  11.073  69.835  1.00  0.00     0.231 OA 
BRANCH   5   7
HETATM    7  C   UNL     1     -12.067  10.193  68.917  1.00  0.00     0.519 C  
BRANCH   7   8
HETATM    8  C   UNL     1     -12.739  11.377  69.612  1.00  0.00     0.160 C  
BRANCH   8   9
HETATM    9  C   UNL     1     -12.589  12.694  68.855  1.00  0.00     0.733 C  
BRANCH   9  10
HETATM   10  C   UNL     1     -12.074  13.810  69.723  1.00  0.00    -0.400 C  
HETATM   11  C   UNL     1     -11.366  14.871  69.304  1.00  0.00    -0.315 C  
BRANCH  11  12
HETATM   12  C   UNL     1     -10.887  15.107  67.899  1.00  0.00    -0.291 C  
BRANCH  12  13
HETATM   13  C   UNL     1     -10.788  13.818  67.072  1.00  0.00    -0.288 C  
HETATM   14  C   UNL     1     -12.049  13.438  66.288  1.00  0.00    -0.422 C  
HETATM   15  O   UNL     1     -12.696  14.584  65.743  1.00  0.00    -0.306 OA 
HETATM   16  C   UNL     1     -11.525  12.584  65.139  1.00  0.00    -0.369 C  
HETATM   17  C   UNL     1     -10.239  13.289  64.721  1.00  0.00    -0.304 C  
HETATM   18  H   UNL     1     -13.478  14.348  65.256  1.00  0.00     0.000 HD 
HETATM   19  O   UNL     1     -10.540  14.326  63.781  1.00  0.00     0.063 OA 
HETATM   20  C   UNL     1      -9.654  13.912  66.012  1.00  0.00    -0.210 C  
HETATM   21  H   UNL     1      -9.739  14.765  63.521  1.00  0.00     0.000 HD 
BRANCH  20  22
HETATM   22  C   UNL     1      -8.387  13.286  66.570  1.00  0.00     0.383 C  
HETATM   23  C   UNL     1      -8.315  12.216  67.383  1.00  0.00    -0.174 C  
BRANCH  23  24
HETATM   24  C   UNL     1      -7.067  11.615  67.992  1.00  0.00    -0.080 C  
HETATM   25  H   UNL     1      -6.412  11.200  69.792  1.00  0.00     0.000 HD 
HETATM   26  O   UNL     1      -7.196  11.577  69.410  1.00  0.00    -0.092 OA 
BRANCH  24  27
HETATM   27  C   UNL     1      -6.834  10.193  67.442  1.00  0.00    -0.077 C  
BRANCH  27  28
HETATM   28  O   UNL     1      -5.796   9.518  68.172  1.00  0.00    -0.041 OA 
BRANCH  28  29
HETATM   29  C   UNL     1      -6.182   8.321  68.721  1.00  0.00    -0.045 A  
HETATM   30  C   UNL     1      -5.355   7.199  68.821  1.00  0.00    -0.018 A  
HETATM   31  C   UNL     1      -5.829   6.024  69.409  1.00  0.00    -0.020 A  
HETATM   32  C   UNL     1      -7.129   5.967  69.906  1.00  0.00    -0.068 A  
HETATM   33  C   UNL     1      -7.969   7.085  69.829  1.00  0.00    -0.124 A  
HETATM   34  C   UNL     1      -9.377   7.024  70.366  1.00  0.00    -0.159 C  
HETATM   35  C   UNL     1      -7.479   8.266  69.243  1.00  0.00    -0.085 A  
HETATM   36  F   UNL     1      -9.716   5.798  70.861  1.00  0.00    -0.178 F  
HETATM   37  F   UNL     1     -10.312   7.308  69.417  1.00  0.00    -0.185 F  
HETATM   38  F   UNL     1      -9.592   7.904  71.382  1.00  0.00    -0.155 F  
ENDBRANCH  28  29
ENDBRANCH  27  28
ENDBRANCH  24  27
ENDBRANCH  23  24
ENDBRANCH  20  22
ENDBRANCH  12  13
ENDBRANCH  11  12
ENDBRANCH   9  10
ENDBRANCH   8   9
ENDBRANCH   7   8
ENDBRANCH   5   7
ENDBRANCH   4   5
ENDBRANCH   2   4
TORSDOF 13
ENDMDL
MODEL      431
REMARK 921   NORMALIZED FREE ENERGY PREDICTED BY IDOCK:    2.99 KCAL/MOL
REMARK 922        TOTAL FREE ENERGY PREDICTED BY IDOCK:    3.03 KCAL/MOL
REMARK 923 INTER-LIGAND FREE ENERGY PREDICTED BY IDOCK:   -4.10 KCAL/MOL
REMARK 924 INTRA-LIGAND FREE ENERGY PREDICTED BY IDOCK:    7.14 KCAL/MOL
REMARK 927      BINDING AFFINITY PREDICTED BY RF-SCORE:    0.00 PKD
ROOT
HETATM    1  C   UNL     1     -13.669  12.464  64.671  1.00  0.00     1.964 C  
HETATM    2  C   UNL     1     -12.194  12.811  64.841  1.00  0.00    -0.463 C  
HETATM    3  C   UNL     1     -11.346  12.094  63.795  1.00  0.00    -0.529 C  
ENDROOT
BRANCH   2   4
HETATM    4  O   UNL     1     -12.014  14.226  64.649  1.00  0.00    -0.408 OA 
BRANCH   4   5
HETATM    5  C   UNL     1     -10.741  14.674  64.845  1.00  0.00    -0.427 C  
HETATM    6  O   UNL     1     -10.221  15.600  64.236  1.00  0.00     0.315 OA 
BRANCH   5   7
HETATM    7  C   UNL     1     -10.043  13.829  65.877  1.00  0.00    -0.325 C  
BRANCH   7   8
HETATM    8  C   UNL     1      -9.809  14.648  67.146  1.00  0.00    -0.237 C  
BRANCH   8   9
HETATM    9  C   UNL     1      -8.713  14.081  68.044  1.00  0.00    -0.180 C  
BRANCH   9  10
HETATM   10  C   UNL     1      -9.254  13.208  69.143  1.00  0.00     0.640 C  
HETATM   11  C   UNL     1     -10.550  13.027  69.440  1.00  0.00     0.229 C  
BRANCH  11  12
HETATM   12  C   UNL     1     -11.708  13.724  68.781  1.00  0.00    -0.391 C  
BRANCH  12  13
HETATM   13  C   UNL     1     -12.241  14.909  69.596  1.00  0.00    -0.299 C  
HETATM   14  C   UNL     1     -13.282  14.559  70.666  1.00  0.00    -0.176 C  
HETATM   15  O   UNL     1     -12.977  13.330  71.316  1.00  0.00    -0.328 OA 
HETATM   16  C   UNL     1     -13.160  15.689  71.682  1.00  0.00    -0.554 C  
HETATM   17  C   UNL     1     -11.657  15.940  71.766  1.00  0.00    -0.455 C  
HETATM   18  H   UNL     1     -13.623  13.113  71.979  1.00  0.00     0.000 HD 
HETATM   19  O   UNL     1     -11.072  15.049  72.721  1.00  0.00    -0.170 OA 
HETATM   20  C   UNL     1     -11.094  15.635  70.356  1.00  0.00    -0.369 C  
HETATM   21  H   UNL     1     -10.136  15.205  72.773  1.00  0.00     0.000 HD 
BRANCH  20  22
HETATM   22  C   UNL     1     -10.611  16.816  69.534  1.00  0.00    -0.283 C  
HETATM   23  C   UNL     1     -10.403  18.069  69.979  1.00  0.00     1.007 C  
BRANCH  23  24
HETATM   24  C   UNL     1      -9.976  19.269  69.162  1.00  0.00    -0.307 C  
HETATM   25  H   UNL     1      -8.408  19.797  68.110  1.00  0.00     0.000 HD 
HETATM   26  O   UNL     1      -8.677  19.043  68.623  1.00  0.00    -0.346 OA 
BRANCH  24  27
HETATM   27  C   UNL     1     -10.984  19.529  68.025  1.00  0.00     0.112 C  
BRANCH  27  28
HETATM   28  O   UNL     1     -10.519  18.977  66.782  1.00  0.00    -0.383 OA 
BRANCH  28  29
HETATM   29  C   UNL     1      -9.153  18.917  66.669  1.00  0.00    -0.330 A  
HETATM   30  C   UNL     1      -8.347  19.994  66.290  1.00  0.00    -0.322 A  
HETATM   31  C   UNL     1      -6.960  19.845  66.213  1.00  0.00    -0.256 A  
HETATM   32  C   UNL     1      -6.372  18.621  66.524  1.00  0.00    -0.209 A  
HETATM   33  C   UNL     1      -7.159  17.534  66.920  1.00  0.00    -0.225 A  
HETATM   34  C   UNL     1      -6.523  16.207  67.255  1.00  0.00    -0.181 C  
HETATM   35  C   UNL     1      -8.554  17.697  67.002  1.00  0.00    -0.252 A  
HETATM   36  F   UNL     1      -5.169  16.198  67.084  1.00  0.00    -0.137 F  
HETATM   37  F   UNL     1      -6.998  15.190  66.485  1.00  0.00     0.282 F  
HETATM   38  F   UNL     1      -6.734  15.833  68.546  1.00  0.00    -0.110 F  
ENDBRANCH  28  29
ENDBRANCH  27  28
ENDBRANCH  24  27
ENDBRANCH  23  24
ENDBRANCH  20  22
ENDBRANCH  12  13
ENDBRANCH  11  12
ENDBRANCH   9  10
ENDBRANCH   8   9
ENDBRANCH   7   8
ENDBRANCH   5   7
ENDBRANCH   4   5
ENDBRANCH   2   4
TORSDOF 13
ENDMDL
MODEL      432
REMARK 921   NORMALIZED FREE ENERGY PREDICTED BY IDOCK:    3.98 KCAL/MOL
REMARK 922        TOTAL FREE ENERGY PREDICTED BY IDOCK:    4.79 KCAL/MOL
REMARK 923 INTER-LIGAND FREE ENERGY PREDICTED BY IDOCK:   -2.58 KCAL/MOL
REMARK 924 INTRA-LIGAND FREE ENERGY PREDICTED BY IDOCK:    7.37 KCAL/MOL
REMARK 927      BINDING AFFINITY PREDICTED BY RF-SCORE:    0.00 PKD
ROOT
HETATM    1  C   UNL     1     -11.892  14.327  65.722  1.00  0.00    -0.377 C  
HETATM    2  C   UNL     1     -11.853  13.174  64.725  1.00  0.00    -0.369 C  
HETATM    3  C   UNL     1     -12.587  13.545  63.441  1.00  0.00     0.022 C  
ENDROOT
BRANCH   2   4
HETATM    4  O   UNL     1     -10.485  12.892  64.377  1.00  0.00    -0.362 OA 
BRANCH   4   5
HETATM    5  C   UNL     1      -9.718  12.423  65.401  1.00  0.00    -0.113 C  
HETATM    6  O   UNL     1      -8.534  12.684  65.568  1.00  0.00     1.037 OA 
BRANCH   5   7
HETATM    7  C   UNL     1     -10.518  11.487  66.267  1.00  0.00    -0.294 C  
BRANCH   7   8
HETATM    8  C   UNL     1     -11.748  12.211  66.815  1.00  0.00    -0.377 C  
BRANCH   8   9
HETATM    9  C   UNL     1     -11.437  13.146  67.980  1.00  0.00    -0.346 C  
BRANCH   9  10
HETATM   10  C   UNL     1     -10.716  12.455  69.106  1.00  0.00    -0.081 C  
HETATM   11  C   UNL     1     -11.034  11.260  69.628  1.00  0.00    -0.214 C  
BRANCH  11  12
HETATM   12  C   UNL     1     -12.218  10.419  69.240  1.00  0.00     0.081 C  
BRANCH  12  13
HETATM   13  C   UNL     1     -13.251  10.278  70.366  1.00  0.00     0.011 C  
HETATM   14  C   UNL     1     -13.916   8.901  70.484  1.00  0.00     0.912 C  
HETATM   15  O   UNL     1     -12.993   7.847  70.233  1.00  0.00     0.173 OA 
HETATM   16  C   UNL     1     -14.351   8.827  71.943  1.00  0.00    -0.441 C  
HETATM   17  C   UNL     1     -13.192   9.468  72.701  1.00  0.00    -0.139 C  
HETATM   18  H   UNL     1     -13.405   6.994  70.306  1.00  0.00     0.000 HD 
HETATM   19  O   UNL     1     -12.191   8.482  72.974  1.00  0.00    -0.497 OA 
HETATM   20  C   UNL     1     -12.613  10.551  71.758  1.00  0.00    -0.445 C  
HETATM   21  H   UNL     1     -11.469   8.882  73.445  1.00  0.00     0.000 HD 
BRANCH  20  22
HETATM   22  C   UNL     1     -12.844  12.001  72.145  1.00  0.00    -0.113 C  
HETATM   23  C   UNL     1     -12.294  13.082  71.562  1.00  0.00    -0.014 C  
BRANCH  23  24
HETATM   24  C   UNL     1     -12.470  14.528  71.972  1.00  0.00    -0.314 C  
HETATM   25  H   UNL     1     -11.460  15.854  73.004  1.00  0.00     0.000 HD 
HETATM   26  O   UNL     1     -11.350  14.946  72.746  1.00  0.00    -0.155 OA 
BRANCH  24  27
HETATM   27  C   UNL     1     -12.615  15.424  70.725  1.00  0.00    -0.442 C  
BRANCH  27  28
HETATM   28  O   UNL     1     -11.746  14.987  69.667  1.00  0.00    -0.284 OA 
BRANCH  28  29
HETATM   29  C   UNL     1     -11.257  16.003  68.885  1.00  0.00    -0.353 A  
HETATM   30  C   UNL     1     -11.843  16.427  67.689  1.00  0.00     0.641 A  
HETATM   31  C   UNL     1     -11.283  17.480  66.963  1.00  0.00     0.479 A  
HETATM   32  C   UNL     1     -10.138  18.120  67.433  1.00  0.00    -0.359 A  
HETATM   33  C   UNL     1      -9.543  17.721  68.636  1.00  0.00    -0.322 A  
HETATM   34  C   UNL     1      -8.303  18.412  69.145  1.00  0.00     0.078 C  
HETATM   35  C   UNL     1     -10.121  16.664  69.363  1.00  0.00    -0.204 A  
HETATM   36  F   UNL     1      -7.841  19.384  68.305  1.00  0.00    -0.314 F  
HETATM   37  F   UNL     1      -7.260  17.554  69.322  1.00  0.00    -0.247 F  
HETATM   38  F   UNL     1      -8.495  19.023  70.345  1.00  0.00     1.162 F  
ENDBRANCH  28  29
ENDBRANCH  27  28
ENDBRANCH  24  27
ENDBRANCH  23  24
ENDBRANCH  20  22
ENDBRANCH  12  13
ENDBRANCH  11  12
ENDBRANCH   9  10
ENDBRANCH   8   9
ENDBRANCH   7   8
ENDBRANCH   5   7
ENDBRANCH   4   5
ENDBRANCH   2   4
TORSDOF 13
ENDMDL
MODEL      433
REMARK 921   NORMALIZED FREE ENERGY PREDICTED BY IDOCK:    4.44 KCAL/MOL
REMARK 922        TOTAL FREE ENERGY PREDICTED BY IDOCK:    5.59 KCAL/MOL
REMARK 923 INTER-LIGAND FREE ENERGY PREDICTED BY IDOCK:   -4.27 KCAL/MOL
REMARK 924 INTRA-LIGAND FREE ENERGY PREDICTED BY IDOCK:    9.85 KCAL/MOL
REMARK 927      BINDING AFFINITY PREDICTED BY RF-SCORE:    0.00 PKD
ROOT
HETATM    1  C   UNL     1     -10.258   2.285  72.323  1.00  0.00    -0.210 C  
HETATM    2  C   UNL     1      -9.389   3.321  71.619  1.00  0.00    -0.137 C  
HETATM    3  C   UNL     1     -10.249   4.293  70.818  1.00  0.00    -0.035 C  
ENDROOT
BRANCH   2   4
HETATM    4  O   UNL     1      -8.672   4.088  72.604  1.00  0.00    -0.101 OA 
BRANCH   4   5
HETATM    5  C   UNL     1      -8.594   5.424  72.346  1.00  0.00    -0.122 C  
HETATM    6  O   UNL     1      -7.892   6.217  72.959  1.00  0.00    -0.103 OA 
BRANCH   5   7
HETATM    7  C   UNL     1      -9.540   5.798  71.237  1.00  0.00    -0.198 C  
BRANCH   7   8
HETATM    8  C   UNL     1     -10.853   6.314  71.826  1.00  0.00    -0.294 C  
BRANCH   8   9
HETATM    9  C   UNL     1     -11.010   7.829  71.730  1.00  0.00    -0.280 C  
BRANCH   9  10
HETATM   10  C   UNL     1      -9.779   8.510  71.196  1.00  0.00    -0.257 C  
HETATM   11  C   UNL     1      -9.036   8.094  70.158  1.00  0.00    -0.147 C  
BRANCH  11  12
HETATM   12  C   UNL     1      -9.248   6.825  69.380  1.00  0.00    -0.143 C  
BRANCH  12  13
HETATM   13  C   UNL     1      -8.223   6.631  68.254  1.00  0.00    -0.114 C  
HETATM   14  C   UNL     1      -8.402   5.365  67.409  1.00  0.00    -0.103 C  
HETATM   15  O   UNL     1      -9.777   5.078  67.174  1.00  0.00    -0.142 OA 
HETATM   16  C   UNL     1      -7.746   5.715  66.078  1.00  0.00    -0.095 C  
HETATM   17  C   UNL     1      -8.156   7.165  65.842  1.00  0.00    -0.122 C  
HETATM   18  H   UNL     1      -9.888   4.293  66.650  1.00  0.00     0.000 HD 
HETATM   19  O   UNL     1      -9.433   7.206  65.196  1.00  0.00     0.150 OA 
HETATM   20  C   UNL     1      -8.262   7.813  67.244  1.00  0.00    -0.119 C  
HETATM   21  H   UNL     1      -9.688   8.110  65.049  1.00  0.00     0.000 HD 
BRANCH  20  22
HETATM   22  C   UNL     1      -7.200   8.832  67.617  1.00  0.00    -0.080 C  
HETATM   23  C   UNL     1      -7.227   9.665  68.674  1.00  0.00    -0.073 C  
BRANCH  23  24
HETATM   24  C   UNL     1      -6.205  10.724  69.028  1.00  0.00    -0.042 C  
HETATM   25  H   UNL     1      -4.609  10.849  70.158  1.00  0.00     0.000 HD 
HETATM   26  O   UNL     1      -5.250  10.184  69.936  1.00  0.00    -0.037 OA 
BRANCH  24  27
HETATM   27  C   UNL     1      -5.498  11.233  67.755  1.00  0.00    -0.044 C  
BRANCH  27  28
HETATM   28  O   UNL     1      -6.414  11.929  66.895  1.00  0.00    -0.148 OA 
BRANCH  28  29
HETATM   29  C   UNL     1      -7.214  12.838  67.542  1.00  0.00    -0.154 A  
HETATM   30  C   UNL     1      -6.870  14.176  67.754  1.00  0.00    -0.188 A  
HETATM   31  C   UNL     1      -7.753  15.035  68.412  1.00  0.00    -0.113 A  
HETATM   32  C   UNL     1      -8.988  14.563  68.853  1.00  0.00    -0.109 A  
HETATM   33  C   UNL     1      -9.357  13.230  68.637  1.00  0.00    -0.001 A  
HETATM   34  C   UNL     1     -10.693  12.717  69.115  1.00  0.00    -0.016 C  
HETATM   35  C   UNL     1      -8.464  12.375  67.966  1.00  0.00    -0.176 A  
HETATM   36  F   UNL     1     -11.424  13.655  69.786  1.00  0.00    -0.299 F  
HETATM   37  F   UNL     1     -10.574  11.664  69.970  1.00  0.00     0.051 F  
HETATM   38  F   UNL     1     -11.488  12.289  68.097  1.00  0.00    -0.267 F  
ENDBRANCH  28  29
ENDBRANCH  27  28
ENDBRANCH  24  27
ENDBRANCH  23  24
ENDBRANCH  20  22
ENDBRANCH  12  13
ENDBRANCH  11  12
ENDBRANCH   9  10
ENDBRANCH   8   9
ENDBRANCH   7   8
ENDBRANCH   5   7
ENDBRANCH   4   5
ENDBRANCH   2   4
TORSDOF 13
ENDMDL
MODEL      434
REMARK 921   NORMALIZED FREE ENERGY PREDICTED BY IDOCK:    4.48 KCAL/MOL
REMARK 922        TOTAL FREE ENERGY PREDICTED BY IDOCK:    5.66 KCAL/MOL
REMARK 923 INTER-LIGAND FREE ENERGY PREDICTED BY IDOCK:   -3.99 KCAL/MOL
REMARK 924 INTRA-LIGAND FREE ENERGY PREDICTED BY IDOCK:    9.66 KCAL/MOL
REMARK 927      BINDING AFFINITY PREDICTED BY RF-SCORE:    0.00 PKD
ROOT
HETATM    1  C   UNL     1      -5.843   3.305  72.427  1.00  0.00    -0.008 C  
HETATM    2  C   UNL     1      -7.019   3.614  71.506  1.00  0.00    -0.031 C  
HETATM    3  C   UNL     1      -8.330   3.615  72.287  1.00  0.00    -0.085 C  
ENDROOT
BRANCH   2   4
HETATM    4  O   UNL     1      -6.849   4.927  70.942  1.00  0.00    -0.037 OA 
BRANCH   4   5
HETATM    5  C   UNL     1      -7.540   5.150  69.789  1.00  0.00    -0.061 C  
HETATM    6  O   UNL     1      -8.654   4.709  69.542  1.00  0.00    -0.080 OA 
BRANCH   5   7
HETATM    7  C   UNL     1      -6.713   5.970  68.835  1.00  0.00    -0.060 C  
BRANCH   7   8
HETATM    8  C   UNL     1      -7.167   5.710  67.399  1.00  0.00    -0.076 C  
BRANCH   8   9
HETATM    9  C   UNL     1      -7.261   4.228  67.048  1.00  0.00    -0.068 C  
BRANCH   9  10
HETATM   10  C   UNL     1      -8.447   3.908  66.180  1.00  0.00    -0.110 C  
HETATM   11  C   UNL     1      -9.227   4.802  65.552  1.00  0.00    -0.155 C  
BRANCH  11  12
HETATM   12  C   UNL     1      -9.110   6.298  65.658  1.00  0.00     0.019 C  
BRANCH  12  13
HETATM   13  C   UNL     1      -7.695   6.813  65.364  1.00  0.00    -0.100 C  
HETATM   14  C   UNL     1      -6.958   6.104  64.221  1.00  0.00    -0.051 C  
HETATM   15  O   UNL     1      -7.835   5.786  63.146  1.00  0.00    -0.088 OA 
HETATM   16  C   UNL     1      -5.951   7.139  63.735  1.00  0.00    -0.044 C  
HETATM   17  C   UNL     1      -6.725   8.453  63.789  1.00  0.00    -0.076 C  
HETATM   18  H   UNL     1      -7.378   5.347  62.438  1.00  0.00     0.000 HD 
HETATM   19  O   UNL     1      -7.459   8.630  62.573  1.00  0.00    -0.101 OA 
HETATM   20  C   UNL     1      -7.711   8.319  64.976  1.00  0.00    -0.105 C  
HETATM   21  H   UNL     1      -7.941   9.447  62.606  1.00  0.00     0.000 HD 
BRANCH  20  22
HETATM   22  C   UNL     1      -7.429   9.162  66.207  1.00  0.00    -0.092 C  
HETATM   23  C   UNL     1      -6.478   8.935  67.131  1.00  0.00    -0.061 C  
BRANCH  23  24
HETATM   24  C   UNL     1      -6.221   9.732  68.392  1.00  0.00    -0.050 C  
HETATM   25  H   UNL     1      -7.059  11.237  69.327  1.00  0.00     0.000 HD 
HETATM   26  O   UNL     1      -7.221  10.736  68.535  1.00  0.00    -0.080 OA 
BRANCH  24  27
HETATM   27  C   UNL     1      -6.222   8.803  69.623  1.00  0.00    -0.036 C  
BRANCH  27  28
HETATM   28  O   UNL     1      -7.344   7.906  69.596  1.00  0.00    -0.084 OA 
BRANCH  28  29
HETATM   29  C   UNL     1      -8.562   8.522  69.743  1.00  0.00    -0.131 A  
HETATM   30  C   UNL     1      -9.437   8.289  70.806  1.00  0.00    -0.185 A  
HETATM   31  C   UNL     1     -10.653   8.973  70.881  1.00  0.00    -0.316 A  
HETATM   32  C   UNL     1     -10.995   9.900  69.899  1.00  0.00    -0.321 A  
HETATM   33  C   UNL     1     -10.125  10.159  68.833  1.00  0.00    -0.211 A  
HETATM   34  C   UNL     1     -10.494  11.161  67.768  1.00  0.00    -0.193 C  
HETATM   35  C   UNL     1      -8.899   9.471  68.771  1.00  0.00    -0.132 A  
HETATM   36  F   UNL     1     -11.731  11.709  67.946  1.00  0.00    -0.339 F  
HETATM   37  F   UNL     1     -10.510  10.616  66.520  1.00  0.00    -0.270 F  
HETATM   38  F   UNL     1      -9.631  12.211  67.710  1.00  0.00    -0.176 F  
ENDBRANCH  28  29
ENDBRANCH  27  28
ENDBRANCH  24  27
ENDBRANCH  23  24
ENDBRANCH  20  22
ENDBRANCH  12  13
ENDBRANCH  11  12
ENDBRANCH   9  10
ENDBRANCH   8   9
ENDBRANCH   7   8
ENDBRANCH   5   7
ENDBRANCH   4   5
ENDBRANCH   2   4
TORSDOF 13
ENDMDL
MODEL      435
REMARK 921   NORMALIZED FREE ENERGY PREDICTED BY IDOCK:    4.51 KCAL/MOL
REMARK 922        TOTAL FREE ENERGY PREDICTED BY IDOCK:    5.72 KCAL/MOL
REMARK 923 INTER-LIGAND FREE ENERGY PREDICTED BY IDOCK:    2.83 KCAL/MOL
REMARK 924 INTRA-LIGAND FREE ENERGY PREDICTED BY IDOCK:    2.89 KCAL/MOL
REMARK 927      BINDING AFFINITY PREDICTED BY RF-SCORE:    0.00 PKD
ROOT
HETATM    1  C   UNL     1     -10.342   1.623  66.708  1.00  0.00     2.383 C  
HETATM    2  C   UNL     1      -9.751   3.002  66.977  1.00  0.00     0.229 C  
HETATM    3  C   UNL     1      -8.270   2.897  67.328  1.00  0.00    -0.085 C  
ENDROOT
BRANCH   2   4
HETATM    4  O   UNL     1      -9.859   3.806  65.789  1.00  0.00    -0.166 OA 
BRANCH   4   5
HETATM    5  C   UNL     1     -10.693   4.879  65.895  1.00  0.00    -0.179 C  
HETATM    6  O   UNL     1     -11.776   4.873  66.465  1.00  0.00     2.005 OA 
BRANCH   5   7
HETATM    7  C   UNL     1     -10.119   6.061  65.160  1.00  0.00     1.468 C  
BRANCH   7   8
HETATM    8  C   UNL     1      -8.972   5.605  64.258  1.00  0.00     0.326 C  
BRANCH   8   9
HETATM    9  C   UNL     1      -8.028   4.612  64.928  1.00  0.00    -0.099 C  
BRANCH   9  10
HETATM   10  C   UNL     1      -6.683   4.543  64.257  1.00  0.00    -0.044 C  
HETATM   11  C   UNL     1      -5.730   5.487  64.303  1.00  0.00    -0.017 C  
BRANCH  11  12
HETATM   12  C   UNL     1      -5.854   6.828  64.971  1.00  0.00    -0.035 C  
BRANCH  12  13
HETATM   13  C   UNL     1      -7.071   6.927  65.901  1.00  0.00    -0.072 C  
HETATM   14  C   UNL     1      -6.958   6.154  67.221  1.00  0.00    -0.069 C  
HETATM   15  O   UNL     1      -5.644   6.226  67.762  1.00  0.00    -0.005 OA 
HETATM   16  C   UNL     1      -7.910   6.887  68.159  1.00  0.00    -0.114 C  
HETATM   17  C   UNL     1      -7.695   8.359  67.817  1.00  0.00    -0.103 C  
HETATM   18  H   UNL     1      -5.574   5.747  68.580  1.00  0.00     0.000 HD 
HETATM   19  O   UNL     1      -6.592   8.872  68.572  1.00  0.00    -0.057 OA 
HETATM   20  C   UNL     1      -7.355   8.401  66.307  1.00  0.00    -0.086 C  
HETATM   21  H   UNL     1      -6.458   9.788  68.359  1.00  0.00     0.000 HD 
BRANCH  20  22
HETATM   22  C   UNL     1      -8.404   8.988  65.379  1.00  0.00    -0.151 C  
HETATM   23  C   UNL     1      -8.278  10.099  64.631  1.00  0.00    -0.165 C  
BRANCH  23  24
HETATM   24  C   UNL     1      -9.331  10.728  63.745  1.00  0.00    -0.266 C  
HETATM   25  H   UNL     1     -11.254  10.507  63.434  1.00  0.00     0.000 HD 
HETATM   26  O   UNL     1     -10.592  10.113  63.990  1.00  0.00     0.456 OA 
BRANCH  24  27
HETATM   27  C   UNL     1      -9.421  12.244  64.012  1.00  0.00     0.235 C  
BRANCH  27  28
HETATM   28  O   UNL     1     -10.688  12.595  64.593  1.00  0.00    -0.294 OA 
BRANCH  28  29
HETATM   29  C   UNL     1     -10.600  13.459  65.656  1.00  0.00    -0.282 A  
HETATM   30  C   UNL     1     -11.346  13.339  66.831  1.00  0.00    -0.351 A  
HETATM   31  C   UNL     1     -11.182  14.259  67.869  1.00  0.00    -0.305 A  
HETATM   32  C   UNL     1     -10.264  15.300  67.740  1.00  0.00    -0.237 A  
HETATM   33  C   UNL     1      -9.496  15.430  66.577  1.00  0.00    -0.298 A  
HETATM   34  C   UNL     1      -8.503  16.557  66.435  1.00  0.00    -0.321 C  
HETATM   35  C   UNL     1      -9.664  14.492  65.541  1.00  0.00    -0.232 A  
HETATM   36  F   UNL     1      -8.491  17.404  67.504  1.00  0.00    -0.205 F  
HETATM   37  F   UNL     1      -8.751  17.339  65.349  1.00  0.00     0.151 F  
HETATM   38  F   UNL     1      -7.222  16.117  66.299  1.00  0.00    -0.188 F  
ENDBRANCH  28  29
ENDBRANCH  27  28
ENDBRANCH  24  27
ENDBRANCH  23  24
ENDBRANCH  20  22
ENDBRANCH  12  13
ENDBRANCH  11  12
ENDBRANCH   9  10
ENDBRANCH   8   9
ENDBRANCH   7   8
ENDBRANCH   5   7
ENDBRANCH   4   5
ENDBRANCH   2   4
TORSDOF 13
ENDMDL
MODEL      436
REMARK 921   NORMALIZED FREE ENERGY PREDICTED BY IDOCK:    4.55 KCAL/MOL
REMARK 922        TOTAL FREE ENERGY PREDICTED BY IDOCK:    5.79 KCAL/MOL
REMARK 923 INTER-LIGAND FREE ENERGY PREDICTED BY IDOCK:    4.24 KCAL/MOL
REMARK 924 INTRA-LIGAND FREE ENERGY PREDICTED BY IDOCK:    1.55 KCAL/MOL
REMARK 927      BINDING AFFINITY PREDICTED BY RF-SCORE:    0.00 PKD
ROOT
HETATM    1  C   UNL     1     -11.819  18.310  67.971  1.00  0.00     2.344 C  
HETATM    2  C   UNL     1     -12.031  17.082  67.093  1.00  0.00     2.036 C  
HETATM    3  C   UNL     1     -10.752  16.728  66.342  1.00  0.00    -0.105 C  
ENDROOT
BRANCH   2   4
HETATM    4  O   UNL     1     -12.373  15.958  67.922  1.00  0.00     0.542 OA 
BRANCH   4   5
HETATM    5  C   UNL     1     -12.284  14.743  67.309  1.00  0.00     0.050 C  
HETATM    6  O   UNL     1     -12.664  14.502  66.171  1.00  0.00    -0.231 OA 
BRANCH   5   7
HETATM    7  C   UNL     1     -11.704  13.723  68.252  1.00  0.00    -0.394 C  
BRANCH   7   8
HETATM    8  C   UNL     1     -10.651  14.380  69.144  1.00  0.00    -0.229 C  
BRANCH   8   9
HETATM    9  C   UNL     1      -9.228  13.914  68.853  1.00  0.00     0.081 C  
BRANCH   9  10
HETATM   10  C   UNL     1      -8.255  14.301  69.933  1.00  0.00     0.878 C  
HETATM   11  C   UNL     1      -7.782  15.536  70.162  1.00  0.00     0.460 C  
BRANCH  11  12
HETATM   12  C   UNL     1      -8.076  16.756  69.333  1.00  0.00     0.159 C  
BRANCH  12  13
HETATM   13  C   UNL     1      -7.888  16.521  67.828  1.00  0.00    -0.164 C  
HETATM   14  C   UNL     1      -8.199  17.723  66.928  1.00  0.00    -0.232 C  
HETATM   15  O   UNL     1      -7.767  18.946  67.515  1.00  0.00    -0.231 OA 
HETATM   16  C   UNL     1      -7.372  17.467  65.674  1.00  0.00     0.228 C  
HETATM   17  C   UNL     1      -6.058  16.911  66.214  1.00  0.00     0.210 C  
HETATM   18  H   UNL     1      -7.960  19.691  66.957  1.00  0.00     0.000 HD 
HETATM   19  O   UNL     1      -5.178  17.990  66.546  1.00  0.00    -0.129 OA 
HETATM   20  C   UNL     1      -6.422  16.123  67.496  1.00  0.00    -0.202 C  
HETATM   21  H   UNL     1      -4.359  17.643  66.883  1.00  0.00     0.000 HD 
BRANCH  20  22
HETATM   22  C   UNL     1      -6.310  14.610  67.433  1.00  0.00     0.103 C  
HETATM   23  C   UNL     1      -5.282  13.865  67.879  1.00  0.00    -0.067 C  
BRANCH  23  24
HETATM   24  C   UNL     1      -5.130  12.363  67.774  1.00  0.00    -0.087 C  
HETATM   25  H   UNL     1      -5.871  10.785  68.670  1.00  0.00     0.000 HD 
HETATM   26  O   UNL     1      -5.967  11.728  68.736  1.00  0.00    -0.047 OA 
BRANCH  24  27
HETATM   27  C   UNL     1      -5.499  11.885  66.354  1.00  0.00     0.269 C  
BRANCH  27  28
HETATM   28  O   UNL     1      -6.671  11.054  66.374  1.00  0.00    -0.128 OA 
BRANCH  28  29
HETATM   29  C   UNL     1      -6.426   9.743  66.696  1.00  0.00    -0.070 A  
HETATM   30  C   UNL     1      -5.359   9.315  67.489  1.00  0.00    -0.037 A  
HETATM   31  C   UNL     1      -5.194   7.958  67.777  1.00  0.00    -0.032 A  
HETATM   32  C   UNL     1      -6.101   7.024  67.281  1.00  0.00    -0.040 A  
HETATM   33  C   UNL     1      -7.186   7.434  66.497  1.00  0.00    -0.079 A  
HETATM   34  C   UNL     1      -8.168   6.423  65.958  1.00  0.00    -0.126 C  
HETATM   35  C   UNL     1      -7.347   8.804  66.220  1.00  0.00    -0.087 A  
HETATM   36  F   UNL     1      -7.849   5.136  66.277  1.00  0.00    -0.097 F  
HETATM   37  F   UNL     1      -8.258   6.454  64.600  1.00  0.00    -0.128 F  
HETATM   38  F   UNL     1      -9.432   6.617  66.424  1.00  0.00    -0.177 F  
ENDBRANCH  28  29
ENDBRANCH  27  28
ENDBRANCH  24  27
ENDBRANCH  23  24
ENDBRANCH  20  22
ENDBRANCH  12  13
ENDBRANCH  11  12
ENDBRANCH   9  10
ENDBRANCH   8   9
ENDBRANCH   7   8
ENDBRANCH   5   7
ENDBRANCH   4   5
ENDBRANCH   2   4
TORSDOF 13
ENDMDL
MODEL      437
REMARK 921   NORMALIZED FREE ENERGY PREDICTED BY IDOCK:    5.01 KCAL/MOL
REMARK 922        TOTAL FREE ENERGY PREDICTED BY IDOCK:    6.60 KCAL/MOL
REMARK 923 INTER-LIGAND FREE ENERGY PREDICTED BY IDOCK:    4.13 KCAL/MOL
REMARK 924 INTRA-LIGAND FREE ENERGY PREDICTED BY IDOCK:    2.47 KCAL/MOL
REMARK 927      BINDING AFFINITY PREDICTED BY RF-SCORE:    0.00 PKD
ROOT
HETATM    1  C   UNL     1     -13.822  12.370  68.609  1.00  0.00     8.770 C  
HETATM    2  C   UNL     1     -12.623  13.297  68.447  1.00  0.00     0.734 C  
HETATM    3  C   UNL     1     -12.082  13.725  69.808  1.00  0.00    -0.400 C  
ENDROOT
BRANCH   2   4
HETATM    4  O   UNL     1     -11.569  12.596  67.762  1.00  0.00    -0.306 OA 
BRANCH   4   5
HETATM    5  C   UNL     1     -10.381  13.262  67.703  1.00  0.00    -0.230 C  
HETATM    6  O   UNL     1     -10.137  14.316  68.274  1.00  0.00    -0.225 OA 
BRANCH   5   7
HETATM    7  C   UNL     1      -9.426  12.545  66.786  1.00  0.00    -0.231 C  
BRANCH   7   8
HETATM    8  C   UNL     1      -8.539  11.599  67.596  1.00  0.00    -0.142 C  
BRANCH   8   9
HETATM    9  C   UNL     1      -7.593  12.319  68.552  1.00  0.00    -0.118 C  
BRANCH   9  10
HETATM   10  C   UNL     1      -6.413  12.934  67.851  1.00  0.00    -0.127 C  
HETATM   11  C   UNL     1      -5.362  12.269  67.345  1.00  0.00    -0.116 C  
BRANCH  11  12
HETATM   12  C   UNL     1      -5.128  10.788  67.450  1.00  0.00    -0.037 C  
BRANCH  12  13
HETATM   13  C   UNL     1      -6.330   9.953  66.988  1.00  0.00    -0.065 C  
HETATM   14  C   UNL     1      -6.612   9.981  65.481  1.00  0.00    -0.100 C  
HETATM   15  O   UNL     1      -5.410   9.977  64.719  1.00  0.00    -0.064 OA 
HETATM   16  C   UNL     1      -7.356   8.676  65.221  1.00  0.00    -0.085 C  
HETATM   17  C   UNL     1      -6.631   7.665  66.104  1.00  0.00    -0.049 C  
HETATM   18  H   UNL     1      -5.585   9.994  63.785  1.00  0.00     0.000 HD 
HETATM   19  O   UNL     1      -5.503   7.134  65.402  1.00  0.00    -0.027 OA 
HETATM   20  C   UNL     1      -6.148   8.451  67.347  1.00  0.00    -0.052 C  
HETATM   21  H   UNL     1      -5.051   6.504  65.952  1.00  0.00     0.000 HD 
BRANCH  20  22
HETATM   22  C   UNL     1      -6.844   8.159  68.665  1.00  0.00    -0.067 C  
HETATM   23  C   UNL     1      -8.162   7.954  68.845  1.00  0.00    -0.126 C  
BRANCH  23  24
HETATM   24  C   UNL     1      -8.878   7.717  70.157  1.00  0.00    -0.145 C  
HETATM   25  H   UNL     1     -10.439   6.704  70.771  1.00  0.00     0.000 HD 
HETATM   26  O   UNL     1      -9.990   6.852  69.947  1.00  0.00    -0.174 OA 
BRANCH  24  27
HETATM   27  C   UNL     1      -7.913   7.099  71.190  1.00  0.00    -0.102 C  
BRANCH  27  28
HETATM   28  O   UNL     1      -8.486   7.112  72.508  1.00  0.00    -0.111 OA 
BRANCH  28  29
HETATM   29  C   UNL     1      -9.840   6.891  72.536  1.00  0.00    -0.157 A  
HETATM   30  C   UNL     1     -10.429   5.666  72.862  1.00  0.00    -0.246 A  
HETATM   31  C   UNL     1     -11.820   5.535  72.878  1.00  0.00    -0.134 A  
HETATM   32  C   UNL     1     -12.627   6.630  72.577  1.00  0.00     0.244 A  
HETATM   33  C   UNL     1     -12.057   7.869  72.262  1.00  0.00    -0.363 A  
HETATM   34  C   UNL     1     -12.931   9.054  71.934  1.00  0.00    -0.389 C  
HETATM   35  C   UNL     1     -10.655   7.992  72.257  1.00  0.00    -0.356 A  
HETATM   36  F   UNL     1     -14.263   8.762  71.938  1.00  0.00    -0.402 F  
HETATM   37  F   UNL     1     -12.671   9.570  70.701  1.00  0.00    -0.268 F  
HETATM   38  F   UNL     1     -12.776  10.082  72.813  1.00  0.00    -0.204 F  
ENDBRANCH  28  29
ENDBRANCH  27  28
ENDBRANCH  24  27
ENDBRANCH  23  24
ENDBRANCH  20  22
ENDBRANCH  12  13
ENDBRANCH  11  12
ENDBRANCH   9  10
ENDBRANCH   8   9
ENDBRANCH   7   8
ENDBRANCH   5   7
ENDBRANCH   4   5
ENDBRANCH   2   4
TORSDOF 13
ENDMDL
MODEL      438
REMARK 921   NORMALIZED FREE ENERGY PREDICTED BY IDOCK:    5.19 KCAL/MOL
REMARK 922        TOTAL FREE ENERGY PREDICTED BY IDOCK:    6.91 KCAL/MOL
REMARK 923 INTER-LIGAND FREE ENERGY PREDICTED BY IDOCK:    6.57 KCAL/MOL
REMARK 924 INTRA-LIGAND FREE ENERGY PREDICTED BY IDOCK:    0.34 KCAL/MOL
REMARK 927      BINDING AFFINITY PREDICTED BY RF-SCORE:    0.00 PKD
ROOT
HETATM    1  C   UNL     1      -6.638  19.189  64.810  1.00  0.00     0.059 C  
HETATM    2  C   UNL     1      -6.267  17.976  65.656  1.00  0.00    -0.217 C  
HETATM    3  C   UNL     1      -5.542  18.405  66.928  1.00  0.00    -0.157 C  
ENDROOT
BRANCH   2   4
HETATM    4  O   UNL     1      -7.468  17.288  66.052  1.00  0.00    -0.353 OA 
BRANCH   4   5
HETATM    5  C   UNL     1      -8.619  17.791  65.523  1.00  0.00     0.993 C  
HETATM    6  O   UNL     1      -9.179  17.361  64.524  1.00  0.00     3.730 OA 
BRANCH   5   7
HETATM    7  C   UNL     1      -9.073  18.993  66.308  1.00  0.00    -0.298 C  
BRANCH   7   8
HETATM    8  C   UNL     1      -8.817  18.767  67.798  1.00  0.00    -0.313 C  
BRANCH   8   9
HETATM    9  C   UNL     1      -9.878  19.390  68.701  1.00  0.00    -0.522 C  
BRANCH   9  10
HETATM   10  C   UNL     1      -9.691  19.034  70.150  1.00  0.00     1.037 C  
HETATM   11  C   UNL     1      -8.534  18.683  70.733  1.00  0.00     4.461 C  
BRANCH  11  12
HETATM   12  C   UNL     1      -7.216  18.504  70.031  1.00  0.00     0.773 C  
BRANCH  12  13
HETATM   13  C   UNL     1      -6.991  17.070  69.531  1.00  0.00    -0.052 C  
HETATM   14  C   UNL     1      -5.638  16.449  69.896  1.00  0.00    -0.185 C  
HETATM   15  O   UNL     1      -5.226  16.816  71.209  1.00  0.00    -0.195 OA 
HETATM   16  C   UNL     1      -5.903  14.948  69.873  1.00  0.00    -0.123 C  
HETATM   17  C   UNL     1      -7.288  14.816  70.500  1.00  0.00     0.696 C  
HETATM   18  H   UNL     1      -4.387  16.431  71.435  1.00  0.00     0.000 HD 
HETATM   19  O   UNL     1      -7.168  14.749  71.925  1.00  0.00     1.256 OA 
HETATM   20  C   UNL     1      -8.061  16.097  70.102  1.00  0.00     1.267 C  
HETATM   21  H   UNL     1      -8.031  14.667  72.315  1.00  0.00     0.000 HD 
BRANCH  20  22
HETATM   22  C   UNL     1      -9.190  15.941  69.099  1.00  0.00    -0.253 C  
HETATM   23  C   UNL     1      -9.200  15.125  68.028  1.00  0.00    -0.185 C  
BRANCH  23  24
HETATM   24  C   UNL     1     -10.293  14.999  66.988  1.00  0.00    -0.269 C  
HETATM   25  H   UNL     1     -10.594  13.965  65.350  1.00  0.00     0.000 HD 
HETATM   26  O   UNL     1      -9.908  14.044  66.003  1.00  0.00    -0.300 OA 
BRANCH  24  27
HETATM   27  C   UNL     1     -11.618  14.572  67.651  1.00  0.00    -0.378 C  
BRANCH  27  28
HETATM   28  O   UNL     1     -11.547  13.219  68.130  1.00  0.00    -0.295 OA 
BRANCH  28  29
HETATM   29  C   UNL     1     -12.070  13.037  69.385  1.00  0.00    -0.212 A  
HETATM   30  C   UNL     1     -12.404  11.792  69.925  1.00  0.00    -0.200 A  
HETATM   31  C   UNL     1     -12.920  11.701  71.220  1.00  0.00    -0.368 A  
HETATM   32  C   UNL     1     -13.097  12.852  71.984  1.00  0.00    -0.483 A  
HETATM   33  C   UNL     1     -12.754  14.108  71.467  1.00  0.00    -0.436 A  
HETATM   34  C   UNL     1     -12.946  15.356  72.293  1.00  0.00    -0.391 C  
HETATM   35  C   UNL     1     -12.227  14.188  70.165  1.00  0.00    -0.415 A  
HETATM   36  F   UNL     1     -13.507  15.116  73.514  1.00  0.00    -0.511 F  
HETATM   37  F   UNL     1     -13.760  16.264  71.687  1.00  0.00    -0.113 F  
HETATM   38  F   UNL     1     -11.778  16.005  72.545  1.00  0.00    -0.478 F  
ENDBRANCH  28  29
ENDBRANCH  27  28
ENDBRANCH  24  27
ENDBRANCH  23  24
ENDBRANCH  20  22
ENDBRANCH  12  13
ENDBRANCH  11  12
ENDBRANCH   9  10
ENDBRANCH   8   9
ENDBRANCH   7   8
ENDBRANCH   5   7
ENDBRANCH   4   5
ENDBRANCH   2   4
TORSDOF 13
ENDMDL
MODEL      439
REMARK 921   NORMALIZED FREE ENERGY PREDICTED BY IDOCK:    7.61 KCAL/MOL
REMARK 922        TOTAL FREE ENERGY PREDICTED BY IDOCK:   11.18 KCAL/MOL
REMARK 923 INTER-LIGAND FREE ENERGY PREDICTED BY IDOCK:    0.59 KCAL/MOL
REMARK 924 INTRA-LIGAND FREE ENERGY PREDICTED BY IDOCK:   10.59 KCAL/MOL
REMARK 927      BINDING AFFINITY PREDICTED BY RF-SCORE:    0.00 PKD
ROOT
HETATM    1  C   UNL     1     -10.375   2.264  72.245  1.00  0.00    -0.166 C  
HETATM    2  C   UNL     1      -9.974   3.252  71.154  1.00  0.00     0.043 C  
HETATM    3  C   UNL     1     -11.201   3.961  70.590  1.00  0.00     3.840 C  
ENDROOT
BRANCH   2   4
HETATM    4  O   UNL     1      -9.113   4.258  71.717  1.00  0.00    -0.116 OA 
BRANCH   4   5
HETATM    5  C   UNL     1      -9.458   5.542  71.417  1.00  0.00    -0.148 C  
HETATM    6  O   UNL     1      -8.705   6.504  71.481  1.00  0.00    -0.132 OA 
BRANCH   5   7
HETATM    7  C   UNL     1     -10.917   5.619  71.052  1.00  0.00    -0.247 C  
BRANCH   7   8
HETATM    8  C   UNL     1     -11.735   6.042  72.272  1.00  0.00    -0.338 C  
BRANCH   8   9
HETATM    9  C   UNL     1     -11.870   7.555  72.421  1.00  0.00    -0.305 C  
BRANCH   9  10
HETATM   10  C   UNL     1     -10.910   8.315  71.548  1.00  0.00    -0.308 C  
HETATM   11  C   UNL     1      -9.611   8.531  71.807  1.00  0.00    -0.337 C  
BRANCH  11  12
HETATM   12  C   UNL     1      -8.885   8.120  73.059  1.00  0.00    -0.316 C  
BRANCH  12  13
HETATM   13  C   UNL     1      -7.386   8.445  73.020  1.00  0.00    -0.109 C  
HETATM   14  C   UNL     1      -6.554   7.865  74.170  1.00  0.00    -0.105 C  
HETATM   15  O   UNL     1      -6.988   6.557  74.526  1.00  0.00    -0.091 OA 
HETATM   16  C   UNL     1      -5.146   7.770  73.595  1.00  0.00    -0.041 C  
HETATM   17  C   UNL     1      -5.372   7.299  72.161  1.00  0.00    -0.036 C  
HETATM   18  H   UNL     1      -6.472   6.198  75.239  1.00  0.00     0.000 HD 
HETATM   19  O   UNL     1      -5.455   5.870  72.131  1.00  0.00    -0.021 OA 
HETATM   20  C   UNL     1      -6.724   7.909  71.719  1.00  0.00    -0.053 C  
HETATM   21  H   UNL     1      -5.596   5.577  71.238  1.00  0.00     0.000 HD 
BRANCH  20  22
HETATM   22  C   UNL     1      -6.677   9.016  70.681  1.00  0.00    -0.064 C  
HETATM   23  C   UNL     1      -7.731   9.569  70.053  1.00  0.00    -0.146 C  
BRANCH  23  24
HETATM   24  C   UNL     1      -7.698  10.633  68.977  1.00  0.00    -0.130 C  
HETATM   25  H   UNL     1      -7.772  12.590  68.899  1.00  0.00     0.000 HD 
HETATM   26  O   UNL     1      -7.793  11.922  69.575  1.00  0.00     0.355 OA 
BRANCH  24  27
HETATM   27  C   UNL     1      -6.397  10.524  68.156  1.00  0.00    -0.058 C  
BRANCH  27  28
HETATM   28  O   UNL     1      -6.354   9.297  67.410  1.00  0.00    -0.061 OA 
BRANCH  28  29
HETATM   29  C   UNL     1      -7.518   9.001  66.746  1.00  0.00    -0.086 A  
HETATM   30  C   UNL     1      -7.781   9.362  65.422  1.00  0.00    -0.103 A  
HETATM   31  C   UNL     1      -8.991   9.007  64.821  1.00  0.00    -0.146 A  
HETATM   32  C   UNL     1      -9.940   8.283  65.538  1.00  0.00     0.944 A  
HETATM   33  C   UNL     1      -9.690   7.898  66.860  1.00  0.00    -0.285 A  
HETATM   34  C   UNL     1     -10.718   7.114  67.638  1.00  0.00    -0.244 C  
HETATM   35  C   UNL     1      -8.465   8.254  67.453  1.00  0.00    -0.125 A  
HETATM   36  F   UNL     1     -11.868   6.888  66.940  1.00  0.00    -0.024 F  
HETATM   37  F   UNL     1     -11.102   7.746  68.783  1.00  0.00    -0.107 F  
HETATM   38  F   UNL     1     -10.269   5.887  68.017  1.00  0.00    -0.140 F  
ENDBRANCH  28  29
ENDBRANCH  27  28
ENDBRANCH  24  27
ENDBRANCH  23  24
ENDBRANCH  20  22
ENDBRANCH  12  13
ENDBRANCH  11  12
ENDBRANCH   9  10
ENDBRANCH   8   9
ENDBRANCH   7   8
ENDBRANCH   5   7
ENDBRANCH   4   5
ENDBRANCH   2   4
TORSDOF 13
ENDMDL
MODEL      440
REMARK 921   NORMALIZED FREE ENERGY PREDICTED BY IDOCK:    7.88 KCAL/MOL
REMARK 922        TOTAL FREE ENERGY PREDICTED BY IDOCK:   11.65 KCAL/MOL
REMARK 923 INTER-LIGAND FREE ENERGY PREDICTED BY IDOCK:   -0.26 KCAL/MOL
REMARK 924 INTRA-LIGAND FREE ENERGY PREDICTED BY IDOCK:   11.92 KCAL/MOL
REMARK 927      BINDING AFFINITY PREDICTED BY RF-SCORE:    0.00 PKD
ROOT
HETATM    1  C   UNL     1     -10.375   2.264  72.245  1.00  0.00    -0.166 C  
HETATM    2  C   UNL     1      -9.987   3.262  71.159  1.00  0.00     0.043 C  
HETATM    3  C   UNL     1     -11.222   3.964  70.603  1.00  0.00     3.840 C  
ENDROOT
BRANCH   2   4
HETATM    4  O   UNL     1      -9.133   4.272  71.726  1.00  0.00    -0.116 OA 
BRANCH   4   5
HETATM    5  C   UNL     1      -9.490   5.555  71.435  1.00  0.00    -0.148 C  
HETATM    6  O   UNL     1      -8.745   6.524  71.502  1.00  0.00    -0.132 OA 
BRANCH   5   7
HETATM    7  C   UNL     1     -10.950   5.622  71.075  1.00  0.00    -0.247 C  
BRANCH   7   8
HETATM    8  C   UNL     1     -11.768   6.031  72.300  1.00  0.00    -0.338 C  
BRANCH   8   9
HETATM    9  C   UNL     1     -11.916   7.541  72.459  1.00  0.00    -0.215 C  
BRANCH   9  10
HETATM   10  C   UNL     1     -10.965   8.314  71.586  1.00  0.00    -0.327 C  
HETATM   11  C   UNL     1      -9.667   8.540  71.843  1.00  0.00    -0.358 C  
BRANCH  11  12
HETATM   12  C   UNL     1      -8.934   8.128  73.089  1.00  0.00    -0.330 C  
BRANCH  12  13
HETATM   13  C   UNL     1      -7.438   8.466  73.047  1.00  0.00    -0.113 C  
HETATM   14  C   UNL     1      -6.597   7.886  74.191  1.00  0.00    -0.105 C  
HETATM   15  O   UNL     1      -7.018   6.572  74.541  1.00  0.00    -0.091 OA 
HETATM   16  C   UNL     1      -5.190   7.806  73.610  1.00  0.00    -0.045 C  
HETATM   17  C   UNL     1      -5.417   7.341  72.175  1.00  0.00    -0.037 C  
HETATM   18  H   UNL     1      -6.497   6.213  75.250  1.00  0.00     0.000 HD 
HETATM   19  O   UNL     1      -5.488   5.912  72.136  1.00  0.00    -0.021 OA 
HETATM   20  C   UNL     1      -6.776   7.942  71.741  1.00  0.00    -0.053 C  
HETATM   21  H   UNL     1      -5.630   5.623  71.243  1.00  0.00     0.000 HD 
BRANCH  20  22
HETATM   22  C   UNL     1      -6.742   9.056  70.709  1.00  0.00    -0.067 C  
HETATM   23  C   UNL     1      -7.803   9.604  70.088  1.00  0.00    -0.185 C  
BRANCH  23  24
HETATM   24  C   UNL     1      -7.782  10.674  69.018  1.00  0.00    -0.130 C  
HETATM   25  H   UNL     1      -7.873  12.631  68.952  1.00  0.00     0.000 HD 
HETATM   26  O   UNL     1      -7.885  11.959  69.624  1.00  0.00     0.523 OA 
BRANCH  24  27
HETATM   27  C   UNL     1      -6.483  10.581  68.193  1.00  0.00    -0.062 C  
BRANCH  27  28
HETATM   28  O   UNL     1      -6.626  11.237  66.922  1.00  0.00    -0.106 OA 
BRANCH  28  29
HETATM   29  C   UNL     1      -7.215  12.475  66.991  1.00  0.00     0.027 A  
HETATM   30  C   UNL     1      -6.509  13.675  67.111  1.00  0.00     0.534 A  
HETATM   31  C   UNL     1      -7.193  14.893  67.161  1.00  0.00    -0.005 A  
HETATM   32  C   UNL     1      -8.583  14.917  67.084  1.00  0.00    -0.248 A  
HETATM   33  C   UNL     1      -9.308  13.726  66.948  1.00  0.00    -0.267 A  
HETATM   34  C   UNL     1     -10.814  13.751  66.866  1.00  0.00    -0.285 C  
HETATM   35  C   UNL     1      -8.610  12.506  66.890  1.00  0.00    -0.158 A  
HETATM   36  F   UNL     1     -11.342  15.004  66.981  1.00  0.00    -0.330 F  
HETATM   37  F   UNL     1     -11.404  13.011  67.845  1.00  0.00    -0.256 F  
HETATM   38  F   UNL     1     -11.285  13.259  65.687  1.00  0.00    -0.291 F  
ENDBRANCH  28  29
ENDBRANCH  27  28
ENDBRANCH  24  27
ENDBRANCH  23  24
ENDBRANCH  20  22
ENDBRANCH  12  13
ENDBRANCH  11  12
ENDBRANCH   9  10
ENDBRANCH   8   9
ENDBRANCH   7   8
ENDBRANCH   5   7
ENDBRANCH   4   5
ENDBRANCH   2   4
TORSDOF 13
ENDMDL
MODEL      441
REMARK 921   NORMALIZED FREE ENERGY PREDICTED BY IDOCK:    9.04 KCAL/MOL
REMARK 922        TOTAL FREE ENERGY PREDICTED BY IDOCK:   13.68 KCAL/MOL
REMARK 923 INTER-LIGAND FREE ENERGY PREDICTED BY IDOCK:    6.29 KCAL/MOL
REMARK 924 INTRA-LIGAND FREE ENERGY PREDICTED BY IDOCK:    7.39 KCAL/MOL
REMARK 927      BINDING AFFINITY PREDICTED BY RF-SCORE:    0.00 PKD
ROOT
HETATM    1  C   UNL     1     -13.421  16.693  72.495  1.00  0.00     1.581 C  
HETATM    2  C   UNL     1     -12.193  17.592  72.591  1.00  0.00     3.248 C  
HETATM    3  C   UNL     1     -12.140  18.290  73.946  1.00  0.00     2.393 C  
ENDROOT
BRANCH   2   4
HETATM    4  O   UNL     1     -11.005  16.789  72.470  1.00  0.00     1.192 OA 
BRANCH   4   5
HETATM    5  C   UNL     1     -11.178  15.604  71.818  1.00  0.00    -0.240 C  
HETATM    6  O   UNL     1     -10.788  15.363  70.684  1.00  0.00    -0.319 OA 
BRANCH   5   7
HETATM    7  C   UNL     1     -11.971  14.650  72.672  1.00  0.00    -0.163 C  
BRANCH   7   8
HETATM    8  C   UNL     1     -11.917  13.246  72.069  1.00  0.00     1.284 C  
BRANCH   8   9
HETATM    9  C   UNL     1     -12.618  13.135  70.718  1.00  0.00    -0.338 C  
BRANCH   9  10
HETATM   10  C   UNL     1     -13.410  11.864  70.575  1.00  0.00     0.929 C  
HETATM   11  C   UNL     1     -12.987  10.735  69.984  1.00  0.00     0.042 C  
BRANCH  11  12
HETATM   12  C   UNL     1     -11.669  10.550  69.284  1.00  0.00    -0.281 C  
BRANCH  12  13
HETATM   13  C   UNL     1     -11.541  11.395  68.009  1.00  0.00    -0.357 C  
HETATM   14  C   UNL     1     -12.153  12.799  68.084  1.00  0.00    -0.108 C  
HETATM   15  O   UNL     1     -11.942  13.399  69.358  1.00  0.00    -0.307 OA 
HETATM   16  C   UNL     1     -11.379  13.594  67.039  1.00  0.00    -0.344 C  
HETATM   17  C   UNL     1      -9.945  13.098  67.195  1.00  0.00    -0.236 C  
HETATM   18  H   UNL     1     -12.321  14.270  69.403  1.00  0.00     0.000 HD 
HETATM   19  O   UNL     1      -9.284  13.847  68.220  1.00  0.00    -0.199 OA 
HETATM   20  C   UNL     1     -10.051  11.613  67.622  1.00  0.00    -0.204 C  
HETATM   21  H   UNL     1      -8.391  13.537  68.317  1.00  0.00     0.000 HD 
BRANCH  20  22
HETATM   22  C   UNL     1      -9.636  10.568  66.601  1.00  0.00    -0.210 C  
HETATM   23  C   UNL     1      -8.469  10.523  65.933  1.00  0.00    -0.164 C  
BRANCH  23  24
HETATM   24  C   UNL     1      -8.063   9.522  64.872  1.00  0.00    -0.131 C  
HETATM   25  H   UNL     1      -7.239   9.578  63.095  1.00  0.00     0.000 HD 
HETATM   26  O   UNL     1      -7.493  10.207  63.761  1.00  0.00    -0.144 OA 
BRANCH  24  27
HETATM   27  C   UNL     1      -7.049   8.512  65.448  1.00  0.00    -0.082 C  
BRANCH  27  28
HETATM   28  O   UNL     1      -7.652   7.693  66.464  1.00  0.00    -0.092 OA 
BRANCH  28  29
HETATM   29  C   UNL     1      -7.027   6.487  66.658  1.00  0.00    -0.067 A  
HETATM   30  C   UNL     1      -6.026   5.977  65.827  1.00  0.00    -0.029 A  
HETATM   31  C   UNL     1      -5.436   4.743  66.109  1.00  0.00    -0.017 A  
HETATM   32  C   UNL     1      -5.838   4.017  67.228  1.00  0.00    -0.023 A  
HETATM   33  C   UNL     1      -6.829   4.517  68.082  1.00  0.00    -0.055 A  
HETATM   34  C   UNL     1      -7.266   3.730  69.293  1.00  0.00    -0.049 C  
HETATM   35  C   UNL     1      -7.411   5.764  67.793  1.00  0.00    -0.077 A  
HETATM   36  F   UNL     1      -6.640   2.523  69.409  1.00  0.00    -0.031 F  
HETATM   37  F   UNL     1      -8.599   3.453  69.284  1.00  0.00    -0.076 F  
HETATM   38  F   UNL     1      -7.025   4.385  70.461  1.00  0.00    -0.034 F  
ENDBRANCH  28  29
ENDBRANCH  27  28
ENDBRANCH  24  27
ENDBRANCH  23  24
ENDBRANCH  20  22
ENDBRANCH  12  13
ENDBRANCH  11  12
ENDBRANCH   9  10
ENDBRANCH   8   9
ENDBRANCH   7   8
ENDBRANCH   5   7
ENDBRANCH   4   5
ENDBRANCH   2   4
TORSDOF 13
ENDMDL
MODEL      442
REMARK 921   NORMALIZED FREE ENERGY PREDICTED BY IDOCK:   14.56 KCAL/MOL
REMARK 922        TOTAL FREE ENERGY PREDICTED BY IDOCK:   23.40 KCAL/MOL
REMARK 923 INTER-LIGAND FREE ENERGY PREDICTED BY IDOCK:   21.25 KCAL/MOL
REMARK 924 INTRA-LIGAND FREE ENERGY PREDICTED BY IDOCK:    2.15 KCAL/MOL
REMARK 927      BINDING AFFINITY PREDICTED BY RF-SCORE:    0.00 PKD
ROOT
HETATM    1  C   UNL     1     -11.715  18.406  68.460  1.00  0.00     2.701 C  
HETATM    2  C   UNL     1     -12.052  17.200  67.590  1.00  0.00     2.043 C  
HETATM    3  C   UNL     1     -10.800  16.658  66.908  1.00  0.00    -0.060 C  
ENDROOT
BRANCH   2   4
HETATM    4  O   UNL     1     -12.585  16.151  68.417  1.00  0.00     0.802 OA 
BRANCH   4   5
HETATM    5  C   UNL     1     -12.607  14.917  67.837  1.00  0.00     0.809 C  
HETATM    6  O   UNL     1     -12.878  14.698  66.664  1.00  0.00     0.262 OA 
BRANCH   5   7
HETATM    7  C   UNL     1     -12.307  13.853  68.859  1.00  0.00    -0.089 C  
BRANCH   7   8
HETATM    8  C   UNL     1     -11.408  14.425  69.956  1.00  0.00    -0.253 C  
BRANCH   8   9
HETATM    9  C   UNL     1      -9.963  13.943  69.872  1.00  0.00     1.158 C  
BRANCH   9  10
HETATM   10  C   UNL     1      -9.201  14.161  71.151  1.00  0.00     5.337 C  
HETATM   11  C   UNL     1      -8.886  15.350  71.687  1.00  0.00     4.881 C  
BRANCH  11  12
HETATM   12  C   UNL     1      -9.168  16.693  71.072  1.00  0.00     4.770 C  
BRANCH  12  13
HETATM   13  C   UNL     1      -8.830  16.753  69.576  1.00  0.00     0.369 C  
HETATM   14  C   UNL     1      -9.130  18.088  68.884  1.00  0.00    -0.127 C  
HETATM   15  O   UNL     1      -8.828  19.197  69.725  1.00  0.00     0.394 OA 
HETATM   16  C   UNL     1      -8.178  18.108  67.694  1.00  0.00    -0.243 C  
HETATM   17  C   UNL     1      -6.887  17.516  68.253  1.00  0.00    -0.200 C  
HETATM   18  H   UNL     1      -9.014  20.024  69.296  1.00  0.00     0.000 HD 
HETATM   19  O   UNL     1      -6.108  18.550  68.863  1.00  0.00    -0.209 OA 
HETATM   20  C   UNL     1      -7.319  16.487  69.326  1.00  0.00    -0.201 C  
HETATM   21  H   UNL     1      -5.304  18.182  69.212  1.00  0.00     0.000 HD 
BRANCH  20  22
HETATM   22  C   UNL     1      -7.110  15.019  69.000  1.00  0.00    -0.133 C  
HETATM   23  C   UNL     1      -5.933  14.367  68.963  1.00  0.00    -0.089 C  
BRANCH  23  24
HETATM   24  C   UNL     1      -5.703  12.920  68.585  1.00  0.00    -0.068 C  
HETATM   25  H   UNL     1      -5.979  11.165  69.414  1.00  0.00     0.000 HD 
HETATM   26  O   UNL     1      -6.124  12.074  69.651  1.00  0.00    -0.103 OA 
BRANCH  24  27
HETATM   27  C   UNL     1      -6.477  12.573  67.297  1.00  0.00    -0.121 C  
BRANCH  27  28
HETATM   28  O   UNL     1      -7.793  12.081  67.598  1.00  0.00    -0.129 OA 
BRANCH  28  29
HETATM   29  C   UNL     1      -7.907  10.714  67.554  1.00  0.00    -0.106 A  
HETATM   30  C   UNL     1      -6.851   9.846  67.267  1.00  0.00    -0.083 A  
HETATM   31  C   UNL     1      -7.056   8.464  67.257  1.00  0.00    -0.079 A  
HETATM   32  C   UNL     1      -8.317   7.944  67.542  1.00  0.00    -0.124 A  
HETATM   33  C   UNL     1      -9.385   8.796  67.847  1.00  0.00    -0.155 A  
HETATM   34  C   UNL     1     -10.751   8.234  68.154  1.00  0.00    -0.033 C  
HETATM   35  C   UNL     1      -9.165  10.186  67.862  1.00  0.00    -0.144 A  
HETATM   36  F   UNL     1     -10.812   6.875  68.054  1.00  0.00    -0.234 F  
HETATM   37  F   UNL     1     -11.713   8.708  67.314  1.00  0.00     0.856 F  
HETATM   38  F   UNL     1     -11.171   8.531  69.414  1.00  0.00    -0.147 F  
ENDBRANCH  28  29
ENDBRANCH  27  28
ENDBRANCH  24  27
ENDBRANCH  23  24
ENDBRANCH  20  22
ENDBRANCH  12  13
ENDBRANCH  11  12
ENDBRANCH   9  10
ENDBRANCH   8   9
ENDBRANCH   7   8
ENDBRANCH   5   7
ENDBRANCH   4   5
ENDBRANCH   2   4
TORSDOF 13
ENDMDL
MODEL      443
REMARK 921   NORMALIZED FREE ENERGY PREDICTED BY IDOCK:   14.99 KCAL/MOL
REMARK 922        TOTAL FREE ENERGY PREDICTED BY IDOCK:   24.16 KCAL/MOL
REMARK 923 INTER-LIGAND FREE ENERGY PREDICTED BY IDOCK:   10.03 KCAL/MOL
REMARK 924 INTRA-LIGAND FREE ENERGY PREDICTED BY IDOCK:   14.13 KCAL/MOL
REMARK 927      BINDING AFFINITY PREDICTED BY RF-SCORE:    0.00 PKD
ROOT
HETATM    1  C   UNL     1     -11.363   4.729  64.341  1.00  0.00     1.137 C  
HETATM    2  C   UNL     1     -10.444   5.771  64.970  1.00  0.00     1.941 C  
HETATM    3  C   UNL     1     -11.247   6.775  65.791  1.00  0.00     3.313 C  
ENDROOT
BRANCH   2   4
HETATM    4  O   UNL     1      -9.525   5.116  65.864  1.00  0.00    -0.156 OA 
BRANCH   4   5
HETATM    5  C   UNL     1      -8.272   4.929  65.362  1.00  0.00    -0.121 C  
HETATM    6  O   UNL     1      -7.879   5.343  64.280  1.00  0.00    -0.090 OA 
BRANCH   5   7
HETATM    7  C   UNL     1      -7.453   4.087  66.305  1.00  0.00    -0.088 C  
BRANCH   7   8
HETATM    8  C   UNL     1      -6.263   4.895  66.823  1.00  0.00    -0.032 C  
BRANCH   8   9
HETATM    9  C   UNL     1      -5.829   4.505  68.233  1.00  0.00    -0.025 C  
BRANCH   9  10
HETATM   10  C   UNL     1      -6.855   3.670  68.949  1.00  0.00    -0.046 C  
HETATM   11  C   UNL     1      -8.141   4.000  69.145  1.00  0.00    -0.068 C  
BRANCH  11  12
HETATM   12  C   UNL     1      -8.783   5.302  68.754  1.00  0.00    -0.093 C  
BRANCH  12  13
HETATM   13  C   UNL     1      -7.876   6.516  68.994  1.00  0.00    -0.110 C  
HETATM   14  C   UNL     1      -6.605   6.570  68.138  1.00  0.00    -0.059 C  
HETATM   15  O   UNL     1      -6.844   6.113  66.811  1.00  0.00    -0.059 OA 
HETATM   16  C   UNL     1      -6.259   8.053  68.086  1.00  0.00    -0.046 C  
HETATM   17  C   UNL     1      -7.616   8.737  67.941  1.00  0.00    -0.097 C  
HETATM   18  H   UNL     1      -6.055   6.146  66.281  1.00  0.00     0.000 HD 
HETATM   19  O   UNL     1      -7.980   8.797  66.558  1.00  0.00    -0.101 OA 
HETATM   20  C   UNL     1      -8.626   7.848  68.706  1.00  0.00    -0.128 C  
HETATM   21  H   UNL     1      -8.825   9.222  66.467  1.00  0.00     0.000 HD 
BRANCH  20  22
HETATM   22  C   UNL     1      -9.190   8.401  70.003  1.00  0.00    -0.158 C  
HETATM   23  C   UNL     1     -10.295   7.974  70.641  1.00  0.00    -0.211 C  
BRANCH  23  24
HETATM   24  C   UNL     1     -10.901   8.551  71.902  1.00  0.00    -0.322 C  
HETATM   25  H   UNL     1     -10.244   9.328  73.578  1.00  0.00     0.000 HD 
HETATM   26  O   UNL     1      -9.864   8.966  72.786  1.00  0.00    -0.033 OA 
BRANCH  24  27
HETATM   27  C   UNL     1     -11.815   9.745  71.560  1.00  0.00    -0.399 C  
BRANCH  27  28
HETATM   28  O   UNL     1     -11.047  10.935  71.317  1.00  0.00     0.728 OA 
BRANCH  28  29
HETATM   29  C   UNL     1     -11.799  12.030  70.975  1.00  0.00     0.492 A  
HETATM   30  C   UNL     1     -12.940  11.980  70.169  1.00  0.00     0.515 A  
HETATM   31  C   UNL     1     -13.653  13.147  69.882  1.00  0.00     2.547 A  
HETATM   32  C   UNL     1     -13.233  14.367  70.407  1.00  0.00     0.022 A  
HETATM   33  C   UNL     1     -12.102  14.437  71.229  1.00  0.00    -0.405 A  
HETATM   34  C   UNL     1     -11.647  15.758  71.796  1.00  0.00    -0.456 C  
HETATM   35  C   UNL     1     -11.396  13.255  71.518  1.00  0.00     2.716 A  
HETATM   36  F   UNL     1     -12.408  16.814  71.388  1.00  0.00     0.052 F  
HETATM   37  F   UNL     1     -10.369  16.068  71.441  1.00  0.00     0.381 F  
HETATM   38  F   UNL     1     -11.677  15.786  73.157  1.00  0.00    -0.514 F  
ENDBRANCH  28  29
ENDBRANCH  27  28
ENDBRANCH  24  27
ENDBRANCH  23  24
ENDBRANCH  20  22
ENDBRANCH  12  13
ENDBRANCH  11  12
ENDBRANCH   9  10
ENDBRANCH   8   9
ENDBRANCH   7   8
ENDBRANCH   5   7
ENDBRANCH   4   5
ENDBRANCH   2   4
TORSDOF 13
ENDMDL
MODEL      444
REMARK 921   NORMALIZED FREE ENERGY PREDICTED BY IDOCK:   15.63 KCAL/MOL
REMARK 922        TOTAL FREE ENERGY PREDICTED BY IDOCK:   25.28 KCAL/MOL
REMARK 923 INTER-LIGAND FREE ENERGY PREDICTED BY IDOCK:   25.21 KCAL/MOL
REMARK 924 INTRA-LIGAND FREE ENERGY PREDICTED BY IDOCK:    0.07 KCAL/MOL
REMARK 927      BINDING AFFINITY PREDICTED BY RF-SCORE:    0.00 PKD
ROOT
HETATM    1  C   UNL     1     -10.511   1.610  66.710  1.00  0.00     2.950 C  
HETATM    2  C   UNL     1     -10.295   3.113  66.848  1.00  0.00     1.905 C  
HETATM    3  C   UNL     1      -8.807   3.444  66.875  1.00  0.00    -0.149 C  
ENDROOT
BRANCH   2   4
HETATM    4  O   UNL     1     -10.869   3.782  65.710  1.00  0.00     0.646 OA 
BRANCH   4   5
HETATM    5  C   UNL     1     -11.899   4.626  66.000  1.00  0.00     3.448 C  
HETATM    6  O   UNL     1     -12.762   4.417  66.843  1.00  0.00    10.885 OA 
BRANCH   5   7
HETATM    7  C   UNL     1     -11.862   5.826  65.092  1.00  0.00     4.160 C  
BRANCH   7   8
HETATM    8  C   UNL     1     -11.059   5.500  63.833  1.00  0.00     4.156 C  
BRANCH   8   9
HETATM    9  C   UNL     1      -9.900   4.539  64.080  1.00  0.00     0.095 C  
BRANCH   9  10
HETATM   10  C   UNL     1      -9.048   4.328  62.859  1.00  0.00    -0.126 C  
HETATM   11  C   UNL     1      -8.167   5.205  62.351  1.00  0.00    -0.097 C  
BRANCH  11  12
HETATM   12  C   UNL     1      -7.921   6.598  62.862  1.00  0.00    -0.083 C  
BRANCH  12  13
HETATM   13  C   UNL     1      -7.415   6.627  64.310  1.00  0.00    -0.096 C  
HETATM   14  C   UNL     1      -6.000   6.079  64.526  1.00  0.00    -0.025 C  
HETATM   15  O   UNL     1      -5.126   6.440  63.461  1.00  0.00    -0.017 OA 
HETATM   16  C   UNL     1      -5.526   6.772  65.798  1.00  0.00    -0.026 C  
HETATM   17  C   UNL     1      -6.057   8.195  65.654  1.00  0.00    -0.041 C  
HETATM   18  H   UNL     1      -4.249   6.100  63.595  1.00  0.00     0.000 HD 
HETATM   19  O   UNL     1      -5.126   8.984  64.906  1.00  0.00    -0.037 OA 
HETATM   20  C   UNL     1      -7.387   8.077  64.871  1.00  0.00    -0.084 C  
HETATM   21  H   UNL     1      -5.457   9.870  64.817  1.00  0.00     0.000 HD 
BRANCH  20  22
HETATM   22  C   UNL     1      -8.669   8.347  65.639  1.00  0.00    -0.204 C  
HETATM   23  C   UNL     1      -9.168   9.555  65.963  1.00  0.00    -0.248 C  
BRANCH  23  24
HETATM   24  C   UNL     1     -10.413   9.840  66.775  1.00  0.00    -0.189 C  
HETATM   25  H   UNL     1     -11.939   8.817  67.458  1.00  0.00     0.000 HD 
HETATM   26  O   UNL     1     -11.157   8.638  66.949  1.00  0.00     0.114 OA 
BRANCH  24  27
HETATM   27  C   UNL     1     -10.033  10.430  68.148  1.00  0.00    -0.149 C  
BRANCH  27  28
HETATM   28  O   UNL     1     -10.683   9.722  69.216  1.00  0.00    -0.212 OA 
BRANCH  28  29
HETATM   29  C   UNL     1      -9.896   8.777  69.826  1.00  0.00    -0.186 A  
HETATM   30  C   UNL     1      -8.592   9.009  70.272  1.00  0.00    -0.193 A  
HETATM   31  C   UNL     1      -7.869   7.989  70.895  1.00  0.00    -0.089 A  
HETATM   32  C   UNL     1      -8.448   6.736  71.082  1.00  0.00    -0.125 A  
HETATM   33  C   UNL     1      -9.758   6.488  70.655  1.00  0.00    -0.194 A  
HETATM   34  C   UNL     1     -10.386   5.130  70.856  1.00  0.00    -0.212 C  
HETATM   35  C   UNL     1     -10.481   7.524  70.037  1.00  0.00    -0.231 A  
HETATM   36  F   UNL     1      -9.542   4.223  71.428  1.00  0.00    -0.183 F  
HETATM   37  F   UNL     1     -10.795   4.565  69.686  1.00  0.00     0.140 F  
HETATM   38  F   UNL     1     -11.483   5.171  71.659  1.00  0.00    -0.092 F  
ENDBRANCH  28  29
ENDBRANCH  27  28
ENDBRANCH  24  27
ENDBRANCH  23  24
ENDBRANCH  20  22
ENDBRANCH  12  13
ENDBRANCH  11  12
ENDBRANCH   9  10
ENDBRANCH   8   9
ENDBRANCH   7   8
ENDBRANCH   5   7
ENDBRANCH   4   5
ENDBRANCH   2   4
TORSDOF 13
ENDMDL
MODEL      445
REMARK 921   NORMALIZED FREE ENERGY PREDICTED BY IDOCK:   16.12 KCAL/MOL
REMARK 922        TOTAL FREE ENERGY PREDICTED BY IDOCK:   26.16 KCAL/MOL
REMARK 923 INTER-LIGAND FREE ENERGY PREDICTED BY IDOCK:   13.38 KCAL/MOL
REMARK 924 INTRA-LIGAND FREE ENERGY PREDICTED BY IDOCK:   12.78 KCAL/MOL
REMARK 927      BINDING AFFINITY PREDICTED BY RF-SCORE:    0.00 PKD
ROOT
HETATM    1  C   UNL     1     -12.789  16.798  71.734  1.00  0.00     2.567 C  
HETATM    2  C   UNL     1     -11.603  17.755  71.726  1.00  0.00     3.206 C  
HETATM    3  C   UNL     1     -11.569  18.584  73.006  1.00  0.00     3.630 C  
ENDROOT
BRANCH   2   4
HETATM    4  O   UNL     1     -10.381  16.997  71.668  1.00  0.00     2.638 OA 
BRANCH   4   5
HETATM    5  C   UNL     1     -10.507  15.745  71.145  1.00  0.00     0.616 C  
HETATM    6  O   UNL     1     -10.146  15.413  70.024  1.00  0.00    -0.287 OA 
BRANCH   5   7
HETATM    7  C   UNL     1     -11.208  14.839  72.121  1.00  0.00     0.370 C  
BRANCH   7   8
HETATM    8  C   UNL     1     -11.312  13.429  71.539  1.00  0.00     2.499 C  
BRANCH   8   9
HETATM    9  C   UNL     1     -12.296  13.319  70.378  1.00  0.00    -0.365 C  
BRANCH   9  10
HETATM   10  C   UNL     1     -13.179  12.105  70.476  1.00  0.00     0.654 C  
HETATM   11  C   UNL     1     -12.989  10.939  69.838  1.00  0.00     0.161 C  
BRANCH  11  12
HETATM   12  C   UNL     1     -11.899  10.650  68.843  1.00  0.00    -0.216 C  
BRANCH  12  13
HETATM   13  C   UNL     1     -11.809  11.699  67.727  1.00  0.00    -0.247 C  
HETATM   14  C   UNL     1     -12.250  13.116  68.115  1.00  0.00    -0.028 C  
HETATM   15  O   UNL     1     -11.844  13.450  69.438  1.00  0.00    -0.300 OA 
HETATM   16  C   UNL     1     -11.504  14.015  67.136  1.00  0.00    -0.373 C  
HETATM   17  C   UNL     1     -10.125  13.369  67.030  1.00  0.00    -0.247 C  
HETATM   18  H   UNL     1     -12.117  14.328  69.678  1.00  0.00     0.000 HD 
HETATM   19  O   UNL     1      -9.283  13.854  68.081  1.00  0.00    -0.190 OA 
HETATM   20  C   UNL     1     -10.352  11.848  67.205  1.00  0.00    -0.228 C  
HETATM   21  H   UNL     1      -8.425  13.452  68.015  1.00  0.00     0.000 HD 
BRANCH  20  22
HETATM   22  C   UNL     1     -10.162  10.974  65.978  1.00  0.00    -0.305 C  
HETATM   23  C   UNL     1      -9.094  10.967  65.159  1.00  0.00    -0.216 C  
BRANCH  23  24
HETATM   24  C   UNL     1      -8.915  10.144  63.901  1.00  0.00    -0.244 C  
HETATM   25  H   UNL     1      -8.160  10.415  62.112  1.00  0.00     0.000 HD 
HETATM   26  O   UNL     1      -8.272  10.931  62.902  1.00  0.00    -0.120 OA 
BRANCH  24  27
HETATM   27  C   UNL     1      -8.079   8.883  64.200  1.00  0.00    -0.160 C  
BRANCH  27  28
HETATM   28  O   UNL     1      -8.780   7.993  65.085  1.00  0.00    -0.104 OA 
BRANCH  28  29
HETATM   29  C   UNL     1      -8.371   6.686  65.008  1.00  0.00    -0.064 A  
HETATM   30  C   UNL     1      -7.040   6.272  65.102  1.00  0.00    -0.061 A  
HETATM   31  C   UNL     1      -6.716   4.915  65.026  1.00  0.00    -0.048 A  
HETATM   32  C   UNL     1      -7.723   3.965  64.863  1.00  0.00    -0.081 A  
HETATM   33  C   UNL     1      -9.064   4.358  64.782  1.00  0.00    -0.152 A  
HETATM   34  C   UNL     1     -10.155   3.331  64.605  1.00  0.00    -0.036 C  
HETATM   35  C   UNL     1      -9.380   5.726  64.868  1.00  0.00     0.487 A  
HETATM   36  F   UNL     1      -9.684   2.055  64.494  1.00  0.00    -0.138 F  
HETATM   37  F   UNL     1     -10.900   3.546  63.486  1.00  0.00    -0.222 F  
HETATM   38  F   UNL     1     -11.033   3.310  65.644  1.00  0.00     0.985 F  
ENDBRANCH  28  29
ENDBRANCH  27  28
ENDBRANCH  24  27
ENDBRANCH  23  24
ENDBRANCH  20  22
ENDBRANCH  12  13
ENDBRANCH  11  12
ENDBRANCH   9  10
ENDBRANCH   8   9
ENDBRANCH   7   8
ENDBRANCH   5   7
ENDBRANCH   4   5
ENDBRANCH   2   4
TORSDOF 13
ENDMDL
MODEL      446
REMARK 921   NORMALIZED FREE ENERGY PREDICTED BY IDOCK:   17.48 KCAL/MOL
REMARK 922        TOTAL FREE ENERGY PREDICTED BY IDOCK:   28.55 KCAL/MOL
REMARK 923 INTER-LIGAND FREE ENERGY PREDICTED BY IDOCK:   28.45 KCAL/MOL
REMARK 924 INTRA-LIGAND FREE ENERGY PREDICTED BY IDOCK:    0.10 KCAL/MOL
REMARK 927      BINDING AFFINITY PREDICTED BY RF-SCORE:    0.00 PKD
ROOT
HETATM    1  C   UNL     1      -6.089  18.432  64.392  1.00  0.00     0.559 C  
HETATM    2  C   UNL     1      -5.843  17.175  65.219  1.00  0.00     1.694 C  
HETATM    3  C   UNL     1      -5.516  17.534  66.664  1.00  0.00    -0.214 C  
ENDROOT
BRANCH   2   4
HETATM    4  O   UNL     1      -7.039  16.374  65.231  1.00  0.00     2.250 OA 
BRANCH   4   5
HETATM    5  C   UNL     1      -8.066  16.864  64.480  1.00  0.00     7.721 C  
HETATM    6  O   UNL     1      -8.250  16.615  63.296  1.00  0.00    16.145 OA 
BRANCH   5   7
HETATM    7  C   UNL     1      -8.910  17.803  65.299  1.00  0.00     1.970 C  
BRANCH   7   8
HETATM    8  C   UNL     1      -9.045  17.271  66.726  1.00  0.00    -0.269 C  
BRANCH   8   9
HETATM    9  C   UNL     1     -10.376  17.620  67.384  1.00  0.00    -0.360 C  
BRANCH   9  10
HETATM   10  C   UNL     1     -10.415  17.265  68.845  1.00  0.00    -0.327 C  
HETATM   11  C   UNL     1      -9.374  17.303  69.693  1.00  0.00     0.646 C  
BRANCH  11  12
HETATM   12  C   UNL     1      -7.954  17.633  69.326  1.00  0.00     0.171 C  
BRANCH  12  13
HETATM   13  C   UNL     1      -7.087  16.388  69.096  1.00  0.00    -0.224 C  
HETATM   14  C   UNL     1      -5.683  16.439  69.710  1.00  0.00    -0.179 C  
HETATM   15  O   UNL     1      -5.687  17.076  70.984  1.00  0.00     0.081 OA 
HETATM   16  C   UNL     1      -5.311  14.973  69.902  1.00  0.00    -0.103 C  
HETATM   17  C   UNL     1      -6.610  14.330  70.378  1.00  0.00    -0.001 C  
HETATM   18  H   UNL     1      -4.817  17.107  71.364  1.00  0.00     0.000 HD 
HETATM   19  O   UNL     1      -6.721  14.463  71.799  1.00  0.00     0.116 OA 
HETATM   20  C   UNL     1      -7.753  15.116  69.691  1.00  0.00    -0.148 C  
HETATM   21  H   UNL     1      -7.530  14.063  72.096  1.00  0.00     0.000 HD 
BRANCH  20  22
HETATM   22  C   UNL     1      -8.531  14.396  68.604  1.00  0.00    -0.156 C  
HETATM   23  C   UNL     1      -8.016  13.622  67.631  1.00  0.00    -0.180 C  
BRANCH  23  24
HETATM   24  C   UNL     1      -8.771  12.944  66.508  1.00  0.00     0.052 C  
HETATM   25  H   UNL     1      -8.321  11.918  64.900  1.00  0.00     0.000 HD 
HETATM   26  O   UNL     1      -7.847  12.343  65.605  1.00  0.00     1.420 OA 
BRANCH  24  27
HETATM   27  C   UNL     1      -9.730  11.878  67.074  1.00  0.00    -0.194 C  
BRANCH  27  28
HETATM   28  O   UNL     1      -9.004  10.781  67.653  1.00  0.00    -0.138 OA 
BRANCH  28  29
HETATM   29  C   UNL     1      -9.698  10.092  68.615  1.00  0.00    -0.159 A  
HETATM   30  C   UNL     1      -9.313   8.848  69.123  1.00  0.00    -0.148 A  
HETATM   31  C   UNL     1     -10.076   8.224  70.112  1.00  0.00    -0.191 A  
HETATM   32  C   UNL     1     -11.223   8.843  70.604  1.00  0.00    -0.308 A  
HETATM   33  C   UNL     1     -11.618  10.096  70.120  1.00  0.00    -0.350 A  
HETATM   34  C   UNL     1     -12.860  10.767  70.651  1.00  0.00    -0.293 C  
HETATM   35  C   UNL     1     -10.838  10.720  69.129  1.00  0.00    -0.281 A  
HETATM   36  F   UNL     1     -13.529  10.016  71.572  1.00  0.00    -0.409 F  
HETATM   37  F   UNL     1     -13.766  11.041  69.672  1.00  0.00     0.700 F  
HETATM   38  F   UNL     1     -12.597  11.953  71.263  1.00  0.00    -0.443 F  
ENDBRANCH  28  29
ENDBRANCH  27  28
ENDBRANCH  24  27
ENDBRANCH  23  24
ENDBRANCH  20  22
ENDBRANCH  12  13
ENDBRANCH  11  12
ENDBRANCH   9  10
ENDBRANCH   8   9
ENDBRANCH   7   8
ENDBRANCH   5   7
ENDBRANCH   4   5
ENDBRANCH   2   4
TORSDOF 13
ENDMDL
MODEL      447
REMARK 921   NORMALIZED FREE ENERGY PREDICTED BY IDOCK:   19.33 KCAL/MOL
REMARK 922        TOTAL FREE ENERGY PREDICTED BY IDOCK:   31.80 KCAL/MOL
REMARK 923 INTER-LIGAND FREE ENERGY PREDICTED BY IDOCK:   29.12 KCAL/MOL
REMARK 924 INTRA-LIGAND FREE ENERGY PREDICTED BY IDOCK:    2.69 KCAL/MOL
REMARK 927      BINDING AFFINITY PREDICTED BY RF-SCORE:    0.00 PKD
ROOT
HETATM    1  C   UNL     1      -9.699  11.922  66.769  1.00  0.00    -0.218 C  
HETATM    2  C   UNL     1      -8.393  11.890  65.982  1.00  0.00     0.270 C  
HETATM    3  C   UNL     1      -8.329  10.651  65.094  1.00  0.00    -0.117 C  
ENDROOT
BRANCH   2   4
HETATM    4  O   UNL     1      -8.328  13.043  65.123  1.00  0.00     2.457 OA 
BRANCH   4   5
HETATM    5  C   UNL     1      -8.952  14.154  65.606  1.00  0.00     0.898 C  
HETATM    6  O   UNL     1      -9.710  14.869  64.964  1.00  0.00    -0.163 OA 
BRANCH   5   7
HETATM    7  C   UNL     1      -8.531  14.413  67.028  1.00  0.00    -0.206 C  
BRANCH   7   8
HETATM    8  C   UNL     1      -7.605  15.629  67.082  1.00  0.00    -0.258 C  
BRANCH   8   9
HETATM    9  C   UNL     1      -6.127  15.266  67.182  1.00  0.00     0.405 C  
BRANCH   9  10
HETATM   10  C   UNL     1      -5.773  14.039  66.387  1.00  0.00     4.113 C  
HETATM   11  C   UNL     1      -5.411  12.849  66.894  1.00  0.00     0.684 C  
BRANCH  11  12
HETATM   12  C   UNL     1      -5.216  12.538  68.352  1.00  0.00    -0.057 C  
BRANCH  12  13
HETATM   13  C   UNL     1      -6.482  11.992  69.026  1.00  0.00    -0.091 C  
HETATM   14  C   UNL     1      -7.214  10.885  68.257  1.00  0.00    -0.084 C  
HETATM   15  O   UNL     1      -6.303   9.992  67.625  1.00  0.00    -0.058 OA 
HETATM   16  C   UNL     1      -7.970  10.123  69.338  1.00  0.00    -0.155 C  
HETATM   17  C   UNL     1      -6.986  10.076  70.503  1.00  0.00    -0.089 C  
HETATM   18  H   UNL     1      -6.757   9.306  67.149  1.00  0.00     0.000 HD 
HETATM   19  O   UNL     1      -6.115   8.950  70.353  1.00  0.00    -0.033 OA 
HETATM   20  C   UNL     1      -6.163  11.385  70.421  1.00  0.00    -0.048 C  
HETATM   21  H   UNL     1      -5.502   8.920  71.078  1.00  0.00     0.000 HD 
BRANCH  20  22
HETATM   22  C   UNL     1      -6.414  12.428  71.496  1.00  0.00     2.890 C  
HETATM   23  C   UNL     1      -7.348  13.396  71.468  1.00  0.00     5.454 C  
BRANCH  23  24
HETATM   24  C   UNL     1      -7.574  14.477  72.503  1.00  0.00     5.377 C  
HETATM   25  H   UNL     1      -6.528  15.342  73.918  1.00  0.00     0.000 HD 
HETATM   26  O   UNL     1      -6.386  14.664  73.267  1.00  0.00     0.471 OA 
BRANCH  24  27
HETATM   27  C   UNL     1      -7.977  15.799  71.819  1.00  0.00     6.486 C  
BRANCH  27  28
HETATM   28  O   UNL     1      -8.599  15.556  70.546  1.00  0.00     0.860 OA 
BRANCH  28  29
HETATM   29  C   UNL     1      -9.867  15.038  70.629  1.00  0.00     0.855 A  
HETATM   30  C   UNL     1     -10.824  15.446  71.561  1.00  0.00     0.008 A  
HETATM   31  C   UNL     1     -12.097  14.870  71.563  1.00  0.00    -0.406 A  
HETATM   32  C   UNL     1     -12.421  13.890  70.628  1.00  0.00    -0.436 A  
HETATM   33  C   UNL     1     -11.481  13.478  69.676  1.00  0.00    -0.283 A  
HETATM   34  C   UNL     1     -11.831  12.415  68.663  1.00  0.00    -0.302 C  
HETATM   35  C   UNL     1     -10.205  14.070  69.677  1.00  0.00     0.425 A  
HETATM   36  F   UNL     1     -13.088  11.910  68.821  1.00  0.00     0.990 F  
HETATM   37  F   UNL     1     -10.994  11.343  68.720  1.00  0.00    -0.189 F  
HETATM   38  F   UNL     1     -11.775  12.870  67.382  1.00  0.00    -0.333 F  
ENDBRANCH  28  29
ENDBRANCH  27  28
ENDBRANCH  24  27
ENDBRANCH  23  24
ENDBRANCH  20  22
ENDBRANCH  12  13
ENDBRANCH  11  12
ENDBRANCH   9  10
ENDBRANCH   8   9
ENDBRANCH   7   8
ENDBRANCH   5   7
ENDBRANCH   4   5
ENDBRANCH   2   4
TORSDOF 13
ENDMDL
MODEL      448
REMARK 921   NORMALIZED FREE ENERGY PREDICTED BY IDOCK:   21.67 KCAL/MOL
REMARK 922        TOTAL FREE ENERGY PREDICTED BY IDOCK:   35.92 KCAL/MOL
REMARK 923 INTER-LIGAND FREE ENERGY PREDICTED BY IDOCK:   26.54 KCAL/MOL
REMARK 924 INTRA-LIGAND FREE ENERGY PREDICTED BY IDOCK:    9.38 KCAL/MOL
REMARK 927      BINDING AFFINITY PREDICTED BY RF-SCORE:    0.00 PKD
ROOT
HETATM    1  C   UNL     1      -9.177  18.383  65.025  1.00  0.00     3.067 C  
HETATM    2  C   UNL     1     -10.641  18.730  65.270  1.00  0.00     0.535 C  
HETATM    3  C   UNL     1     -11.474  18.474  64.018  1.00  0.00     7.319 C  
ENDROOT
BRANCH   2   4
HETATM    4  O   UNL     1     -11.160  17.888  66.316  1.00  0.00     0.154 OA 
BRANCH   4   5
HETATM    5  C   UNL     1     -10.975  18.364  67.580  1.00  0.00    -0.121 C  
HETATM    6  O   UNL     1     -11.844  18.883  68.268  1.00  0.00     1.743 OA 
BRANCH   5   7
HETATM    7  C   UNL     1      -9.534  18.213  67.990  1.00  0.00    -0.290 C  
BRANCH   7   8
HETATM    8  C   UNL     1      -8.713  17.686  66.813  1.00  0.00    -0.277 C  
BRANCH   8   9
HETATM    9  C   UNL     1      -9.009  16.230  66.467  1.00  0.00    -0.313 C  
BRANCH   9  10
HETATM   10  C   UNL     1     -10.435  16.010  66.041  1.00  0.00    -0.356 C  
HETATM   11  C   UNL     1     -11.196  14.949  66.354  1.00  0.00    -0.331 C  
BRANCH  11  12
HETATM   12  C   UNL     1     -10.743  13.741  67.126  1.00  0.00    -0.283 C  
BRANCH  12  13
HETATM   13  C   UNL     1     -11.278  12.423  66.549  1.00  0.00    -0.368 C  
HETATM   14  C   UNL     1     -10.617  11.957  65.246  1.00  0.00    -0.275 C  
HETATM   15  O   UNL     1      -9.217  12.218  65.242  1.00  0.00    -0.426 OA 
HETATM   16  C   UNL     1     -10.829  10.448  65.245  1.00  0.00     0.264 C  
HETATM   17  C   UNL     1     -10.606  10.050  66.701  1.00  0.00    -0.125 C  
HETATM   18  H   UNL     1      -8.808  11.929  64.434  1.00  0.00     0.000 HD 
HETATM   19  O   UNL     1      -9.211   9.830  66.932  1.00  0.00    -0.143 OA 
HETATM   20  C   UNL     1     -11.091  11.249  67.551  1.00  0.00    -0.346 C  
HETATM   21  H   UNL     1      -9.071   9.582  67.838  1.00  0.00     0.000 HD 
BRANCH  20  22
HETATM   22  C   UNL     1     -12.367  11.059  68.351  1.00  0.00     0.513 C  
HETATM   23  C   UNL     1     -12.506  11.201  69.682  1.00  0.00    -0.195 C  
BRANCH  23  24
HETATM   24  C   UNL     1     -13.756  10.961  70.501  1.00  0.00     1.255 C  
HETATM   25  H   UNL     1     -14.986   9.470  70.826  1.00  0.00     0.000 HD 
HETATM   26  O   UNL     1     -14.201   9.621  70.312  1.00  0.00     0.612 OA 
BRANCH  24  27
HETATM   27  C   UNL     1     -13.476  11.221  71.995  1.00  0.00    -0.184 C  
BRANCH  27  28
HETATM   28  O   UNL     1     -12.132  10.851  72.344  1.00  0.00     1.144 OA 
BRANCH  28  29
HETATM   29  C   UNL     1     -12.002   9.561  72.793  1.00  0.00     1.223 A  
HETATM   30  C   UNL     1     -12.735   9.021  73.854  1.00  0.00     5.329 A  
HETATM   31  C   UNL     1     -12.545   7.690  74.235  1.00  0.00     7.998 A  
HETATM   32  C   UNL     1     -11.629   6.892  73.554  1.00  0.00     0.802 A  
HETATM   33  C   UNL     1     -10.897   7.410  72.479  1.00  0.00    -0.327 A  
HETATM   34  C   UNL     1      -9.903   6.547  71.741  1.00  0.00    -0.165 C  
HETATM   35  C   UNL     1     -11.101   8.749  72.098  1.00  0.00    -0.406 A  
HETATM   36  F   UNL     1      -9.789   5.290  72.259  1.00  0.00    -0.176 F  
HETATM   37  F   UNL     1      -8.645   7.067  71.756  1.00  0.00    -0.114 F  
HETATM   38  F   UNL     1     -10.225   6.377  70.430  1.00  0.00    -0.196 F  
ENDBRANCH  28  29
ENDBRANCH  27  28
ENDBRANCH  24  27
ENDBRANCH  23  24
ENDBRANCH  20  22
ENDBRANCH  12  13
ENDBRANCH  11  12
ENDBRANCH   9  10
ENDBRANCH   8   9
ENDBRANCH   7   8
ENDBRANCH   5   7
ENDBRANCH   4   5
ENDBRANCH   2   4
TORSDOF 13
ENDMDL
MODEL      449
REMARK 921   NORMALIZED FREE ENERGY PREDICTED BY IDOCK:   21.72 KCAL/MOL
REMARK 922        TOTAL FREE ENERGY PREDICTED BY IDOCK:   36.01 KCAL/MOL
REMARK 923 INTER-LIGAND FREE ENERGY PREDICTED BY IDOCK:   26.87 KCAL/MOL
REMARK 924 INTRA-LIGAND FREE ENERGY PREDICTED BY IDOCK:    9.14 KCAL/MOL
REMARK 927      BINDING AFFINITY PREDICTED BY RF-SCORE:    0.00 PKD
ROOT
HETATM    1  C   UNL     1     -11.722  18.427  68.496  1.00  0.00     2.701 C  
HETATM    2  C   UNL     1     -12.012  17.242  67.581  1.00  0.00     1.828 C  
HETATM    3  C   UNL     1     -10.752  16.815  66.835  1.00  0.00    -0.139 C  
ENDROOT
BRANCH   2   4
HETATM    4  O   UNL     1     -12.446  16.123  68.376  1.00  0.00     0.553 OA 
BRANCH   4   5
HETATM    5  C   UNL     1     -12.396  14.917  67.743  1.00  0.00     0.304 C  
HETATM    6  O   UNL     1     -12.724  14.719  66.581  1.00  0.00     0.212 OA 
BRANCH   5   7
HETATM    7  C   UNL     1     -11.936  13.846  68.697  1.00  0.00    -0.401 C  
BRANCH   7   8
HETATM    8  C   UNL     1     -11.114  14.473  69.823  1.00  0.00    -0.239 C  
BRANCH   8   9
HETATM    9  C   UNL     1      -9.607  14.375  69.606  1.00  0.00     0.465 C  
BRANCH   9  10
HETATM   10  C   UNL     1      -8.829  14.420  70.892  1.00  0.00     3.585 C  
HETATM   11  C   UNL     1      -8.860  15.410  71.798  1.00  0.00     5.344 C  
BRANCH  11  12
HETATM   12  C   UNL     1      -9.620  16.700  71.663  1.00  0.00     6.388 C  
BRANCH  12  13
HETATM   13  C   UNL     1      -9.459  17.352  70.283  1.00  0.00     2.290 C  
HETATM   14  C   UNL     1     -10.253  18.645  70.067  1.00  0.00     1.121 C  
HETATM   15  O   UNL     1     -10.269  19.456  71.237  1.00  0.00     0.724 OA 
HETATM   16  C   UNL     1      -9.476  19.378  68.979  1.00  0.00    -0.399 C  
HETATM   17  C   UNL     1      -8.016  19.127  69.346  1.00  0.00     0.071 C  
HETATM   18  H   UNL     1     -10.762  20.258  71.102  1.00  0.00     0.000 HD 
HETATM   19  O   UNL     1      -7.580  20.112  70.289  1.00  0.00     0.338 OA 
HETATM   20  C   UNL     1      -7.976  17.725  70.003  1.00  0.00     1.896 C  
HETATM   21  H   UNL     1      -6.671  19.955  70.518  1.00  0.00     0.000 HD 
BRANCH  20  22
HETATM   22  C   UNL     1      -7.314  16.610  69.212  1.00  0.00    -0.184 C  
HETATM   23  C   UNL     1      -5.993  16.445  69.015  1.00  0.00    -0.143 C  
BRANCH  23  24
HETATM   24  C   UNL     1      -5.322  15.373  68.184  1.00  0.00    -0.121 C  
HETATM   25  H   UNL     1      -4.993  13.446  68.332  1.00  0.00     0.000 HD 
HETATM   26  O   UNL     1      -5.415  14.119  68.854  1.00  0.00    -0.080 OA 
BRANCH  24  27
HETATM   27  C   UNL     1      -5.982  15.281  66.793  1.00  0.00     1.435 C  
BRANCH  27  28
HETATM   28  O   UNL     1      -7.040  14.309  66.784  1.00  0.00     0.315 OA 
BRANCH  28  29
HETATM   29  C   UNL     1      -6.681  13.081  67.279  1.00  0.00    -0.008 A  
HETATM   30  C   UNL     1      -5.410  12.772  67.770  1.00  0.00    -0.115 A  
HETATM   31  C   UNL     1      -5.137  11.496  68.268  1.00  0.00    -0.039 A  
HETATM   32  C   UNL     1      -6.136  10.525  68.285  1.00  0.00    -0.047 A  
HETATM   33  C   UNL     1      -7.421  10.818  67.812  1.00  0.00    -0.094 A  
HETATM   34  C   UNL     1      -8.503   9.767  67.829  1.00  0.00    -0.121 C  
HETATM   35  C   UNL     1      -7.687  12.109  67.320  1.00  0.00    -0.168 A  
HETATM   36  F   UNL     1      -8.075   8.558  68.293  1.00  0.00    -0.111 F  
HETATM   37  F   UNL     1      -9.017   9.526  66.592  1.00  0.00    -0.143 F  
HETATM   38  F   UNL     1      -9.559  10.112  68.615  1.00  0.00    -0.146 F  
ENDBRANCH  28  29
ENDBRANCH  27  28
ENDBRANCH  24  27
ENDBRANCH  23  24
ENDBRANCH  20  22
ENDBRANCH  12  13
ENDBRANCH  11  12
ENDBRANCH   9  10
ENDBRANCH   8   9
ENDBRANCH   7   8
ENDBRANCH   5   7
ENDBRANCH   4   5
ENDBRANCH   2   4
TORSDOF 13
ENDMDL
MODEL      450
REMARK 921   NORMALIZED FREE ENERGY PREDICTED BY IDOCK:   25.11 KCAL/MOL
REMARK 922        TOTAL FREE ENERGY PREDICTED BY IDOCK:   41.98 KCAL/MOL
REMARK 923 INTER-LIGAND FREE ENERGY PREDICTED BY IDOCK:   21.96 KCAL/MOL
REMARK 924 INTRA-LIGAND FREE ENERGY PREDICTED BY IDOCK:   20.02 KCAL/MOL
REMARK 927      BINDING AFFINITY PREDICTED BY RF-SCORE:    0.00 PKD
ROOT
HETATM    1  C   UNL     1     -12.856  16.933  71.702  1.00  0.00     3.592 C  
HETATM    2  C   UNL     1     -11.698  17.914  71.561  1.00  0.00     4.463 C  
HETATM    3  C   UNL     1     -11.700  18.922  72.707  1.00  0.00     6.500 C  
ENDROOT
BRANCH   2   4
HETATM    4  O   UNL     1     -10.454  17.193  71.621  1.00  0.00     2.263 OA 
BRANCH   4   5
HETATM    5  C   UNL     1     -10.554  15.856  71.370  1.00  0.00     0.766 C  
HETATM    6  O   UNL     1     -10.246  15.315  70.317  1.00  0.00    -0.232 OA 
BRANCH   5   7
HETATM    7  C   UNL     1     -11.153  15.146  72.555  1.00  0.00     0.238 C  
BRANCH   7   8
HETATM    8  C   UNL     1     -11.494  13.705  72.179  1.00  0.00     2.598 C  
BRANCH   8   9
HETATM    9  C   UNL     1     -12.682  13.587  71.228  1.00  0.00    -0.432 C  
BRANCH   9  10
HETATM   10  C   UNL     1     -13.680  12.551  71.668  1.00  0.00     0.214 C  
HETATM   11  C   UNL     1     -13.781  11.301  71.190  1.00  0.00     0.959 C  
BRANCH  11  12
HETATM   12  C   UNL     1     -12.964  10.721  70.068  1.00  0.00     0.042 C  
BRANCH  12  13
HETATM   13  C   UNL     1     -12.639  11.743  68.970  1.00  0.00     0.615 C  
HETATM   14  C   UNL     1     -12.668  13.213  69.407  1.00  0.00     0.635 C  
HETATM   15  O   UNL     1     -12.137  13.384  70.717  1.00  0.00    -0.439 OA 
HETATM   16  C   UNL     1     -11.745  13.910  68.414  1.00  0.00    -0.391 C  
HETATM   17  C   UNL     1     -10.596  12.923  68.232  1.00  0.00    -0.246 C  
HETATM   18  H   UNL     1     -12.155  14.295  70.987  1.00  0.00     0.000 HD 
HETATM   19  O   UNL     1      -9.615  13.132  69.254  1.00  0.00    -0.156 OA 
HETATM   20  C   UNL     1     -11.216  11.513  68.387  1.00  0.00    -0.314 C  
HETATM   21  H   UNL     1      -8.900  12.517  69.141  1.00  0.00     0.000 HD 
BRANCH  20  22
HETATM   22  C   UNL     1     -11.315  10.660  67.134  1.00  0.00    -0.046 C  
HETATM   23  C   UNL     1     -10.483  10.691  66.077  1.00  0.00    -0.250 C  
BRANCH  23  24
HETATM   24  C   UNL     1     -10.600   9.890  64.799  1.00  0.00     1.203 C  
HETATM   25  H   UNL     1     -11.567  10.041  63.101  1.00  0.00     0.000 HD 
HETATM   26  O   UNL     1     -11.493  10.544  63.903  1.00  0.00     1.273 OA 
BRANCH  24  27
HETATM   27  C   UNL     1      -9.215   9.726  64.140  1.00  0.00    -0.224 C  
BRANCH  27  28
HETATM   28  O   UNL     1      -8.454   8.688  64.780  1.00  0.00    -0.172 OA 
BRANCH  28  29
HETATM   29  C   UNL     1      -7.468   8.146  63.995  1.00  0.00    -0.115 A  
HETATM   30  C   UNL     1      -6.611   8.894  63.183  1.00  0.00    -0.090 A  
HETATM   31  C   UNL     1      -5.624   8.258  62.426  1.00  0.00    -0.071 A  
HETATM   32  C   UNL     1      -5.486   6.873  62.482  1.00  0.00    -0.032 A  
HETATM   33  C   UNL     1      -6.326   6.107  63.300  1.00  0.00    -0.025 A  
HETATM   34  C   UNL     1      -6.178   4.607  63.360  1.00  0.00    -0.022 C  
HETATM   35  C   UNL     1      -7.310   6.758  64.065  1.00  0.00    -0.082 A  
HETATM   36  F   UNL     1      -5.210   4.124  62.528  1.00  0.00    -0.005 F  
HETATM   37  F   UNL     1      -7.321   3.954  63.012  1.00  0.00    -0.045 F  
HETATM   38  F   UNL     1      -5.851   4.159  64.603  1.00  0.00    -0.013 F  
ENDBRANCH  28  29
ENDBRANCH  27  28
ENDBRANCH  24  27
ENDBRANCH  23  24
ENDBRANCH  20  22
ENDBRANCH  12  13
ENDBRANCH  11  12
ENDBRANCH   9  10
ENDBRANCH   8   9
ENDBRANCH   7   8
ENDBRANCH   5   7
ENDBRANCH   4   5
ENDBRANCH   2   4
TORSDOF 13
ENDMDL
MODEL      451
REMARK 921   NORMALIZED FREE ENERGY PREDICTED BY IDOCK:   31.91 KCAL/MOL
REMARK 922        TOTAL FREE ENERGY PREDICTED BY IDOCK:   53.93 KCAL/MOL
REMARK 923 INTER-LIGAND FREE ENERGY PREDICTED BY IDOCK:   22.49 KCAL/MOL
REMARK 924 INTRA-LIGAND FREE ENERGY PREDICTED BY IDOCK:   31.45 KCAL/MOL
REMARK 927      BINDING AFFINITY PREDICTED BY RF-SCORE:    0.00 PKD
ROOT
HETATM    1  C   UNL     1     -12.352   8.096  66.260  1.00  0.00    10.354 C  
HETATM    2  C   UNL     1     -11.727   8.500  67.591  1.00  0.00     2.647 C  
HETATM    3  C   UNL     1     -11.744   7.332  68.571  1.00  0.00     1.080 C  
ENDROOT
BRANCH   2   4
HETATM    4  O   UNL     1     -10.353   8.868  67.378  1.00  0.00    -0.232 OA 
BRANCH   4   5
HETATM    5  C   UNL     1     -10.142  10.196  67.157  1.00  0.00    -0.209 C  
HETATM    6  O   UNL     1     -10.537  11.100  67.881  1.00  0.00    -0.180 OA 
BRANCH   5   7
HETATM    7  C   UNL     1      -9.403  10.400  65.861  1.00  0.00    -0.224 C  
BRANCH   7   8
HETATM    8  C   UNL     1      -9.991  11.594  65.110  1.00  0.00    -0.297 C  
BRANCH   8   9
HETATM    9  C   UNL     1     -10.999  11.201  64.034  1.00  0.00    -0.269 C  
BRANCH   9  10
HETATM   10  C   UNL     1     -12.346  10.843  64.601  1.00  0.00     2.726 C  
HETATM   11  C   UNL     1     -12.950  11.445  65.637  1.00  0.00     4.633 C  
BRANCH  11  12
HETATM   12  C   UNL     1     -12.362  12.543  66.479  1.00  0.00     0.198 C  
BRANCH  12  13
HETATM   13  C   UNL     1     -11.054  13.107  65.906  1.00  0.00    -0.298 C  
HETATM   14  C   UNL     1     -10.572  12.459  64.603  1.00  0.00    -0.308 C  
HETATM   15  O   UNL     1     -11.656  12.155  63.732  1.00  0.00    -0.394 OA 
HETATM   16  C   UNL     1      -9.714  13.537  63.952  1.00  0.00     1.923 C  
HETATM   17  C   UNL     1     -10.482  14.826  64.226  1.00  0.00     0.703 C  
HETATM   18  H   UNL     1     -11.357  11.754  62.924  1.00  0.00     0.000 HD 
HETATM   19  O   UNL     1     -11.466  15.027  63.206  1.00  0.00     0.535 OA 
HETATM   20  C   UNL     1     -11.182  14.624  65.592  1.00  0.00    -0.342 C  
HETATM   21  H   UNL     1     -11.945  15.830  63.377  1.00  0.00     0.000 HD 
BRANCH  20  22
HETATM   22  C   UNL     1     -10.654  15.430  66.765  1.00  0.00    -0.309 C  
HETATM   23  C   UNL     1     -10.368  14.961  67.994  1.00  0.00    -0.244 C  
BRANCH  23  24
HETATM   24  C   UNL     1      -9.895  15.760  69.189  1.00  0.00    -0.247 C  
HETATM   25  H   UNL     1      -9.448  15.399  71.063  1.00  0.00     0.000 HD 
HETATM   26  O   UNL     1      -9.744  14.897  70.312  1.00  0.00     0.214 OA 
BRANCH  24  27
HETATM   27  C   UNL     1      -8.556  16.456  68.872  1.00  0.00    -0.250 C  
BRANCH  27  28
HETATM   28  O   UNL     1      -8.387  17.642  69.665  1.00  0.00     0.527 OA 
BRANCH  28  29
HETATM   29  C   UNL     1      -7.953  18.735  68.958  1.00  0.00    -0.158 A  
HETATM   30  C   UNL     1      -7.901  20.034  69.471  1.00  0.00     0.309 A  
HETATM   31  C   UNL     1      -7.432  21.086  68.681  1.00  0.00     0.987 A  
HETATM   32  C   UNL     1      -7.005  20.844  67.378  1.00  0.00    -0.426 A  
HETATM   33  C   UNL     1      -7.034  19.548  66.850  1.00  0.00    -0.213 A  
HETATM   34  C   UNL     1      -6.573  19.284  65.438  1.00  0.00    -0.271 C  
HETATM   35  C   UNL     1      -7.501  18.494  67.657  1.00  0.00    -0.236 A  
HETATM   36  F   UNL     1      -6.193  20.414  64.773  1.00  0.00    -0.237 F  
HETATM   37  F   UNL     1      -7.541  18.713  64.669  1.00  0.00     1.163 F  
HETATM   38  F   UNL     1      -5.503  18.445  65.381  1.00  0.00    -0.169 F  
ENDBRANCH  28  29
ENDBRANCH  27  28
ENDBRANCH  24  27
ENDBRANCH  23  24
ENDBRANCH  20  22
ENDBRANCH  12  13
ENDBRANCH  11  12
ENDBRANCH   9  10
ENDBRANCH   8   9
ENDBRANCH   7   8
ENDBRANCH   5   7
ENDBRANCH   4   5
ENDBRANCH   2   4
TORSDOF 13
ENDMDL
MODEL      452
REMARK 921   NORMALIZED FREE ENERGY PREDICTED BY IDOCK:   41.52 KCAL/MOL
REMARK 922        TOTAL FREE ENERGY PREDICTED BY IDOCK:   70.86 KCAL/MOL
REMARK 923 INTER-LIGAND FREE ENERGY PREDICTED BY IDOCK:   70.23 KCAL/MOL
REMARK 924 INTRA-LIGAND FREE ENERGY PREDICTED BY IDOCK:    0.63 KCAL/MOL
REMARK 927      BINDING AFFINITY PREDICTED BY RF-SCORE:    0.00 PKD
ROOT
HETATM    1  C   UNL     1      -6.614  18.371  63.835  1.00  0.00     3.457 C  
HETATM    2  C   UNL     1      -6.743  17.007  64.504  1.00  0.00     6.458 C  
HETATM    3  C   UNL     1      -6.872  17.157  66.016  1.00  0.00    -0.041 C  
ENDROOT
BRANCH   2   4
HETATM    4  O   UNL     1      -7.935  16.356  64.029  1.00  0.00     9.518 OA 
BRANCH   4   5
HETATM    5  C   UNL     1      -8.020  15.028  64.325  1.00  0.00    13.746 C  
HETATM    6  O   UNL     1      -8.698  14.214  63.713  1.00  0.00     6.537 OA 
BRANCH   5   7
HETATM    7  C   UNL     1      -7.207  14.713  65.553  1.00  0.00     8.109 C  
BRANCH   7   8
HETATM    8  C   UNL     1      -7.326  13.227  65.887  1.00  0.00     4.127 C  
BRANCH   8   9
HETATM    9  C   UNL     1      -8.728  12.810  66.324  1.00  0.00     0.219 C  
BRANCH   9  10
HETATM   10  C   UNL     1      -8.764  11.434  66.931  1.00  0.00    -0.165 C  
HETATM   11  C   UNL     1      -8.335  11.103  68.159  1.00  0.00    -0.136 C  
BRANCH  11  12
HETATM   12  C   UNL     1      -7.664  12.030  69.135  1.00  0.00     0.200 C  
BRANCH  12  13
HETATM   13  C   UNL     1      -6.876  11.290  70.223  1.00  0.00     0.395 C  
HETATM   14  C   UNL     1      -5.547  11.938  70.632  1.00  0.00    -0.149 C  
HETATM   15  O   UNL     1      -5.642  13.359  70.665  1.00  0.00    -0.147 OA 
HETATM   16  C   UNL     1      -5.313  11.435  72.051  1.00  0.00     0.394 C  
HETATM   17  C   UNL     1      -6.702  11.470  72.682  1.00  0.00     6.541 C  
HETATM   18  H   UNL     1      -4.819  13.760  70.918  1.00  0.00     0.000 HD 
HETATM   19  O   UNL     1      -6.957  12.775  73.213  1.00  0.00     4.767 OA 
HETATM   20  C   UNL     1      -7.699  11.170  71.537  1.00  0.00     6.713 C  
HETATM   21  H   UNL     1      -7.822  12.797  73.605  1.00  0.00     0.000 HD 
BRANCH  20  22
HETATM   22  C   UNL     1      -8.407   9.827  71.569  1.00  0.00     1.467 C  
HETATM   23  C   UNL     1      -8.990   9.205  70.528  1.00  0.00    -0.274 C  
BRANCH  23  24
HETATM   24  C   UNL     1      -9.747   7.895  70.556  1.00  0.00    -0.174 C  
HETATM   25  H   UNL     1     -11.580   7.310  70.933  1.00  0.00     0.000 HD 
HETATM   26  O   UNL     1     -11.104   8.133  70.916  1.00  0.00    -0.249 OA 
BRANCH  24  27
HETATM   27  C   UNL     1      -9.677   7.206  69.178  1.00  0.00    -0.158 C  
BRANCH  27  28
HETATM   28  O   UNL     1      -8.388   7.390  68.570  1.00  0.00    -0.124 OA 
BRANCH  28  29
HETATM   29  C   UNL     1      -7.726   6.221  68.289  1.00  0.00    -0.104 A  
HETATM   30  C   UNL     1      -6.678   5.708  69.057  1.00  0.00    -0.060 A  
HETATM   31  C   UNL     1      -6.070   4.501  68.703  1.00  0.00    -0.031 A  
HETATM   32  C   UNL     1      -6.512   3.798  67.585  1.00  0.00    -0.038 A  
HETATM   33  C   UNL     1      -7.571   4.288  66.811  1.00  0.00    -0.085 A  
HETATM   34  C   UNL     1      -8.050   3.528  65.598  1.00  0.00    -0.093 C  
HETATM   35  C   UNL     1      -8.182   5.500  67.181  1.00  0.00    -0.101 A  
HETATM   36  F   UNL     1      -7.328   2.398  65.347  1.00  0.00    -0.060 F  
HETATM   37  F   UNL     1      -7.984   4.268  64.457  1.00  0.00    -0.084 F  
HETATM   38  F   UNL     1      -9.344   3.122  65.709  1.00  0.00    -0.149 F  
ENDBRANCH  28  29
ENDBRANCH  27  28
ENDBRANCH  24  27
ENDBRANCH  23  24
ENDBRANCH  20  22
ENDBRANCH  12  13
ENDBRANCH  11  12
ENDBRANCH   9  10
ENDBRANCH   8   9
ENDBRANCH   7   8
ENDBRANCH   5   7
ENDBRANCH   4   5
ENDBRANCH   2   4
TORSDOF 13
ENDMDL
MODEL      453
REMARK 921   NORMALIZED FREE ENERGY PREDICTED BY IDOCK:   41.55 KCAL/MOL
REMARK 922        TOTAL FREE ENERGY PREDICTED BY IDOCK:   70.91 KCAL/MOL
REMARK 923 INTER-LIGAND FREE ENERGY PREDICTED BY IDOCK:   71.10 KCAL/MOL
REMARK 924 INTRA-LIGAND FREE ENERGY PREDICTED BY IDOCK:   -0.19 KCAL/MOL
REMARK 927      BINDING AFFINITY PREDICTED BY RF-SCORE:    0.00 PKD
ROOT
HETATM    1  C   UNL     1      -6.089  18.410  64.281  1.00  0.00     0.777 C  
HETATM    2  C   UNL     1      -5.830  17.069  64.957  1.00  0.00     2.888 C  
HETATM    3  C   UNL     1      -5.782  17.229  66.474  1.00  0.00    -0.231 C  
ENDROOT
BRANCH   2   4
HETATM    4  O   UNL     1      -6.907  16.165  64.650  1.00  0.00     7.257 OA 
BRANCH   4   5
HETATM    5  C   UNL     1      -7.779  16.613  63.703  1.00  0.00    17.664 C  
HETATM    6  O   UNL     1      -7.657  16.438  62.498  1.00  0.00    21.264 OA 
BRANCH   5   7
HETATM    7  C   UNL     1      -8.885  17.407  64.345  1.00  0.00     7.783 C  
BRANCH   7   8
HETATM    8  C   UNL     1      -9.175  16.857  65.742  1.00  0.00     0.036 C  
BRANCH   8   9
HETATM    9  C   UNL     1     -10.660  16.838  66.093  1.00  0.00    -0.212 C  
BRANCH   9  10
HETATM   10  C   UNL     1     -10.911  16.538  67.546  1.00  0.00    -0.166 C  
HETATM   11  C   UNL     1     -10.231  17.047  68.585  1.00  0.00    -0.321 C  
BRANCH  11  12
HETATM   12  C   UNL     1      -9.036  17.956  68.491  1.00  0.00    -0.289 C  
BRANCH  12  13
HETATM   13  C   UNL     1      -7.709  17.235  68.759  1.00  0.00    -0.261 C  
HETATM   14  C   UNL     1      -6.757  17.943  69.730  1.00  0.00     0.115 C  
HETATM   15  O   UNL     1      -7.460  18.556  70.805  1.00  0.00     2.446 OA 
HETATM   16  C   UNL     1      -5.899  16.815  70.293  1.00  0.00    -0.118 C  
HETATM   17  C   UNL     1      -6.888  15.670  70.488  1.00  0.00     0.601 C  
HETATM   18  H   UNL     1      -6.870  18.995  71.407  1.00  0.00     0.000 HD 
HETATM   19  O   UNL     1      -7.522  15.793  71.765  1.00  0.00     4.049 OA 
HETATM   20  C   UNL     1      -7.944  15.822  69.366  1.00  0.00    -0.211 C  
HETATM   21  H   UNL     1      -8.139  15.081  71.886  1.00  0.00     0.000 HD 
BRANCH  20  22
HETATM   22  C   UNL     1      -7.929  14.786  68.256  1.00  0.00    -0.130 C  
HETATM   23  C   UNL     1      -6.850  14.363  67.572  1.00  0.00    -0.162 C  
BRANCH  23  24
HETATM   24  C   UNL     1      -6.826  13.374  66.427  1.00  0.00     2.824 C  
HETATM   25  H   UNL     1      -5.518  12.744  65.109  1.00  0.00     0.000 HD 
HETATM   26  O   UNL     1      -5.533  13.365  65.829  1.00  0.00     4.696 OA 
BRANCH  24  27
HETATM   27  C   UNL     1      -7.185  11.962  66.931  1.00  0.00    -0.074 C  
BRANCH  27  28
HETATM   28  O   UNL     1      -6.016  11.257  67.380  1.00  0.00    -0.050 OA 
BRANCH  28  29
HETATM   29  C   UNL     1      -6.268  10.292  68.323  1.00  0.00    -0.048 A  
HETATM   30  C   UNL     1      -5.354   9.304  68.700  1.00  0.00    -0.034 A  
HETATM   31  C   UNL     1      -5.692   8.369  69.681  1.00  0.00    -0.030 A  
HETATM   32  C   UNL     1      -6.941   8.422  70.295  1.00  0.00    -0.036 A  
HETATM   33  C   UNL     1      -7.865   9.413  69.943  1.00  0.00    -0.126 A  
HETATM   34  C   UNL     1      -9.218   9.471  70.607  1.00  0.00    -0.180 C  
HETATM   35  C   UNL     1      -7.511  10.355  68.960  1.00  0.00    -0.106 A  
HETATM   36  F   UNL     1      -9.425   8.463  71.504  1.00  0.00    -0.181 F  
HETATM   37  F   UNL     1     -10.243   9.384  69.715  1.00  0.00    -0.185 F  
HETATM   38  F   UNL     1      -9.417  10.626  71.298  1.00  0.00     1.852 F  
ENDBRANCH  28  29
ENDBRANCH  27  28
ENDBRANCH  24  27
ENDBRANCH  23  24
ENDBRANCH  20  22
ENDBRANCH  12  13
ENDBRANCH  11  12
ENDBRANCH   9  10
ENDBRANCH   8   9
ENDBRANCH   7   8
ENDBRANCH   5   7
ENDBRANCH   4   5
ENDBRANCH   2   4
TORSDOF 13
ENDMDL
