MODEL        1
REMARK 921   NORMALIZED FREE ENERGY PREDICTED BY IDOCK:   -7.27 KCAL/MOL
REMARK 922        TOTAL FREE ENERGY PREDICTED BY IDOCK:  -10.03 KCAL/MOL
REMARK 923 INTER-LIGAND FREE ENERGY PREDICTED BY IDOCK:   -9.39 KCAL/MOL
REMARK 924 INTRA-LIGAND FREE ENERGY PREDICTED BY IDOCK:   -0.63 KCAL/MOL
REMARK 927      BINDING AFFINITY PREDICTED BY RF-SCORE:    0.00 PKD
ROOT
HETATM    1 CL   UNL     1     -10.652   7.336  73.025  1.00  0.00    -0.331 Cl 
HETATM    2  C   UNL     1     -11.469   8.579  72.156  1.00  0.00    -0.376 A  
HETATM    3  C   UNL     1     -12.746   8.962  72.543  1.00  0.00    -0.382 A  
HETATM    4  C   UNL     1     -13.399   9.963  71.831  1.00  0.00    -0.524 A  
HETATM    5  C   UNL     1     -12.774  10.556  70.729  1.00  0.00    -0.471 A  
HETATM    6  C   UNL     1     -11.494  10.167  70.303  1.00  0.00    -0.306 A  
HETATM    7  C   UNL     1     -10.848   9.176  71.057  1.00  0.00    -0.362 A  
ENDROOT
BRANCH   6   8
HETATM    8  N   UNL     1     -10.950  10.683  69.140  1.00  0.00    -0.229 NA 
HETATM    9  C   UNL     1     -10.956  12.130  68.881  1.00  0.00    -0.224 C  
HETATM   10  C   UNL     1      -9.680  12.524  68.102  1.00  0.00    -0.222 C  
HETATM   11  N   UNL     1      -9.456  11.769  66.844  1.00  0.00    -0.188 NA 
HETATM   12  C   UNL     1     -10.714   9.833  67.961  1.00  0.00    -0.247 C  
HETATM   13  C   UNL     1      -9.459  10.323  67.191  1.00  0.00    -0.158 C  
BRANCH  11  14
HETATM   14  C   UNL     1     -10.462  12.060  65.810  1.00  0.00    -0.254 C  
BRANCH  14  15
HETATM   15  C   UNL     1     -10.337  13.471  65.232  1.00  0.00    -0.344 C  
BRANCH  15  16
HETATM   16  C   UNL     1     -11.478  14.361  65.717  1.00  0.00    -0.335 C  
BRANCH  16  17
HETATM   17  N   UNL     1     -10.994  15.664  66.103  1.00  0.00    -0.261 N  
HETATM   18  N   UNL     1     -10.720  15.994  67.417  1.00  0.00    -0.316 NA 
HETATM   19  C   UNL     1     -10.491  17.270  67.364  1.00  0.00    -0.338 A  
HETATM   20  C   UNL     1     -10.128  18.165  68.484  1.00  0.00    -0.413 A  
HETATM   21  C   UNL     1      -9.940  19.468  68.208  1.00  0.00    -0.533 A  
HETATM   22  C   UNL     1     -10.099  19.985  66.861  1.00  0.00    -0.601 A  
HETATM   23  C   UNL     1     -10.432  19.156  65.859  1.00  0.00    -0.424 A  
HETATM   24  N   UNL     1     -10.609  17.829  66.131  1.00  0.00    -0.296 N  
HETATM   25  C   UNL     1     -10.967  16.807  65.284  1.00  0.00    -0.078 C  
HETATM   26  O   UNL     1     -11.237  16.871  64.091  1.00  0.00    -1.176 OA 
ENDBRANCH  16  17
ENDBRANCH  15  16
ENDBRANCH  14  15
ENDBRANCH  11  14
ENDBRANCH   6   8
TORSDOF 5
ENDMDL
MODEL        2
REMARK 921   NORMALIZED FREE ENERGY PREDICTED BY IDOCK:   -7.25 KCAL/MOL
REMARK 922        TOTAL FREE ENERGY PREDICTED BY IDOCK:  -10.00 KCAL/MOL
REMARK 923 INTER-LIGAND FREE ENERGY PREDICTED BY IDOCK:   -9.30 KCAL/MOL
REMARK 924 INTRA-LIGAND FREE ENERGY PREDICTED BY IDOCK:   -0.69 KCAL/MOL
REMARK 927      BINDING AFFINITY PREDICTED BY RF-SCORE:    0.00 PKD
ROOT
HETATM    1 CL   UNL     1      -9.474   7.869  72.594  1.00  0.00    -0.256 Cl 
HETATM    2  C   UNL     1     -10.777   8.797  71.955  1.00  0.00    -0.359 A  
HETATM    3  C   UNL     1     -12.060   8.615  72.455  1.00  0.00    -0.415 A  
HETATM    4  C   UNL     1     -13.106   9.364  71.928  1.00  0.00    -0.505 A  
HETATM    5  C   UNL     1     -12.861  10.275  70.894  1.00  0.00    -0.463 A  
HETATM    6  C   UNL     1     -11.578  10.457  70.354  1.00  0.00    -0.337 A  
HETATM    7  C   UNL     1     -10.536   9.709  70.924  1.00  0.00    -0.386 A  
ENDROOT
BRANCH   6   8
HETATM    8  N   UNL     1     -11.384  11.272  69.253  1.00  0.00    -0.260 NA 
HETATM    9  C   UNL     1     -11.699  12.707  69.311  1.00  0.00    -0.322 C  
HETATM   10  C   UNL     1     -10.700  13.494  68.432  1.00  0.00    -0.259 C  
HETATM   11  N   UNL     1     -10.609  13.036  67.023  1.00  0.00    -0.256 NA 
HETATM   12  C   UNL     1     -11.249  10.712  67.898  1.00  0.00    -0.308 C  
HETATM   13  C   UNL     1     -10.286  11.585  67.051  1.00  0.00    -0.214 C  
BRANCH  11  14
HETATM   14  C   UNL     1     -11.842  13.281  66.256  1.00  0.00    -0.395 C  
BRANCH  14  15
HETATM   15  C   UNL     1     -11.683  14.378  65.201  1.00  0.00    -0.372 C  
BRANCH  15  16
HETATM   16  C   UNL     1     -10.232  14.839  65.109  1.00  0.00    -0.377 C  
BRANCH  16  17
HETATM   17  N   UNL     1     -10.046  16.107  65.772  1.00  0.00    -0.355 N  
HETATM   18  N   UNL     1     -10.768  17.235  65.431  1.00  0.00    -0.573 NA 
HETATM   19  C   UNL     1     -10.193  18.177  66.112  1.00  0.00    -0.367 A  
HETATM   20  C   UNL     1     -10.558  19.610  66.150  1.00  0.00    -0.584 A  
HETATM   21  C   UNL     1      -9.818  20.423  66.925  1.00  0.00    -0.572 A  
HETATM   22  C   UNL     1      -8.692  19.920  67.690  1.00  0.00    -0.395 A  
HETATM   23  C   UNL     1      -8.375  18.616  67.638  1.00  0.00    -0.267 A  
HETATM   24  N   UNL     1      -9.133  17.783  66.865  1.00  0.00    -0.251 N  
HETATM   25  C   UNL     1      -8.990  16.434  66.642  1.00  0.00    -0.258 C  
HETATM   26  O   UNL     1      -8.124  15.681  67.072  1.00  0.00    -0.199 OA 
ENDBRANCH  16  17
ENDBRANCH  15  16
ENDBRANCH  14  15
ENDBRANCH  11  14
ENDBRANCH   6   8
TORSDOF 5
ENDMDL
MODEL        3
REMARK 921   NORMALIZED FREE ENERGY PREDICTED BY IDOCK:   -7.24 KCAL/MOL
REMARK 922        TOTAL FREE ENERGY PREDICTED BY IDOCK:   -9.99 KCAL/MOL
REMARK 923 INTER-LIGAND FREE ENERGY PREDICTED BY IDOCK:   -9.32 KCAL/MOL
REMARK 924 INTRA-LIGAND FREE ENERGY PREDICTED BY IDOCK:   -0.67 KCAL/MOL
REMARK 927      BINDING AFFINITY PREDICTED BY RF-SCORE:    0.00 PKD
ROOT
HETATM    1 CL   UNL     1     -10.480   5.129  70.126  1.00  0.00    -0.345 Cl 
HETATM    2  C   UNL     1     -10.877   6.696  70.721  1.00  0.00    -0.252 A  
HETATM    3  C   UNL     1     -11.329   6.841  72.026  1.00  0.00    -0.308 A  
HETATM    4  C   UNL     1     -11.652   8.109  72.495  1.00  0.00    -0.468 A  
HETATM    5  C   UNL     1     -11.538   9.216  71.648  1.00  0.00    -0.449 A  
HETATM    6  C   UNL     1     -11.109   9.092  70.317  1.00  0.00    -0.235 A  
HETATM    7  C   UNL     1     -10.762   7.805  69.879  1.00  0.00    -0.245 A  
ENDROOT
BRANCH   6   8
HETATM    8  N   UNL     1     -11.121  10.182  69.466  1.00  0.00    -0.241 NA 
HETATM    9  C   UNL     1     -12.016  11.323  69.713  1.00  0.00    -0.360 C  
HETATM   10  C   UNL     1     -11.327  12.631  69.261  1.00  0.00    -0.245 C  
HETATM   11  N   UNL     1     -10.851  12.636  67.856  1.00  0.00    -0.213 NA 
HETATM   12  C   UNL     1     -10.570  10.099  68.103  1.00  0.00    -0.223 C  
HETATM   13  C   UNL     1      -9.954  11.461  67.690  1.00  0.00    -0.179 C  
BRANCH  11  14
HETATM   14  C   UNL     1     -11.948  12.597  66.875  1.00  0.00    -0.275 C  
BRANCH  14  15
HETATM   15  C   UNL     1     -12.141  13.924  66.139  1.00  0.00    -0.478 C  
BRANCH  15  16
HETATM   16  C   UNL     1     -10.822  14.420  65.555  1.00  0.00    -0.331 C  
BRANCH  16  17
HETATM   17  N   UNL     1     -10.504  15.742  66.038  1.00  0.00    -0.323 N  
HETATM   18  N   UNL     1     -10.109  15.980  67.341  1.00  0.00    -0.253 NA 
HETATM   19  C   UNL     1     -10.096  17.275  67.419  1.00  0.00    -0.307 A  
HETATM   20  C   UNL     1      -9.729  18.100  68.590  1.00  0.00    -0.367 A  
HETATM   21  C   UNL     1      -9.792  19.437  68.456  1.00  0.00    -0.509 A  
HETATM   22  C   UNL     1     -10.215  20.053  67.211  1.00  0.00    -0.565 A  
HETATM   23  C   UNL     1     -10.545  19.285  66.161  1.00  0.00    -0.459 A  
HETATM   24  N   UNL     1     -10.469  17.927  66.287  1.00  0.00    -0.354 N  
HETATM   25  C   UNL     1     -10.773  16.950  65.369  1.00  0.00    -0.150 C  
HETATM   26  O   UNL     1     -11.210  17.087  64.233  1.00  0.00    -1.186 OA 
ENDBRANCH  16  17
ENDBRANCH  15  16
ENDBRANCH  14  15
ENDBRANCH  11  14
ENDBRANCH   6   8
TORSDOF 5
ENDMDL
MODEL        4
REMARK 921   NORMALIZED FREE ENERGY PREDICTED BY IDOCK:   -7.07 KCAL/MOL
REMARK 922        TOTAL FREE ENERGY PREDICTED BY IDOCK:   -9.77 KCAL/MOL
REMARK 923 INTER-LIGAND FREE ENERGY PREDICTED BY IDOCK:   -8.93 KCAL/MOL
REMARK 924 INTRA-LIGAND FREE ENERGY PREDICTED BY IDOCK:   -0.84 KCAL/MOL
REMARK 927      BINDING AFFINITY PREDICTED BY RF-SCORE:    0.00 PKD
ROOT
HETATM    1 CL   UNL     1     -10.869   8.081  69.939  1.00  0.00    -0.242 Cl 
HETATM    2  C   UNL     1     -11.693   9.447  70.588  1.00  0.00    -0.240 A  
HETATM    3  C   UNL     1     -12.637   9.268  71.591  1.00  0.00    -0.446 A  
HETATM    4  C   UNL     1     -13.301  10.377  72.104  1.00  0.00    -0.374 A  
HETATM    5  C   UNL     1     -13.028  11.651  71.594  1.00  0.00    -0.483 A  
HETATM    6  C   UNL     1     -12.098  11.854  70.563  1.00  0.00    -0.331 A  
HETATM    7  C   UNL     1     -11.422  10.722  70.084  1.00  0.00    -0.415 A  
ENDROOT
BRANCH   6   8
HETATM    8  N   UNL     1     -11.936  13.105  69.995  1.00  0.00    -0.339 NA 
HETATM    9  C   UNL     1     -11.726  13.256  68.547  1.00  0.00    -0.352 C  
HETATM   10  C   UNL     1     -12.394  14.562  68.058  1.00  0.00     0.067 C  
HETATM   11  N   UNL     1     -11.970  15.789  68.778  1.00  0.00    -0.318 NA 
HETATM   12  C   UNL     1     -11.568  14.276  70.809  1.00  0.00    -0.120 C  
HETATM   13  C   UNL     1     -12.217  15.559  70.226  1.00  0.00    -0.400 C  
BRANCH  11  14
HETATM   14  C   UNL     1     -10.561  16.141  68.538  1.00  0.00    -0.284 C  
BRANCH  14  15
HETATM   15  C   UNL     1     -10.384  17.186  67.435  1.00  0.00    -0.333 C  
BRANCH  15  16
HETATM   16  C   UNL     1      -9.534  16.635  66.294  1.00  0.00    -0.293 C  
BRANCH  16  17
HETATM   17  N   UNL     1     -10.144  15.465  65.710  1.00  0.00    -0.334 N  
HETATM   18  N   UNL     1      -9.668  14.188  65.938  1.00  0.00    -0.275 NA 
HETATM   19  C   UNL     1     -10.355  13.460  65.113  1.00  0.00    -0.336 A  
HETATM   20  C   UNL     1     -10.278  11.994  64.930  1.00  0.00    -0.302 A  
HETATM   21  C   UNL     1     -11.082  11.437  64.007  1.00  0.00    -0.400 A  
HETATM   22  C   UNL     1     -11.989  12.242  63.209  1.00  0.00    -0.499 A  
HETATM   23  C   UNL     1     -12.041  13.572  63.389  1.00  0.00    -0.289 A  
HETATM   24  N   UNL     1     -11.237  14.141  64.335  1.00  0.00    -0.325 N  
HETATM   25  C   UNL     1     -11.103  15.465  64.681  1.00  0.00    -0.347 C  
HETATM   26  O   UNL     1     -11.663  16.437  64.188  1.00  0.00    -0.921 OA 
ENDBRANCH  16  17
ENDBRANCH  15  16
ENDBRANCH  14  15
ENDBRANCH  11  14
ENDBRANCH   6   8
TORSDOF 5
ENDMDL
MODEL        5
REMARK 921   NORMALIZED FREE ENERGY PREDICTED BY IDOCK:   -6.89 KCAL/MOL
REMARK 922        TOTAL FREE ENERGY PREDICTED BY IDOCK:   -9.54 KCAL/MOL
REMARK 923 INTER-LIGAND FREE ENERGY PREDICTED BY IDOCK:   -8.82 KCAL/MOL
REMARK 924 INTRA-LIGAND FREE ENERGY PREDICTED BY IDOCK:   -0.72 KCAL/MOL
REMARK 927      BINDING AFFINITY PREDICTED BY RF-SCORE:    0.00 PKD
ROOT
HETATM    1 CL   UNL     1     -13.430   9.651  72.190  1.00  0.00    -0.519 Cl 
HETATM    2  C   UNL     1     -11.915   9.424  71.403  1.00  0.00    -0.371 A  
HETATM    3  C   UNL     1     -10.874   8.803  72.082  1.00  0.00    -0.400 A  
HETATM    4  C   UNL     1      -9.653   8.630  71.439  1.00  0.00    -0.313 A  
HETATM    5  C   UNL     1      -9.481   9.096  70.131  1.00  0.00    -0.235 A  
HETATM    6  C   UNL     1     -10.509   9.749  69.434  1.00  0.00    -0.223 A  
HETATM    7  C   UNL     1     -11.739   9.885  70.096  1.00  0.00    -0.239 A  
ENDROOT
BRANCH   6   8
HETATM    8  N   UNL     1     -10.276  10.307  68.190  1.00  0.00    -0.157 NA 
HETATM    9  C   UNL     1     -10.150  11.763  68.027  1.00  0.00    -0.192 C  
HETATM   10  C   UNL     1      -9.128  12.074  66.909  1.00  0.00    -0.196 C  
HETATM   11  N   UNL     1      -9.409  11.425  65.605  1.00  0.00    -0.227 NA 
HETATM   12  C   UNL     1     -10.535   9.555  66.950  1.00  0.00    -0.208 C  
HETATM   13  C   UNL     1      -9.517   9.962  65.854  1.00  0.00    -0.215 C  
BRANCH  11  14
HETATM   14  C   UNL     1     -10.628  11.935  64.957  1.00  0.00    -0.289 C  
BRANCH  14  15
HETATM   15  C   UNL     1     -10.540  13.419  64.597  1.00  0.00    -0.431 C  
BRANCH  15  16
HETATM   16  C   UNL     1     -11.624  14.219  65.314  1.00  0.00    -0.348 C  
BRANCH  16  17
HETATM   17  N   UNL     1     -11.085  15.429  65.885  1.00  0.00    -0.292 N  
HETATM   18  N   UNL     1     -10.788  15.547  67.229  1.00  0.00    -0.313 NA 
HETATM   19  C   UNL     1     -10.509  16.807  67.366  1.00  0.00    -0.310 A  
HETATM   20  C   UNL     1     -10.101  17.508  68.603  1.00  0.00    -0.361 A  
HETATM   21  C   UNL     1      -9.865  18.829  68.523  1.00  0.00    -0.444 A  
HETATM   22  C   UNL     1     -10.014  19.550  67.271  1.00  0.00    -0.493 A  
HETATM   23  C   UNL     1     -10.388  18.895  66.161  1.00  0.00    -0.460 A  
HETATM   24  N   UNL     1     -10.615  17.549  66.233  1.00  0.00    -0.258 N  
HETATM   25  C   UNL     1     -11.020  16.681  65.247  1.00  0.00    -0.120 C  
HETATM   26  O   UNL     1     -11.297  16.935  64.080  1.00  0.00    -1.208 OA 
ENDBRANCH  16  17
ENDBRANCH  15  16
ENDBRANCH  14  15
ENDBRANCH  11  14
ENDBRANCH   6   8
TORSDOF 5
ENDMDL
MODEL        6
REMARK 921   NORMALIZED FREE ENERGY PREDICTED BY IDOCK:   -6.86 KCAL/MOL
REMARK 922        TOTAL FREE ENERGY PREDICTED BY IDOCK:   -9.49 KCAL/MOL
REMARK 923 INTER-LIGAND FREE ENERGY PREDICTED BY IDOCK:   -8.86 KCAL/MOL
REMARK 924 INTRA-LIGAND FREE ENERGY PREDICTED BY IDOCK:   -0.64 KCAL/MOL
REMARK 927      BINDING AFFINITY PREDICTED BY RF-SCORE:    0.00 PKD
ROOT
HETATM    1 CL   UNL     1      -7.449  19.584  69.287  1.00  0.00    -0.350 Cl 
HETATM    2  C   UNL     1      -8.661  19.270  68.104  1.00  0.00    -0.327 A  
HETATM    3  C   UNL     1      -9.294  20.331  67.470  1.00  0.00    -0.513 A  
HETATM    4  C   UNL     1     -10.275  20.067  66.521  1.00  0.00    -0.598 A  
HETATM    5  C   UNL     1     -10.625  18.744  66.229  1.00  0.00    -0.429 A  
HETATM    6  C   UNL     1     -10.018  17.656  66.875  1.00  0.00    -0.323 A  
HETATM    7  C   UNL     1      -9.012  17.951  67.807  1.00  0.00    -0.254 A  
ENDROOT
BRANCH   6   8
HETATM    8  N   UNL     1     -10.467  16.366  66.657  1.00  0.00    -0.293 NA 
HETATM    9  C   UNL     1     -10.711  15.451  67.783  1.00  0.00    -0.289 C  
HETATM   10  C   UNL     1     -11.903  14.524  67.450  1.00  0.00    -0.388 C  
HETATM   11  N   UNL     1     -11.773  13.767  66.181  1.00  0.00    -0.352 NA 
HETATM   12  C   UNL     1     -10.342  15.721  65.339  1.00  0.00    -0.389 C  
HETATM   13  C   UNL     1     -11.534  14.759  65.098  1.00  0.00    -0.371 C  
BRANCH  11  14
HETATM   14  C   UNL     1     -10.697  12.763  66.215  1.00  0.00    -0.270 C  
BRANCH  14  15
HETATM   15  C   UNL     1     -11.050  11.535  67.058  1.00  0.00    -0.365 C  
BRANCH  15  16
HETATM   16  C   UNL     1     -10.091  11.389  68.235  1.00  0.00    -0.196 C  
BRANCH  16  17
HETATM   17  N   UNL     1     -10.726  10.717  69.342  1.00  0.00    -0.230 N  
HETATM   18  N   UNL     1     -10.648   9.349  69.523  1.00  0.00    -0.217 NA 
HETATM   19  C   UNL     1     -11.477   9.126  70.496  1.00  0.00    -0.229 A  
HETATM   20  C   UNL     1     -11.792   7.827  71.127  1.00  0.00    -0.311 A  
HETATM   21  C   UNL     1     -12.695   7.820  72.124  1.00  0.00    -0.220 A  
HETATM   22  C   UNL     1     -13.347   9.041  72.562  1.00  0.00    -0.480 A  
HETATM   23  C   UNL     1     -13.048  10.209  71.973  1.00  0.00    -0.437 A  
HETATM   24  N   UNL     1     -12.121  10.224  70.969  1.00  0.00    -0.353 N  
HETATM   25  C   UNL     1     -11.673  11.283  70.215  1.00  0.00    -0.324 C  
HETATM   26  O   UNL     1     -12.034  12.452  70.260  1.00  0.00    -0.349 OA 
ENDBRANCH  16  17
ENDBRANCH  15  16
ENDBRANCH  14  15
ENDBRANCH  11  14
ENDBRANCH   6   8
TORSDOF 5
ENDMDL
MODEL        7
REMARK 921   NORMALIZED FREE ENERGY PREDICTED BY IDOCK:   -6.85 KCAL/MOL
REMARK 922        TOTAL FREE ENERGY PREDICTED BY IDOCK:   -9.49 KCAL/MOL
REMARK 923 INTER-LIGAND FREE ENERGY PREDICTED BY IDOCK:   -9.03 KCAL/MOL
REMARK 924 INTRA-LIGAND FREE ENERGY PREDICTED BY IDOCK:   -0.46 KCAL/MOL
REMARK 927      BINDING AFFINITY PREDICTED BY RF-SCORE:    0.00 PKD
ROOT
HETATM    1 CL   UNL     1     -12.168  16.695  74.243  1.00  0.00    -0.499 Cl 
HETATM    2  C   UNL     1     -12.333  15.611  72.915  1.00  0.00    -0.447 A  
HETATM    3  C   UNL     1     -13.051  14.433  73.074  1.00  0.00    -0.581 A  
HETATM    4  C   UNL     1     -13.173  13.562  71.997  1.00  0.00    -0.529 A  
HETATM    5  C   UNL     1     -12.559  13.870  70.778  1.00  0.00    -0.424 A  
HETATM    6  C   UNL     1     -11.807  15.041  70.600  1.00  0.00    -0.313 A  
HETATM    7  C   UNL     1     -11.724  15.915  71.695  1.00  0.00    -0.563 A  
ENDROOT
BRANCH   6   8
HETATM    8  N   UNL     1     -11.111  15.262  69.425  1.00  0.00    -0.262 NA 
HETATM    9  C   UNL     1     -11.770  15.875  68.262  1.00  0.00    -0.186 C  
HETATM   10  C   UNL     1     -10.755  16.753  67.493  1.00  0.00    -0.275 C  
HETATM   11  N   UNL     1      -9.510  16.057  67.082  1.00  0.00    -0.214 NA 
HETATM   12  C   UNL     1      -9.849  14.560  69.136  1.00  0.00    -0.080 C  
HETATM   13  C   UNL     1      -8.906  15.472  68.309  1.00  0.00    -0.179 C  
BRANCH  11  14
HETATM   14  C   UNL     1      -9.739  15.017  66.066  1.00  0.00    -0.328 C  
BRANCH  14  15
HETATM   15  C   UNL     1     -10.629  15.489  64.915  1.00  0.00    -0.370 C  
BRANCH  15  16
HETATM   16  C   UNL     1     -11.857  14.594  64.774  1.00  0.00    -0.440 C  
BRANCH  16  17
HETATM   17  N   UNL     1     -11.572  13.248  65.211  1.00  0.00    -0.302 N  
HETATM   18  N   UNL     1     -11.802  12.825  66.506  1.00  0.00    -0.406 NA 
HETATM   19  C   UNL     1     -11.260  11.646  66.538  1.00  0.00    -0.294 A  
HETATM   20  C   UNL     1     -11.216  10.708  67.680  1.00  0.00    -0.361 A  
HETATM   21  C   UNL     1     -10.592   9.531  67.498  1.00  0.00    -0.338 A  
HETATM   22  C   UNL     1      -9.973   9.192  66.229  1.00  0.00    -0.352 A  
HETATM   23  C   UNL     1     -10.023  10.060  65.205  1.00  0.00    -0.298 A  
HETATM   24  N   UNL     1     -10.667  11.251  65.381  1.00  0.00    -0.257 N  
HETATM   25  C   UNL     1     -10.828  12.292  64.497  1.00  0.00    -0.315 C  
HETATM   26  O   UNL     1     -10.397  12.389  63.354  1.00  0.00    -0.413 OA 
ENDBRANCH  16  17
ENDBRANCH  15  16
ENDBRANCH  14  15
ENDBRANCH  11  14
ENDBRANCH   6   8
TORSDOF 5
ENDMDL
MODEL        8
REMARK 921   NORMALIZED FREE ENERGY PREDICTED BY IDOCK:   -6.81 KCAL/MOL
REMARK 922        TOTAL FREE ENERGY PREDICTED BY IDOCK:   -9.44 KCAL/MOL
REMARK 923 INTER-LIGAND FREE ENERGY PREDICTED BY IDOCK:   -8.71 KCAL/MOL
REMARK 924 INTRA-LIGAND FREE ENERGY PREDICTED BY IDOCK:   -0.73 KCAL/MOL
REMARK 927      BINDING AFFINITY PREDICTED BY RF-SCORE:    0.00 PKD
ROOT
HETATM    1 CL   UNL     1     -12.538  16.206  74.436  1.00  0.00    -0.635 Cl 
HETATM    2  C   UNL     1     -12.507  15.383  72.923  1.00  0.00    -0.418 A  
HETATM    3  C   UNL     1     -13.172  14.170  72.786  1.00  0.00    -0.604 A  
HETATM    4  C   UNL     1     -13.135  13.511  71.563  1.00  0.00    -0.427 A  
HETATM    5  C   UNL     1     -12.420  14.062  70.494  1.00  0.00    -0.429 A  
HETATM    6  C   UNL     1     -11.719  15.273  70.616  1.00  0.00    -0.332 A  
HETATM    7  C   UNL     1     -11.797  15.931  71.853  1.00  0.00    -0.595 A  
ENDROOT
BRANCH   6   8
HETATM    8  N   UNL     1     -10.922  15.734  69.584  1.00  0.00    -0.278 NA 
HETATM    9  C   UNL     1     -11.517  16.233  68.335  1.00  0.00    -0.243 C  
HETATM   10  C   UNL     1     -10.651  17.383  67.770  1.00  0.00    -0.371 C  
HETATM   11  N   UNL     1      -9.219  17.049  67.569  1.00  0.00    -0.230 NA 
HETATM   12  C   UNL     1      -9.492  15.389  69.505  1.00  0.00    -0.249 C  
HETATM   13  C   UNL     1      -8.694  16.558  68.871  1.00  0.00    -0.247 C  
BRANCH  11  14
HETATM   14  C   UNL     1      -9.003  16.050  66.510  1.00  0.00    -0.292 C  
BRANCH  14  15
HETATM   15  C   UNL     1     -10.198  15.912  65.564  1.00  0.00    -0.394 C  
BRANCH  15  16
HETATM   16  C   UNL     1     -10.349  14.471  65.084  1.00  0.00    -0.411 C  
BRANCH  16  17
HETATM   17  N   UNL     1     -10.433  13.559  66.198  1.00  0.00    -0.291 N  
HETATM   18  N   UNL     1      -9.318  12.965  66.757  1.00  0.00    -0.238 NA 
HETATM   19  C   UNL     1      -9.820  12.102  67.586  1.00  0.00    -0.194 A  
HETATM   20  C   UNL     1      -9.084  11.183  68.480  1.00  0.00    -0.175 A  
HETATM   21  C   UNL     1      -9.806  10.358  69.259  1.00  0.00    -0.243 A  
HETATM   22  C   UNL     1     -11.258  10.359  69.220  1.00  0.00    -0.304 A  
HETATM   23  C   UNL     1     -11.906  11.201  68.398  1.00  0.00    -0.232 A  
HETATM   24  N   UNL     1     -11.177  12.050  67.615  1.00  0.00    -0.262 N  
HETATM   25  C   UNL     1     -11.612  12.974  66.695  1.00  0.00    -0.359 C  
HETATM   26  O   UNL     1     -12.763  13.218  66.351  1.00  0.00    -0.252 OA 
ENDBRANCH  16  17
ENDBRANCH  15  16
ENDBRANCH  14  15
ENDBRANCH  11  14
ENDBRANCH   6   8
TORSDOF 5
ENDMDL
MODEL        9
REMARK 921   NORMALIZED FREE ENERGY PREDICTED BY IDOCK:   -6.77 KCAL/MOL
REMARK 922        TOTAL FREE ENERGY PREDICTED BY IDOCK:   -9.38 KCAL/MOL
REMARK 923 INTER-LIGAND FREE ENERGY PREDICTED BY IDOCK:   -8.76 KCAL/MOL
REMARK 924 INTRA-LIGAND FREE ENERGY PREDICTED BY IDOCK:   -0.62 KCAL/MOL
REMARK 927      BINDING AFFINITY PREDICTED BY RF-SCORE:    0.00 PKD
ROOT
HETATM    1 CL   UNL     1     -12.016   8.094  71.082  1.00  0.00    -0.302 Cl 
HETATM    2  C   UNL     1     -12.207   9.802  70.979  1.00  0.00    -0.347 A  
HETATM    3  C   UNL     1     -12.982  10.465  71.922  1.00  0.00    -0.555 A  
HETATM    4  C   UNL     1     -13.135  11.844  71.827  1.00  0.00    -0.465 A  
HETATM    5  C   UNL     1     -12.526  12.543  70.779  1.00  0.00    -0.357 A  
HETATM    6  C   UNL     1     -11.760  11.892  69.799  1.00  0.00    -0.331 A  
HETATM    7  C   UNL     1     -11.598  10.505  69.936  1.00  0.00    -0.384 A  
ENDROOT
BRANCH   6   8
HETATM    8  N   UNL     1     -11.271  12.587  68.708  1.00  0.00    -0.256 NA 
HETATM    9  C   UNL     1      -9.912  12.340  68.202  1.00  0.00    -0.210 C  
HETATM   10  C   UNL     1      -9.892  12.506  66.665  1.00  0.00    -0.241 C  
HETATM   11  N   UNL     1     -10.404  13.808  66.169  1.00  0.00    -0.294 NA 
HETATM   12  C   UNL     1     -11.889  13.847  68.260  1.00  0.00    -0.376 C  
HETATM   13  C   UNL     1     -11.776  13.980  66.719  1.00  0.00    -0.407 C  
BRANCH  11  14
HETATM   14  C   UNL     1      -9.547  14.945  66.540  1.00  0.00    -0.276 C  
BRANCH  14  15
HETATM   15  C   UNL     1     -10.061  16.283  66.005  1.00  0.00    -0.377 C  
BRANCH  15  16
HETATM   16  C   UNL     1     -10.299  17.270  67.144  1.00  0.00    -0.321 C  
BRANCH  16  17
HETATM   17  N   UNL     1      -9.129  18.080  67.383  1.00  0.00    -0.248 N  
HETATM   18  N   UNL     1      -8.324  17.910  68.493  1.00  0.00    -0.302 NA 
HETATM   19  C   UNL     1      -7.512  18.920  68.433  1.00  0.00    -0.300 A  
HETATM   20  C   UNL     1      -6.412  19.245  69.366  1.00  0.00    -0.346 A  
HETATM   21  C   UNL     1      -5.691  20.354  69.121  1.00  0.00    -0.349 A  
HETATM   22  C   UNL     1      -5.986  21.211  67.987  1.00  0.00    -0.393 A  
HETATM   23  C   UNL     1      -6.992  20.899  67.154  1.00  0.00    -0.364 A  
HETATM   24  N   UNL     1      -7.718  19.766  67.391  1.00  0.00    -0.263 N  
HETATM   25  C   UNL     1      -8.791  19.260  66.697  1.00  0.00    -0.334 C  
HETATM   26  O   UNL     1      -9.356  19.738  65.720  1.00  0.00    -0.365 OA 
ENDBRANCH  16  17
ENDBRANCH  15  16
ENDBRANCH  14  15
ENDBRANCH  11  14
ENDBRANCH   6   8
TORSDOF 5
ENDMDL
MODEL       10
REMARK 921   NORMALIZED FREE ENERGY PREDICTED BY IDOCK:   -6.76 KCAL/MOL
REMARK 922        TOTAL FREE ENERGY PREDICTED BY IDOCK:   -9.37 KCAL/MOL
REMARK 923 INTER-LIGAND FREE ENERGY PREDICTED BY IDOCK:   -8.63 KCAL/MOL
REMARK 924 INTRA-LIGAND FREE ENERGY PREDICTED BY IDOCK:   -0.75 KCAL/MOL
REMARK 927      BINDING AFFINITY PREDICTED BY RF-SCORE:    0.00 PKD
ROOT
HETATM    1 CL   UNL     1     -13.824   8.774  72.531  1.00  0.00    -0.452 Cl 
HETATM    2  C   UNL     1     -12.225   8.895  71.904  1.00  0.00    -0.374 A  
HETATM    3  C   UNL     1     -11.172   8.296  72.585  1.00  0.00    -0.410 A  
HETATM    4  C   UNL     1      -9.884   8.405  72.074  1.00  0.00    -0.354 A  
HETATM    5  C   UNL     1      -9.659   9.127  70.897  1.00  0.00    -0.347 A  
HETATM    6  C   UNL     1     -10.702   9.763  70.205  1.00  0.00    -0.289 A  
HETATM    7  C   UNL     1     -11.995   9.613  70.727  1.00  0.00    -0.356 A  
ENDROOT
BRANCH   6   8
HETATM    8  N   UNL     1     -10.436  10.570  69.113  1.00  0.00    -0.214 NA 
HETATM    9  C   UNL     1      -9.082  11.090  68.870  1.00  0.00    -0.123 C  
HETATM   10  C   UNL     1      -8.825  11.180  67.349  1.00  0.00    -0.139 C  
HETATM   11  N   UNL     1      -9.830  11.966  66.590  1.00  0.00    -0.198 NA 
HETATM   12  C   UNL     1     -11.515  11.264  68.391  1.00  0.00    -0.307 C  
HETATM   13  C   UNL     1     -11.164  11.378  66.884  1.00  0.00    -0.264 C  
BRANCH  11  14
HETATM   14  C   UNL     1      -9.808  13.401  66.918  1.00  0.00    -0.256 C  
BRANCH  14  15
HETATM   15  C   UNL     1     -11.137  14.102  66.628  1.00  0.00    -0.314 C  
BRANCH  15  16
HETATM   16  C   UNL     1     -11.208  15.450  67.340  1.00  0.00    -0.287 C  
BRANCH  16  17
HETATM   17  N   UNL     1     -11.510  15.282  68.741  1.00  0.00    -0.312 N  
HETATM   18  N   UNL     1     -12.405  14.334  69.199  1.00  0.00    -0.222 NA 
HETATM   19  C   UNL     1     -12.529  14.620  70.458  1.00  0.00    -0.347 A  
HETATM   20  C   UNL     1     -13.358  13.919  71.461  1.00  0.00    -0.406 A  
HETATM   21  C   UNL     1     -13.347  14.390  72.721  1.00  0.00    -0.606 A  
HETATM   22  C   UNL     1     -12.558  15.553  73.086  1.00  0.00    -0.582 A  
HETATM   23  C   UNL     1     -11.814  16.177  72.158  1.00  0.00    -0.536 A  
HETATM   24  N   UNL     1     -11.811  15.693  70.880  1.00  0.00    -0.351 N  
HETATM   25  C   UNL     1     -11.152  16.170  69.772  1.00  0.00    -0.350 C  
HETATM   26  O   UNL     1     -10.439  17.162  69.682  1.00  0.00    -0.232 OA 
ENDBRANCH  16  17
ENDBRANCH  15  16
ENDBRANCH  14  15
ENDBRANCH  11  14
ENDBRANCH   6   8
TORSDOF 5
ENDMDL
MODEL       11
REMARK 921   NORMALIZED FREE ENERGY PREDICTED BY IDOCK:   -6.75 KCAL/MOL
REMARK 922        TOTAL FREE ENERGY PREDICTED BY IDOCK:   -9.36 KCAL/MOL
REMARK 923 INTER-LIGAND FREE ENERGY PREDICTED BY IDOCK:   -8.72 KCAL/MOL
REMARK 924 INTRA-LIGAND FREE ENERGY PREDICTED BY IDOCK:   -0.63 KCAL/MOL
REMARK 927      BINDING AFFINITY PREDICTED BY RF-SCORE:    0.00 PKD
ROOT
HETATM    1 CL   UNL     1     -10.186   4.605  66.464  1.00  0.00    -0.280 Cl 
HETATM    2  C   UNL     1     -10.332   5.936  67.547  1.00  0.00    -0.215 A  
HETATM    3  C   UNL     1     -10.478   5.702  68.909  1.00  0.00    -0.310 A  
HETATM    4  C   UNL     1     -10.602   6.783  69.774  1.00  0.00    -0.263 A  
HETATM    5  C   UNL     1     -10.596   8.087  69.266  1.00  0.00    -0.193 A  
HETATM    6  C   UNL     1     -10.476   8.348  67.892  1.00  0.00    -0.193 A  
HETATM    7  C   UNL     1     -10.324   7.240  67.045  1.00  0.00    -0.376 A  
ENDROOT
BRANCH   6   8
HETATM    8  N   UNL     1     -10.596   9.638  67.405  1.00  0.00    -0.272 NA 
HETATM    9  C   UNL     1     -11.417  10.636  68.106  1.00  0.00    -0.228 C  
HETATM   10  C   UNL     1     -10.778  12.035  67.952  1.00  0.00    -0.210 C  
HETATM   11  N   UNL     1     -10.524  12.458  66.552  1.00  0.00    -0.228 NA 
HETATM   12  C   UNL     1     -10.263   9.965  66.008  1.00  0.00    -0.198 C  
HETATM   13  C   UNL     1      -9.689  11.403  65.918  1.00  0.00    -0.227 C  
BRANCH  11  14
HETATM   14  C   UNL     1     -11.760  12.677  65.783  1.00  0.00    -0.419 C  
BRANCH  14  15
HETATM   15  C   UNL     1     -11.940  14.131  65.340  1.00  0.00    -0.382 C  
BRANCH  15  16
HETATM   16  C   UNL     1     -10.589  14.819  65.168  1.00  0.00    -0.417 C  
BRANCH  16  17
HETATM   17  N   UNL     1     -10.554  16.079  65.870  1.00  0.00    -0.335 N  
HETATM   18  N   UNL     1     -10.503  17.293  65.212  1.00  0.00    -0.656 NA 
HETATM   19  C   UNL     1     -10.305  18.146  66.170  1.00  0.00    -0.385 A  
HETATM   20  C   UNL     1     -10.181  19.614  66.054  1.00  0.00    -0.587 A  
HETATM   21  C   UNL     1      -9.969  20.315  67.182  1.00  0.00    -0.593 A  
HETATM   22  C   UNL     1      -9.854  19.656  68.471  1.00  0.00    -0.519 A  
HETATM   23  C   UNL     1      -9.967  18.320  68.553  1.00  0.00    -0.393 A  
HETATM   24  N   UNL     1     -10.197  17.606  67.412  1.00  0.00    -0.332 N  
HETATM   25  C   UNL     1     -10.326  16.247  67.248  1.00  0.00    -0.285 C  
HETATM   26  O   UNL     1     -10.233  15.368  68.097  1.00  0.00    -0.226 OA 
ENDBRANCH  16  17
ENDBRANCH  15  16
ENDBRANCH  14  15
ENDBRANCH  11  14
ENDBRANCH   6   8
TORSDOF 5
ENDMDL
MODEL       12
REMARK 921   NORMALIZED FREE ENERGY PREDICTED BY IDOCK:   -6.73 KCAL/MOL
REMARK 922        TOTAL FREE ENERGY PREDICTED BY IDOCK:   -9.33 KCAL/MOL
REMARK 923 INTER-LIGAND FREE ENERGY PREDICTED BY IDOCK:   -8.72 KCAL/MOL
REMARK 924 INTRA-LIGAND FREE ENERGY PREDICTED BY IDOCK:   -0.61 KCAL/MOL
REMARK 927      BINDING AFFINITY PREDICTED BY RF-SCORE:    0.00 PKD
ROOT
HETATM    1 CL   UNL     1     -14.226  15.588  72.533  1.00  0.00    -0.601 Cl 
HETATM    2  C   UNL     1     -13.519  14.214  71.773  1.00  0.00    -0.390 A  
HETATM    3  C   UNL     1     -13.576  12.976  72.401  1.00  0.00    -0.628 A  
HETATM    4  C   UNL     1     -12.996  11.874  71.782  1.00  0.00    -0.455 A  
HETATM    5  C   UNL     1     -12.351  12.025  70.550  1.00  0.00    -0.369 A  
HETATM    6  C   UNL     1     -12.257  13.270  69.909  1.00  0.00    -0.246 A  
HETATM    7  C   UNL     1     -12.876  14.359  70.542  1.00  0.00    -0.353 A  
ENDROOT
BRANCH   6   8
HETATM    8  N   UNL     1     -11.510  13.415  68.753  1.00  0.00    -0.282 NA 
HETATM    9  C   UNL     1     -10.411  14.390  68.683  1.00  0.00    -0.247 C  
HETATM   10  C   UNL     1      -9.283  13.836  67.782  1.00  0.00    -0.206 C  
HETATM   11  N   UNL     1      -9.710  13.431  66.420  1.00  0.00    -0.277 NA 
HETATM   12  C   UNL     1     -12.002  12.926  67.454  1.00  0.00    -0.300 C  
HETATM   13  C   UNL     1     -10.815  12.448  66.578  1.00  0.00    -0.250 C  
BRANCH  11  14
HETATM   14  C   UNL     1     -10.139  14.568  65.588  1.00  0.00    -0.359 C  
BRANCH  14  15
HETATM   15  C   UNL     1      -9.228  15.789  65.726  1.00  0.00    -0.255 C  
BRANCH  15  16
HETATM   16  C   UNL     1     -10.026  17.017  66.155  1.00  0.00    -0.298 C  
BRANCH  16  17
HETATM   17  N   UNL     1      -9.158  18.045  66.676  1.00  0.00    -0.274 N  
HETATM   18  N   UNL     1      -8.505  18.949  65.860  1.00  0.00    -0.445 NA 
HETATM   19  C   UNL     1      -7.707  19.568  66.674  1.00  0.00    -0.270 A  
HETATM   20  C   UNL     1      -6.767  20.663  66.352  1.00  0.00    -0.303 A  
HETATM   21  C   UNL     1      -6.021  21.161  67.354  1.00  0.00    -0.397 A  
HETATM   22  C   UNL     1      -6.123  20.638  68.704  1.00  0.00    -0.371 A  
HETATM   23  C   UNL     1      -6.980  19.641  68.974  1.00  0.00    -0.355 A  
HETATM   24  N   UNL     1      -7.751  19.141  67.963  1.00  0.00    -0.275 N  
HETATM   25  C   UNL     1      -8.673  18.122  67.994  1.00  0.00    -0.269 C  
HETATM   26  O   UNL     1      -8.985  17.411  68.942  1.00  0.00    -0.250 OA 
ENDBRANCH  16  17
ENDBRANCH  15  16
ENDBRANCH  14  15
ENDBRANCH  11  14
ENDBRANCH   6   8
TORSDOF 5
ENDMDL
MODEL       13
REMARK 921   NORMALIZED FREE ENERGY PREDICTED BY IDOCK:   -6.72 KCAL/MOL
REMARK 922        TOTAL FREE ENERGY PREDICTED BY IDOCK:   -9.32 KCAL/MOL
REMARK 923 INTER-LIGAND FREE ENERGY PREDICTED BY IDOCK:   -8.55 KCAL/MOL
REMARK 924 INTRA-LIGAND FREE ENERGY PREDICTED BY IDOCK:   -0.77 KCAL/MOL
REMARK 927      BINDING AFFINITY PREDICTED BY RF-SCORE:    0.00 PKD
ROOT
HETATM    1 CL   UNL     1     -13.276  15.681  72.250  1.00  0.00    -0.524 Cl 
HETATM    2  C   UNL     1     -13.037  14.049  71.754  1.00  0.00    -0.370 A  
HETATM    3  C   UNL     1     -13.469  13.012  72.571  1.00  0.00    -0.522 A  
HETATM    4  C   UNL     1     -13.267  11.698  72.164  1.00  0.00    -0.327 A  
HETATM    5  C   UNL     1     -12.617  11.435  70.953  1.00  0.00    -0.453 A  
HETATM    6  C   UNL     1     -12.148  12.465  70.123  1.00  0.00    -0.290 A  
HETATM    7  C   UNL     1     -12.392  13.781  70.544  1.00  0.00    -0.429 A  
ENDROOT
BRANCH   6   8
HETATM    8  N   UNL     1     -11.404  12.178  68.993  1.00  0.00    -0.257 NA 
HETATM    9  C   UNL     1     -10.508  13.184  68.403  1.00  0.00    -0.253 C  
HETATM   10  C   UNL     1      -9.266  12.486  67.804  1.00  0.00    -0.198 C  
HETATM   11  N   UNL     1      -9.562  11.412  66.823  1.00  0.00    -0.185 NA 
HETATM   12  C   UNL     1     -11.750  11.050  68.112  1.00  0.00    -0.202 C  
HETATM   13  C   UNL     1     -10.465  10.439  67.495  1.00  0.00    -0.245 C  
BRANCH  11  14
HETATM   14  C   UNL     1     -10.171  11.917  65.581  1.00  0.00    -0.245 C  
BRANCH  14  15
HETATM   15  C   UNL     1      -9.540  13.222  65.092  1.00  0.00     0.185 C  
BRANCH  15  16
HETATM   16  C   UNL     1     -10.613  14.262  64.781  1.00  0.00    -0.412 C  
BRANCH  16  17
HETATM   17  N   UNL     1     -10.244  15.558  65.295  1.00  0.00    -0.362 N  
HETATM   18  N   UNL     1      -9.357  15.716  66.343  1.00  0.00    -0.273 NA 
HETATM   19  C   UNL     1      -9.433  16.983  66.613  1.00  0.00    -0.263 A  
HETATM   20  C   UNL     1      -8.683  17.727  67.647  1.00  0.00    -0.244 A  
HETATM   21  C   UNL     1      -8.921  19.046  67.764  1.00  0.00    -0.329 A  
HETATM   22  C   UNL     1      -9.887  19.718  66.914  1.00  0.00    -0.520 A  
HETATM   23  C   UNL     1     -10.560  19.022  65.983  1.00  0.00    -0.423 A  
HETATM   24  N   UNL     1     -10.311  17.685  65.850  1.00  0.00    -0.321 N  
HETATM   25  C   UNL     1     -10.883  16.775  64.994  1.00  0.00    -0.117 C  
HETATM   26  O   UNL     1     -11.772  16.962  64.172  1.00  0.00    -0.973 OA 
ENDBRANCH  16  17
ENDBRANCH  15  16
ENDBRANCH  14  15
ENDBRANCH  11  14
ENDBRANCH   6   8
TORSDOF 5
ENDMDL
MODEL       14
REMARK 921   NORMALIZED FREE ENERGY PREDICTED BY IDOCK:   -6.65 KCAL/MOL
REMARK 922        TOTAL FREE ENERGY PREDICTED BY IDOCK:   -9.23 KCAL/MOL
REMARK 923 INTER-LIGAND FREE ENERGY PREDICTED BY IDOCK:   -8.84 KCAL/MOL
REMARK 924 INTRA-LIGAND FREE ENERGY PREDICTED BY IDOCK:   -0.40 KCAL/MOL
REMARK 927      BINDING AFFINITY PREDICTED BY RF-SCORE:    0.00 PKD
ROOT
HETATM    1 CL   UNL     1     -13.859  13.646  72.583  1.00  0.00    -0.603 Cl 
HETATM    2  C   UNL     1     -13.029  12.731  71.383  1.00  0.00    -0.266 A  
HETATM    3  C   UNL     1     -12.842  11.366  71.566  1.00  0.00    -0.508 A  
HETATM    4  C   UNL     1     -12.165  10.638  70.595  1.00  0.00    -0.459 A  
HETATM    5  C   UNL     1     -11.666  11.285  69.459  1.00  0.00    -0.415 A  
HETATM    6  C   UNL     1     -11.819  12.666  69.264  1.00  0.00    -0.302 A  
HETATM    7  C   UNL     1     -12.531  13.371  70.246  1.00  0.00    -0.285 A  
ENDROOT
BRANCH   6   8
HETATM    8  N   UNL     1     -11.213  13.300  68.194  1.00  0.00    -0.256 NA 
HETATM    9  C   UNL     1      -9.755  13.235  68.006  1.00  0.00    -0.223 C  
HETATM   10  C   UNL     1      -9.427  13.216  66.496  1.00  0.00    -0.243 C  
HETATM   11  N   UNL     1     -10.005  14.338  65.714  1.00  0.00    -0.326 NA 
HETATM   12  C   UNL     1     -11.897  14.367  67.445  1.00  0.00    -0.400 C  
HETATM   13  C   UNL     1     -11.473  14.331  65.954  1.00  0.00    -0.335 C  
BRANCH  11  14
HETATM   14  C   UNL     1      -9.425  15.645  66.065  1.00  0.00    -0.355 C  
BRANCH  14  15
HETATM   15  C   UNL     1     -10.389  16.810  65.833  1.00  0.00    -0.341 C  
BRANCH  15  16
HETATM   16  C   UNL     1     -10.518  17.668  67.088  1.00  0.00    -0.319 C  
BRANCH  16  17
HETATM   17  N   UNL     1      -9.296  18.388  67.352  1.00  0.00    -0.270 N  
HETATM   18  N   UNL     1      -8.520  18.147  68.470  1.00  0.00    -0.305 NA 
HETATM   19  C   UNL     1      -7.637  19.097  68.434  1.00  0.00    -0.312 A  
HETATM   20  C   UNL     1      -6.529  19.329  69.385  1.00  0.00    -0.346 A  
HETATM   21  C   UNL     1      -5.727  20.387  69.164  1.00  0.00    -0.349 A  
HETATM   22  C   UNL     1      -5.944  21.277  68.038  1.00  0.00    -0.362 A  
HETATM   23  C   UNL     1      -6.959  21.049  67.188  1.00  0.00    -0.345 A  
HETATM   24  N   UNL     1      -7.767  19.968  67.400  1.00  0.00    -0.283 N  
HETATM   25  C   UNL     1      -8.865  19.550  66.686  1.00  0.00    -0.346 C  
HETATM   26  O   UNL     1      -9.380  20.078  65.709  1.00  0.00    -0.282 OA 
ENDBRANCH  16  17
ENDBRANCH  15  16
ENDBRANCH  14  15
ENDBRANCH  11  14
ENDBRANCH   6   8
TORSDOF 5
ENDMDL
MODEL       15
REMARK 921   NORMALIZED FREE ENERGY PREDICTED BY IDOCK:   -6.65 KCAL/MOL
REMARK 922        TOTAL FREE ENERGY PREDICTED BY IDOCK:   -9.23 KCAL/MOL
REMARK 923 INTER-LIGAND FREE ENERGY PREDICTED BY IDOCK:   -8.42 KCAL/MOL
REMARK 924 INTRA-LIGAND FREE ENERGY PREDICTED BY IDOCK:   -0.81 KCAL/MOL
REMARK 927      BINDING AFFINITY PREDICTED BY RF-SCORE:    0.00 PKD
ROOT
HETATM    1 CL   UNL     1     -11.866  17.309  73.902  1.00  0.00    -0.017 Cl 
HETATM    2  C   UNL     1     -12.280  16.001  72.861  1.00  0.00    -0.517 A  
HETATM    3  C   UNL     1     -13.091  14.977  73.334  1.00  0.00    -0.548 A  
HETATM    4  C   UNL     1     -13.415  13.922  72.488  1.00  0.00    -0.676 A  
HETATM    5  C   UNL     1     -12.908  13.893  71.183  1.00  0.00    -0.423 A  
HETATM    6  C   UNL     1     -12.066  14.903  70.692  1.00  0.00    -0.307 A  
HETATM    7  C   UNL     1     -11.779  15.969  71.557  1.00  0.00    -0.554 A  
ENDROOT
BRANCH   6   8
HETATM    8  N   UNL     1     -11.482  14.789  69.443  1.00  0.00    -0.283 NA 
HETATM    9  C   UNL     1     -12.141  14.032  68.368  1.00  0.00    -0.283 C  
HETATM   10  C   UNL     1     -11.840  14.696  67.005  1.00  0.00    -0.337 C  
HETATM   11  N   UNL     1     -10.398  14.883  66.704  1.00  0.00    -0.278 NA 
HETATM   12  C   UNL     1     -10.048  15.053  69.238  1.00  0.00    -0.233 C  
HETATM   13  C   UNL     1      -9.810  15.657  67.830  1.00  0.00    -0.220 C  
BRANCH  11  14
HETATM   14  C   UNL     1      -9.679  13.614  66.511  1.00  0.00    -0.292 C  
BRANCH  14  15
HETATM   15  C   UNL     1     -10.524  12.546  65.812  1.00  0.00    -0.296 C  
BRANCH  15  16
HETATM   16  C   UNL     1      -9.958  11.152  66.066  1.00  0.00    -0.236 C  
BRANCH  16  17
HETATM   17  N   UNL     1     -10.376  10.647  67.351  1.00  0.00    -0.207 N  
HETATM   18  N   UNL     1     -11.599  10.964  67.910  1.00  0.00    -0.549 NA 
HETATM   19  C   UNL     1     -11.517  10.476  69.110  1.00  0.00    -0.247 A  
HETATM   20  C   UNL     1     -12.552  10.507  70.165  1.00  0.00    -0.246 A  
HETATM   21  C   UNL     1     -12.254   9.944  71.350  1.00  0.00    -0.499 A  
HETATM   22  C   UNL     1     -10.958   9.335  71.592  1.00  0.00    -0.433 A  
HETATM   23  C   UNL     1     -10.031   9.321  70.621  1.00  0.00    -0.273 A  
HETATM   24  N   UNL     1     -10.335   9.879  69.411  1.00  0.00    -0.206 N  
HETATM   25  C   UNL     1      -9.551   9.999  68.288  1.00  0.00    -0.140 C  
HETATM   26  O   UNL     1      -8.385   9.653  68.136  1.00  0.00    -0.116 OA 
ENDBRANCH  16  17
ENDBRANCH  15  16
ENDBRANCH  14  15
ENDBRANCH  11  14
ENDBRANCH   6   8
TORSDOF 5
ENDMDL
MODEL       16
REMARK 921   NORMALIZED FREE ENERGY PREDICTED BY IDOCK:   -6.64 KCAL/MOL
REMARK 922        TOTAL FREE ENERGY PREDICTED BY IDOCK:   -9.22 KCAL/MOL
REMARK 923 INTER-LIGAND FREE ENERGY PREDICTED BY IDOCK:   -8.67 KCAL/MOL
REMARK 924 INTRA-LIGAND FREE ENERGY PREDICTED BY IDOCK:   -0.55 KCAL/MOL
REMARK 927      BINDING AFFINITY PREDICTED BY RF-SCORE:    0.00 PKD
ROOT
HETATM    1 CL   UNL     1      -7.533  19.477  68.984  1.00  0.00    -0.403 Cl 
HETATM    2  C   UNL     1      -8.759  19.182  67.810  1.00  0.00    -0.301 A  
HETATM    3  C   UNL     1      -9.396  20.253  67.197  1.00  0.00    -0.536 A  
HETATM    4  C   UNL     1     -10.388  20.004  66.255  1.00  0.00    -0.570 A  
HETATM    5  C   UNL     1     -10.745  18.686  65.950  1.00  0.00    -0.274 A  
HETATM    6  C   UNL     1     -10.134  17.588  66.575  1.00  0.00    -0.331 A  
HETATM    7  C   UNL     1      -9.116  17.868  67.499  1.00  0.00    -0.245 A  
ENDROOT
BRANCH   6   8
HETATM    8  N   UNL     1     -10.588  16.302  66.345  1.00  0.00    -0.288 NA 
HETATM    9  C   UNL     1     -10.829  15.375  67.461  1.00  0.00    -0.305 C  
HETATM   10  C   UNL     1     -12.026  14.456  67.125  1.00  0.00    -0.389 C  
HETATM   11  N   UNL     1     -11.907  13.713  65.846  1.00  0.00    -0.359 NA 
HETATM   12  C   UNL     1     -10.473  15.672  65.018  1.00  0.00    -0.333 C  
HETATM   13  C   UNL     1     -11.670  14.716  64.774  1.00  0.00    -0.428 C  
BRANCH  11  14
HETATM   14  C   UNL     1     -10.834  12.705  65.863  1.00  0.00    -0.270 C  
BRANCH  14  15
HETATM   15  C   UNL     1     -11.157  11.501  66.749  1.00  0.00    -0.361 C  
BRANCH  15  16
HETATM   16  C   UNL     1     -10.153  11.380  67.892  1.00  0.00    -0.183 C  
BRANCH  16  17
HETATM   17  N   UNL     1     -10.683  10.578  68.967  1.00  0.00    -0.209 N  
HETATM   18  N   UNL     1     -11.889  10.861  69.579  1.00  0.00    -0.312 NA 
HETATM   19  C   UNL     1     -11.917  10.040  70.584  1.00  0.00    -0.313 A  
HETATM   20  C   UNL     1     -12.991   9.886  71.588  1.00  0.00    -0.536 A  
HETATM   21  C   UNL     1     -12.811   8.973  72.560  1.00  0.00    -0.408 A  
HETATM   22  C   UNL     1     -11.602   8.173  72.631  1.00  0.00    -0.441 A  
HETATM   23  C   UNL     1     -10.637   8.331  71.710  1.00  0.00    -0.259 A  
HETATM   24  N   UNL     1     -10.821   9.247  70.713  1.00  0.00    -0.258 N  
HETATM   25  C   UNL     1      -9.978   9.594  69.684  1.00  0.00    -0.221 C  
HETATM   26  O   UNL     1      -8.851   9.173  69.453  1.00  0.00    -0.137 OA 
ENDBRANCH  16  17
ENDBRANCH  15  16
ENDBRANCH  14  15
ENDBRANCH  11  14
ENDBRANCH   6   8
TORSDOF 5
ENDMDL
MODEL       17
REMARK 921   NORMALIZED FREE ENERGY PREDICTED BY IDOCK:   -6.64 KCAL/MOL
REMARK 922        TOTAL FREE ENERGY PREDICTED BY IDOCK:   -9.21 KCAL/MOL
REMARK 923 INTER-LIGAND FREE ENERGY PREDICTED BY IDOCK:   -8.59 KCAL/MOL
REMARK 924 INTRA-LIGAND FREE ENERGY PREDICTED BY IDOCK:   -0.62 KCAL/MOL
REMARK 927      BINDING AFFINITY PREDICTED BY RF-SCORE:    0.00 PKD
ROOT
HETATM    1 CL   UNL     1     -10.109   6.565  71.835  1.00  0.00    -0.197 Cl 
HETATM    2  C   UNL     1     -10.322   6.742  70.135  1.00  0.00    -0.202 A  
HETATM    3  C   UNL     1     -10.324   5.616  69.321  1.00  0.00    -0.340 A  
HETATM    4  C   UNL     1     -10.490   5.770  67.949  1.00  0.00    -0.290 A  
HETATM    5  C   UNL     1     -10.635   7.050  67.404  1.00  0.00    -0.372 A  
HETATM    6  C   UNL     1     -10.610   8.205  68.202  1.00  0.00    -0.110 A  
HETATM    7  C   UNL     1     -10.470   8.018  69.585  1.00  0.00    -0.224 A  
ENDROOT
BRANCH   6   8
HETATM    8  N   UNL     1     -10.634   9.462  67.625  1.00  0.00    -0.274 NA 
HETATM    9  C   UNL     1     -11.405  10.557  68.233  1.00  0.00    -0.264 C  
HETATM   10  C   UNL     1     -10.673  11.899  68.003  1.00  0.00    -0.209 C  
HETATM   11  N   UNL     1     -10.358  12.206  66.586  1.00  0.00    -0.206 NA 
HETATM   12  C   UNL     1     -10.246   9.670  66.220  1.00  0.00    -0.216 C  
HETATM   13  C   UNL     1      -9.577  11.059  66.049  1.00  0.00    -0.215 C  
BRANCH  11  14
HETATM   14  C   UNL     1     -11.557  12.449  65.767  1.00  0.00    -0.398 C  
BRANCH  14  15
HETATM   15  C   UNL     1     -11.893  13.935  65.623  1.00  0.00    -0.383 C  
BRANCH  15  16
HETATM   16  C   UNL     1     -10.660  14.735  65.216  1.00  0.00    -0.395 C  
BRANCH  16  17
HETATM   17  N   UNL     1     -10.600  15.992  65.922  1.00  0.00    -0.335 N  
HETATM   18  N   UNL     1     -10.621  17.211  65.269  1.00  0.00    -0.662 NA 
HETATM   19  C   UNL     1     -10.372  18.063  66.216  1.00  0.00    -0.382 A  
HETATM   20  C   UNL     1     -10.287  19.534  66.100  1.00  0.00    -0.614 A  
HETATM   21  C   UNL     1     -10.008  20.234  67.214  1.00  0.00    -0.580 A  
HETATM   22  C   UNL     1      -9.786  19.571  68.487  1.00  0.00    -0.518 A  
HETATM   23  C   UNL     1      -9.865  18.233  68.569  1.00  0.00    -0.381 A  
HETATM   24  N   UNL     1     -10.163  17.519  67.443  1.00  0.00    -0.325 N  
HETATM   25  C   UNL     1     -10.276  16.159  67.281  1.00  0.00    -0.277 C  
HETATM   26  O   UNL     1     -10.104  15.279  68.115  1.00  0.00    -0.225 OA 
ENDBRANCH  16  17
ENDBRANCH  15  16
ENDBRANCH  14  15
ENDBRANCH  11  14
ENDBRANCH   6   8
TORSDOF 5
ENDMDL
MODEL       18
REMARK 921   NORMALIZED FREE ENERGY PREDICTED BY IDOCK:   -6.61 KCAL/MOL
REMARK 922        TOTAL FREE ENERGY PREDICTED BY IDOCK:   -9.18 KCAL/MOL
REMARK 923 INTER-LIGAND FREE ENERGY PREDICTED BY IDOCK:   -8.57 KCAL/MOL
REMARK 924 INTRA-LIGAND FREE ENERGY PREDICTED BY IDOCK:   -0.60 KCAL/MOL
REMARK 927      BINDING AFFINITY PREDICTED BY RF-SCORE:    0.00 PKD
ROOT
HETATM    1 CL   UNL     1      -6.431  19.044  66.004  1.00  0.00    -0.224 Cl 
HETATM    2  C   UNL     1      -8.086  18.679  66.315  1.00  0.00    -0.244 A  
HETATM    3  C   UNL     1      -8.936  19.679  66.770  1.00  0.00    -0.415 A  
HETATM    4  C   UNL     1     -10.268  19.373  67.025  1.00  0.00    -0.514 A  
HETATM    5  C   UNL     1     -10.732  18.066  66.838  1.00  0.00    -0.214 A  
HETATM    6  C   UNL     1      -9.886  17.033  66.403  1.00  0.00    -0.299 A  
HETATM    7  C   UNL     1      -8.554  17.377  66.127  1.00  0.00    -0.191 A  
ENDROOT
BRANCH   6   8
HETATM    8  N   UNL     1     -10.339  15.728  66.343  1.00  0.00    -0.289 NA 
HETATM    9  C   UNL     1     -11.419  15.262  67.227  1.00  0.00    -0.224 C  
HETATM   10  C   UNL     1     -12.281  14.215  66.485  1.00  0.00    -0.433 C  
HETATM   11  N   UNL     1     -11.528  13.063  65.930  1.00  0.00    -0.323 NA 
HETATM   12  C   UNL     1      -9.536  14.664  65.716  1.00  0.00    -0.231 C  
HETATM   13  C   UNL     1     -10.464  13.616  65.049  1.00  0.00    -0.391 C  
BRANCH  11  14
HETATM   14  C   UNL     1     -10.948  12.197  66.969  1.00  0.00    -0.271 C  
BRANCH  14  15
HETATM   15  C   UNL     1     -12.005  11.506  67.832  1.00  0.00    -0.145 C  
BRANCH  15  16
HETATM   16  C   UNL     1     -11.511  11.335  69.266  1.00  0.00    -0.301 C  
BRANCH  16  17
HETATM   17  N   UNL     1     -11.938  12.435  70.096  1.00  0.00    -0.339 N  
HETATM   18  N   UNL     1     -11.416  13.708  69.968  1.00  0.00    -0.154 NA 
HETATM   19  C   UNL     1     -11.912  14.340  70.987  1.00  0.00    -0.303 A  
HETATM   20  C   UNL     1     -11.705  15.758  71.352  1.00  0.00    -0.508 A  
HETATM   21  C   UNL     1     -12.312  16.213  72.462  1.00  0.00    -0.564 A  
HETATM   22  C   UNL     1     -13.136  15.344  73.283  1.00  0.00    -0.642 A  
HETATM   23  C   UNL     1     -13.308  14.058  72.935  1.00  0.00    -0.381 A  
HETATM   24  N   UNL     1     -12.705  13.595  71.800  1.00  0.00    -0.300 N  
HETATM   25  C   UNL     1     -12.721  12.331  71.261  1.00  0.00    -0.251 C  
HETATM   26  O   UNL     1     -13.262  11.325  71.703  1.00  0.00    -0.419 OA 
ENDBRANCH  16  17
ENDBRANCH  15  16
ENDBRANCH  14  15
ENDBRANCH  11  14
ENDBRANCH   6   8
TORSDOF 5
ENDMDL
MODEL       19
REMARK 921   NORMALIZED FREE ENERGY PREDICTED BY IDOCK:   -6.59 KCAL/MOL
REMARK 922        TOTAL FREE ENERGY PREDICTED BY IDOCK:   -9.16 KCAL/MOL
REMARK 923 INTER-LIGAND FREE ENERGY PREDICTED BY IDOCK:   -8.40 KCAL/MOL
REMARK 924 INTRA-LIGAND FREE ENERGY PREDICTED BY IDOCK:   -0.75 KCAL/MOL
REMARK 927      BINDING AFFINITY PREDICTED BY RF-SCORE:    0.00 PKD
ROOT
HETATM    1 CL   UNL     1     -14.012  13.250  72.473  1.00  0.00    -0.602 Cl 
HETATM    2  C   UNL     1     -12.901  14.269  71.640  1.00  0.00    -0.348 A  
HETATM    3  C   UNL     1     -12.561  15.502  72.181  1.00  0.00    -0.479 A  
HETATM    4  C   UNL     1     -11.668  16.320  71.497  1.00  0.00    -0.467 A  
HETATM    5  C   UNL     1     -11.140  15.903  70.270  1.00  0.00    -0.381 A  
HETATM    6  C   UNL     1     -11.489  14.674  69.691  1.00  0.00    -0.289 A  
HETATM    7  C   UNL     1     -12.369  13.856  70.416  1.00  0.00    -0.433 A  
ENDROOT
BRANCH   6   8
HETATM    8  N   UNL     1     -11.048  14.340  68.422  1.00  0.00    -0.246 NA 
HETATM    9  C   UNL     1     -11.957  14.399  67.268  1.00  0.00    -0.377 C  
HETATM   10  C   UNL     1     -11.169  14.826  66.008  1.00  0.00    -0.341 C  
HETATM   11  N   UNL     1      -9.983  13.989  65.697  1.00  0.00    -0.307 NA 
HETATM   12  C   UNL     1      -9.822  13.551  68.219  1.00  0.00    -0.233 C  
HETATM   13  C   UNL     1      -9.118  13.985  66.907  1.00  0.00    -0.248 C  
BRANCH  11  14
HETATM   14  C   UNL     1     -10.334  12.615  65.301  1.00  0.00    -0.289 C  
BRANCH  14  15
HETATM   15  C   UNL     1      -9.335  11.573  65.808  1.00  0.00    -0.238 C  
BRANCH  15  16
HETATM   16  C   UNL     1     -10.035  10.251  66.111  1.00  0.00    -0.238 C  
BRANCH  16  17
HETATM   17  N   UNL     1     -10.187  10.058  67.533  1.00  0.00    -0.198 N  
HETATM   18  N   UNL     1      -9.369   9.211  68.258  1.00  0.00    -0.135 NA 
HETATM   19  C   UNL     1      -9.931   9.178  69.426  1.00  0.00    -0.191 A  
HETATM   20  C   UNL     1      -9.477   8.435  70.621  1.00  0.00    -0.191 A  
HETATM   21  C   UNL     1     -10.218   8.535  71.739  1.00  0.00    -0.352 A  
HETATM   22  C   UNL     1     -11.430   9.334  71.773  1.00  0.00    -0.448 A  
HETATM   23  C   UNL     1     -11.826   9.999  70.676  1.00  0.00    -0.325 A  
HETATM   24  N   UNL     1     -11.069   9.912  69.542  1.00  0.00    -0.233 N  
HETATM   25  C   UNL     1     -11.282  10.480  68.308  1.00  0.00    -0.291 C  
HETATM   26  O   UNL     1     -12.225  11.172  67.945  1.00  0.00    -0.521 OA 
ENDBRANCH  16  17
ENDBRANCH  15  16
ENDBRANCH  14  15
ENDBRANCH  11  14
ENDBRANCH   6   8
TORSDOF 5
ENDMDL
MODEL       20
REMARK 921   NORMALIZED FREE ENERGY PREDICTED BY IDOCK:   -6.59 KCAL/MOL
REMARK 922        TOTAL FREE ENERGY PREDICTED BY IDOCK:   -9.14 KCAL/MOL
REMARK 923 INTER-LIGAND FREE ENERGY PREDICTED BY IDOCK:   -8.63 KCAL/MOL
REMARK 924 INTRA-LIGAND FREE ENERGY PREDICTED BY IDOCK:   -0.51 KCAL/MOL
REMARK 927      BINDING AFFINITY PREDICTED BY RF-SCORE:    0.00 PKD
ROOT
HETATM    1 CL   UNL     1     -10.808   7.260  70.162  1.00  0.00    -0.266 Cl 
HETATM    2  C   UNL     1     -11.628   8.664  70.731  1.00  0.00    -0.242 A  
HETATM    3  C   UNL     1     -12.568   8.547  71.746  1.00  0.00    -0.387 A  
HETATM    4  C   UNL     1     -13.229   9.685  72.194  1.00  0.00    -0.535 A  
HETATM    5  C   UNL     1     -12.955  10.926  71.609  1.00  0.00    -0.569 A  
HETATM    6  C   UNL     1     -12.028  11.066  70.564  1.00  0.00    -0.379 A  
HETATM    7  C   UNL     1     -11.356   9.906  70.152  1.00  0.00    -0.335 A  
ENDROOT
BRANCH   6   8
HETATM    8  N   UNL     1     -11.865  12.281  69.923  1.00  0.00    -0.331 NA 
HETATM    9  C   UNL     1     -11.125  12.372  68.655  1.00  0.00    -0.257 C  
HETATM   10  C   UNL     1     -11.752  13.471  67.766  1.00  0.00    -0.359 C  
HETATM   11  N   UNL     1     -11.861  14.806  68.404  1.00  0.00    -0.309 NA 
HETATM   12  C   UNL     1     -12.053  13.557  70.635  1.00  0.00    -0.309 C  
HETATM   13  C   UNL     1     -12.622  14.629  69.670  1.00  0.00    -0.068 C  
BRANCH  11  14
HETATM   14  C   UNL     1     -10.554  15.431  68.663  1.00  0.00    -0.239 C  
BRANCH  14  15
HETATM   15  C   UNL     1     -10.652  16.932  68.943  1.00  0.00    -0.353 C  
BRANCH  15  16
HETATM   16  C   UNL     1     -10.413  17.740  67.671  1.00  0.00    -0.388 C  
BRANCH  16  17
HETATM   17  N   UNL     1      -9.167  18.464  67.742  1.00  0.00    -0.274 N  
HETATM   18  N   UNL     1      -8.394  18.500  68.887  1.00  0.00    -0.228 NA 
HETATM   19  C   UNL     1      -7.481  19.377  68.605  1.00  0.00    -0.350 A  
HETATM   20  C   UNL     1      -6.361  19.816  69.466  1.00  0.00    -0.372 A  
HETATM   21  C   UNL     1      -5.527  20.751  68.977  1.00  0.00    -0.398 A  
HETATM   22  C   UNL     1      -5.721  21.321  67.656  1.00  0.00    -0.414 A  
HETATM   23  C   UNL     1      -6.746  20.911  66.892  1.00  0.00    -0.316 A  
HETATM   24  N   UNL     1      -7.588  19.951  67.378  1.00  0.00    -0.263 N  
HETATM   25  C   UNL     1      -8.702  19.395  66.795  1.00  0.00    -0.319 C  
HETATM   26  O   UNL     1      -9.205  19.665  65.711  1.00  0.00    -0.376 OA 
ENDBRANCH  16  17
ENDBRANCH  15  16
ENDBRANCH  14  15
ENDBRANCH  11  14
ENDBRANCH   6   8
TORSDOF 5
ENDMDL
MODEL       21
REMARK 921   NORMALIZED FREE ENERGY PREDICTED BY IDOCK:   -6.57 KCAL/MOL
REMARK 922        TOTAL FREE ENERGY PREDICTED BY IDOCK:   -9.12 KCAL/MOL
REMARK 923 INTER-LIGAND FREE ENERGY PREDICTED BY IDOCK:   -8.16 KCAL/MOL
REMARK 924 INTRA-LIGAND FREE ENERGY PREDICTED BY IDOCK:   -0.96 KCAL/MOL
REMARK 927      BINDING AFFINITY PREDICTED BY RF-SCORE:    0.00 PKD
ROOT
HETATM    1 CL   UNL     1     -13.514  12.730  72.211  1.00  0.00    -0.656 Cl 
HETATM    2  C   UNL     1     -12.692  13.941  71.303  1.00  0.00    -0.367 A  
HETATM    3  C   UNL     1     -12.338  15.137  71.915  1.00  0.00    -0.423 A  
HETATM    4  C   UNL     1     -11.681  16.111  71.172  1.00  0.00    -0.454 A  
HETATM    5  C   UNL     1     -11.400  15.885  69.819  1.00  0.00    -0.347 A  
HETATM    6  C   UNL     1     -11.771  14.696  69.173  1.00  0.00    -0.309 A  
HETATM    7  C   UNL     1     -12.407  13.719  69.954  1.00  0.00    -0.334 A  
ENDROOT
BRANCH   6   8
HETATM    8  N   UNL     1     -11.591  14.548  67.809  1.00  0.00    -0.348 NA 
HETATM    9  C   UNL     1     -12.280  13.481  67.068  1.00  0.00    -0.303 C  
HETATM   10  C   UNL     1     -12.628  13.978  65.646  1.00  0.00    -0.512 C  
HETATM   11  N   UNL     1     -11.479  14.497  64.864  1.00  0.00    -0.377 NA 
HETATM   12  C   UNL     1     -10.441  15.153  67.116  1.00  0.00    -0.280 C  
HETATM   13  C   UNL     1     -10.841  15.569  65.676  1.00  0.00    -0.346 C  
BRANCH  11  14
HETATM   14  C   UNL     1     -10.499  13.455  64.516  1.00  0.00    -0.413 C  
BRANCH  14  15
HETATM   15  C   UNL     1     -11.152  12.144  64.073  1.00  0.00    -0.449 C  
BRANCH  15  16
HETATM   16  C   UNL     1     -10.167  10.983  64.177  1.00  0.00    -0.357 C  
BRANCH  16  17
HETATM   17  N   UNL     1      -9.970  10.589  65.551  1.00  0.00    -0.262 N  
HETATM   18  N   UNL     1     -11.014  10.488  66.450  1.00  0.00    -0.033 NA 
HETATM   19  C   UNL     1     -10.416  10.293  67.585  1.00  0.00    -0.239 A  
HETATM   20  C   UNL     1     -11.044  10.096  68.909  1.00  0.00    -0.251 A  
HETATM   21  C   UNL     1     -10.231   9.917  69.965  1.00  0.00    -0.319 A  
HETATM   22  C   UNL     1      -8.787   9.926  69.818  1.00  0.00    -0.229 A  
HETATM   23  C   UNL     1      -8.238  10.110  68.607  1.00  0.00    -0.111 A  
HETATM   24  N   UNL     1      -9.059  10.278  67.528  1.00  0.00    -0.137 N  
HETATM   25  C   UNL     1      -8.731  10.499  66.211  1.00  0.00    -0.151 C  
HETATM   26  O   UNL     1      -7.617  10.624  65.718  1.00  0.00    -0.149 OA 
ENDBRANCH  16  17
ENDBRANCH  15  16
ENDBRANCH  14  15
ENDBRANCH  11  14
ENDBRANCH   6   8
TORSDOF 5
ENDMDL
MODEL       22
REMARK 921   NORMALIZED FREE ENERGY PREDICTED BY IDOCK:   -6.57 KCAL/MOL
REMARK 922        TOTAL FREE ENERGY PREDICTED BY IDOCK:   -9.12 KCAL/MOL
REMARK 923 INTER-LIGAND FREE ENERGY PREDICTED BY IDOCK:   -8.59 KCAL/MOL
REMARK 924 INTRA-LIGAND FREE ENERGY PREDICTED BY IDOCK:   -0.53 KCAL/MOL
REMARK 927      BINDING AFFINITY PREDICTED BY RF-SCORE:    0.00 PKD
ROOT
HETATM    1 CL   UNL     1      -7.150  19.999  65.508  1.00  0.00    -0.338 Cl 
HETATM    2  C   UNL     1      -8.540  19.404  66.333  1.00  0.00    -0.354 A  
HETATM    3  C   UNL     1      -9.285  20.263  67.131  1.00  0.00    -0.519 A  
HETATM    4  C   UNL     1     -10.402  19.772  67.798  1.00  0.00    -0.573 A  
HETATM    5  C   UNL     1     -10.751  18.422  67.674  1.00  0.00    -0.390 A  
HETATM    6  C   UNL     1      -9.999  17.529  66.895  1.00  0.00    -0.313 A  
HETATM    7  C   UNL     1      -8.894  18.058  66.211  1.00  0.00    -0.194 A  
ENDROOT
BRANCH   6   8
HETATM    8  N   UNL     1     -10.294  16.178  66.887  1.00  0.00    -0.293 NA 
HETATM    9  C   UNL     1     -11.229  15.604  67.866  1.00  0.00    -0.328 C  
HETATM   10  C   UNL     1     -12.019  14.446  67.213  1.00  0.00    -0.377 C  
HETATM   11  N   UNL     1     -11.182  13.382  66.604  1.00  0.00    -0.302 NA 
HETATM   12  C   UNL     1      -9.425  15.206  66.203  1.00  0.00    -0.319 C  
HETATM   13  C   UNL     1     -10.272  14.041  65.629  1.00  0.00    -0.334 C  
BRANCH  11  14
HETATM   14  C   UNL     1     -10.414  12.613  67.596  1.00  0.00    -0.219 C  
BRANCH  14  15
HETATM   15  C   UNL     1     -10.959  11.199  67.810  1.00  0.00    -0.315 C  
BRANCH  15  16
HETATM   16  C   UNL     1     -11.908  11.156  69.004  1.00  0.00    -0.348 C  
BRANCH  16  17
HETATM   17  N   UNL     1     -11.373  10.339  70.065  1.00  0.00    -0.281 N  
HETATM   18  N   UNL     1     -10.049   9.942  70.100  1.00  0.00    -0.262 NA 
HETATM   19  C   UNL     1     -10.015   9.096  71.083  1.00  0.00    -0.307 A  
HETATM   20  C   UNL     1      -8.839   8.358  71.592  1.00  0.00    -0.246 A  
HETATM   21  C   UNL     1      -9.028   7.518  72.625  1.00  0.00    -0.188 A  
HETATM   22  C   UNL     1     -10.340   7.330  73.216  1.00  0.00    -0.389 A  
HETATM   23  C   UNL     1     -11.395   8.008  72.737  1.00  0.00    -0.374 A  
HETATM   24  N   UNL     1     -11.206   8.874  71.697  1.00  0.00    -0.319 N  
HETATM   25  C   UNL     1     -12.126   9.652  71.035  1.00  0.00    -0.337 C  
HETATM   26  O   UNL     1     -13.336   9.716  71.217  1.00  0.00    -0.373 OA 
ENDBRANCH  16  17
ENDBRANCH  15  16
ENDBRANCH  14  15
ENDBRANCH  11  14
ENDBRANCH   6   8
TORSDOF 5
ENDMDL
MODEL       23
REMARK 921   NORMALIZED FREE ENERGY PREDICTED BY IDOCK:   -6.56 KCAL/MOL
REMARK 922        TOTAL FREE ENERGY PREDICTED BY IDOCK:   -9.11 KCAL/MOL
REMARK 923 INTER-LIGAND FREE ENERGY PREDICTED BY IDOCK:   -8.55 KCAL/MOL
REMARK 924 INTRA-LIGAND FREE ENERGY PREDICTED BY IDOCK:   -0.56 KCAL/MOL
REMARK 927      BINDING AFFINITY PREDICTED BY RF-SCORE:    0.00 PKD
ROOT
HETATM    1 CL   UNL     1     -10.723   7.172  70.885  1.00  0.00    -0.245 Cl 
HETATM    2  C   UNL     1     -11.461   8.728  70.940  1.00  0.00    -0.284 A  
HETATM    3  C   UNL     1     -12.443   8.990  71.887  1.00  0.00    -0.454 A  
HETATM    4  C   UNL     1     -13.037  10.247  71.919  1.00  0.00    -0.568 A  
HETATM    5  C   UNL     1     -12.655  11.222  70.992  1.00  0.00    -0.495 A  
HETATM    6  C   UNL     1     -11.684  10.973  70.009  1.00  0.00    -0.355 A  
HETATM    7  C   UNL     1     -11.082   9.706  70.018  1.00  0.00    -0.293 A  
ENDROOT
BRANCH   6   8
HETATM    8  N   UNL     1     -11.414  11.912  69.030  1.00  0.00    -0.271 NA 
HETATM    9  C   UNL     1     -10.609  11.562  67.850  1.00  0.00    -0.191 C  
HETATM   10  C   UNL     1     -11.120  12.348  66.620  1.00  0.00    -0.289 C  
HETATM   11  N   UNL     1     -11.175  13.820  66.796  1.00  0.00    -0.309 NA 
HETATM   12  C   UNL     1     -11.554  13.355  69.290  1.00  0.00    -0.310 C  
HETATM   13  C   UNL     1     -12.005  14.090  68.001  1.00  0.00    -0.350 C  
BRANCH  11  14
HETATM   14  C   UNL     1      -9.845  14.435  66.932  1.00  0.00    -0.261 C  
BRANCH  14  15
HETATM   15  C   UNL     1      -9.584  15.534  65.899  1.00  0.00    -0.383 C  
BRANCH  15  16
HETATM   16  C   UNL     1     -10.380  16.792  66.230  1.00  0.00    -0.310 C  
BRANCH  16  17
HETATM   17  N   UNL     1      -9.524  17.823  66.767  1.00  0.00    -0.276 N  
HETATM   18  N   UNL     1      -8.909  18.767  65.966  1.00  0.00    -0.472 NA 
HETATM   19  C   UNL     1      -8.108  19.378  66.784  1.00  0.00    -0.284 A  
HETATM   20  C   UNL     1      -7.200  20.504  66.478  1.00  0.00    -0.279 A  
HETATM   21  C   UNL     1      -6.444  20.987  67.480  1.00  0.00    -0.420 A  
HETATM   22  C   UNL     1      -6.506  20.419  68.815  1.00  0.00    -0.309 A  
HETATM   23  C   UNL     1      -7.335  19.395  69.070  1.00  0.00    -0.360 A  
HETATM   24  N   UNL     1      -8.116  18.910  68.059  1.00  0.00    -0.283 N  
HETATM   25  C   UNL     1      -9.014  17.869  68.077  1.00  0.00    -0.267 C  
HETATM   26  O   UNL     1      -9.291  17.122  69.007  1.00  0.00    -0.237 OA 
ENDBRANCH  16  17
ENDBRANCH  15  16
ENDBRANCH  14  15
ENDBRANCH  11  14
ENDBRANCH   6   8
TORSDOF 5
ENDMDL
MODEL       24
REMARK 921   NORMALIZED FREE ENERGY PREDICTED BY IDOCK:   -6.51 KCAL/MOL
REMARK 922        TOTAL FREE ENERGY PREDICTED BY IDOCK:   -9.05 KCAL/MOL
REMARK 923 INTER-LIGAND FREE ENERGY PREDICTED BY IDOCK:   -8.57 KCAL/MOL
REMARK 924 INTRA-LIGAND FREE ENERGY PREDICTED BY IDOCK:   -0.48 KCAL/MOL
REMARK 927      BINDING AFFINITY PREDICTED BY RF-SCORE:    0.00 PKD
ROOT
HETATM    1 CL   UNL     1     -11.730   4.936  73.107  1.00  0.00    -0.334 Cl 
HETATM    2  C   UNL     1     -10.802   6.359  72.822  1.00  0.00    -0.248 A  
HETATM    3  C   UNL     1      -9.694   6.628  73.616  1.00  0.00    -0.226 A  
HETATM    4  C   UNL     1      -8.956   7.782  73.382  1.00  0.00    -0.314 A  
HETATM    5  C   UNL     1      -9.343   8.664  72.367  1.00  0.00    -0.284 A  
HETATM    6  C   UNL     1     -10.472   8.427  71.568  1.00  0.00    -0.239 A  
HETATM    7  C   UNL     1     -11.182   7.241  71.808  1.00  0.00    -0.278 A  
ENDROOT
BRANCH   6   8
HETATM    8  N   UNL     1     -10.902   9.373  70.655  1.00  0.00    -0.258 NA 
HETATM    9  C   UNL     1     -10.157   9.614  69.411  1.00  0.00    -0.203 C  
HETATM   10  C   UNL     1     -11.143   9.977  68.276  1.00  0.00    -0.190 C  
HETATM   11  N   UNL     1     -12.047  11.116  68.573  1.00  0.00    -0.594 NA 
HETATM   12  C   UNL     1     -11.849  10.434  71.037  1.00  0.00    -0.361 C  
HETATM   13  C   UNL     1     -12.763  10.794  69.836  1.00  0.00    -0.032 C  
BRANCH  11  14
HETATM   14  C   UNL     1     -11.338  12.401  68.688  1.00  0.00    -0.288 C  
BRANCH  14  15
HETATM   15  C   UNL     1     -11.792  13.431  67.652  1.00  0.00    -0.394 C  
BRANCH  15  16
HETATM   16  C   UNL     1     -10.623  13.877  66.779  1.00  0.00    -0.277 C  
BRANCH  16  17
HETATM   17  N   UNL     1     -10.379  15.292  66.920  1.00  0.00    -0.272 N  
HETATM   18  N   UNL     1     -10.216  15.897  68.152  1.00  0.00    -0.229 NA 
HETATM   19  C   UNL     1     -10.202  17.163  67.866  1.00  0.00    -0.330 A  
HETATM   20  C   UNL     1     -10.037  18.294  68.804  1.00  0.00    -0.393 A  
HETATM   21  C   UNL     1     -10.060  19.538  68.293  1.00  0.00    -0.542 A  
HETATM   22  C   UNL     1     -10.250  19.768  66.872  1.00  0.00    -0.579 A  
HETATM   23  C   UNL     1     -10.401  18.726  66.038  1.00  0.00    -0.422 A  
HETATM   24  N   UNL     1     -10.364  17.460  66.550  1.00  0.00    -0.328 N  
HETATM   25  C   UNL     1     -10.512  16.256  65.904  1.00  0.00    -0.345 C  
HETATM   26  O   UNL     1     -10.742  16.055  64.718  1.00  0.00    -0.611 OA 
ENDBRANCH  16  17
ENDBRANCH  15  16
ENDBRANCH  14  15
ENDBRANCH  11  14
ENDBRANCH   6   8
TORSDOF 5
ENDMDL
MODEL       25
REMARK 921   NORMALIZED FREE ENERGY PREDICTED BY IDOCK:   -6.50 KCAL/MOL
REMARK 922        TOTAL FREE ENERGY PREDICTED BY IDOCK:   -9.04 KCAL/MOL
REMARK 923 INTER-LIGAND FREE ENERGY PREDICTED BY IDOCK:   -8.19 KCAL/MOL
REMARK 924 INTRA-LIGAND FREE ENERGY PREDICTED BY IDOCK:   -0.85 KCAL/MOL
REMARK 927      BINDING AFFINITY PREDICTED BY RF-SCORE:    0.00 PKD
ROOT
HETATM    1 CL   UNL     1     -11.207   7.240  72.148  1.00  0.00    -0.272 Cl 
HETATM    2  C   UNL     1     -10.988   7.284  70.441  1.00  0.00    -0.252 A  
HETATM    3  C   UNL     1     -11.069   6.108  69.706  1.00  0.00    -0.486 A  
HETATM    4  C   UNL     1     -10.885   6.154  68.329  1.00  0.00    -0.387 A  
HETATM    5  C   UNL     1     -10.604   7.373  67.703  1.00  0.00    -0.309 A  
HETATM    6  C   UNL     1     -10.491   8.571  68.426  1.00  0.00    -0.171 A  
HETATM    7  C   UNL     1     -10.710   8.500  69.811  1.00  0.00    -0.213 A  
ENDROOT
BRANCH   6   8
HETATM    8  N   UNL     1     -10.094   9.739  67.801  1.00  0.00    -0.169 NA 
HETATM    9  C   UNL     1     -10.042  11.010  68.539  1.00  0.00    -0.190 C  
HETATM   10  C   UNL     1      -8.872  11.871  68.008  1.00  0.00    -0.177 C  
HETATM   11  N   UNL     1      -8.890  12.117  66.545  1.00  0.00    -0.187 NA 
HETATM   12  C   UNL     1     -10.093   9.863  66.334  1.00  0.00    -0.240 C  
HETATM   13  C   UNL     1      -8.938  10.790  65.875  1.00  0.00    -0.184 C  
BRANCH  11  14
HETATM   14  C   UNL     1     -10.017  12.960  66.114  1.00  0.00    -0.272 C  
BRANCH  14  15
HETATM   15  C   UNL     1     -10.046  14.323  66.809  1.00  0.00    -0.264 C  
BRANCH  15  16
HETATM   16  C   UNL     1     -11.474  14.718  67.174  1.00  0.00    -0.364 C  
BRANCH  16  17
HETATM   17  N   UNL     1     -11.651  14.762  68.605  1.00  0.00    -0.304 N  
HETATM   18  N   UNL     1     -12.409  13.829  69.288  1.00  0.00    -0.252 NA 
HETATM   19  C   UNL     1     -12.466  14.311  70.491  1.00  0.00    -0.361 A  
HETATM   20  C   UNL     1     -13.142  13.719  71.665  1.00  0.00    -0.456 A  
HETATM   21  C   UNL     1     -13.084  14.394  72.827  1.00  0.00    -0.595 A  
HETATM   22  C   UNL     1     -12.391  15.667  72.928  1.00  0.00    -0.552 A  
HETATM   23  C   UNL     1     -11.786  16.188  71.848  1.00  0.00    -0.525 A  
HETATM   24  N   UNL     1     -11.830  15.499  70.670  1.00  0.00    -0.331 N  
HETATM   25  C   UNL     1     -11.309  15.838  69.444  1.00  0.00    -0.348 C  
HETATM   26  O   UNL     1     -10.708  16.860  69.132  1.00  0.00    -0.330 OA 
ENDBRANCH  16  17
ENDBRANCH  15  16
ENDBRANCH  14  15
ENDBRANCH  11  14
ENDBRANCH   6   8
TORSDOF 5
ENDMDL
MODEL       26
REMARK 921   NORMALIZED FREE ENERGY PREDICTED BY IDOCK:   -6.45 KCAL/MOL
REMARK 922        TOTAL FREE ENERGY PREDICTED BY IDOCK:   -8.97 KCAL/MOL
REMARK 923 INTER-LIGAND FREE ENERGY PREDICTED BY IDOCK:   -8.34 KCAL/MOL
REMARK 924 INTRA-LIGAND FREE ENERGY PREDICTED BY IDOCK:   -0.63 KCAL/MOL
REMARK 927      BINDING AFFINITY PREDICTED BY RF-SCORE:    0.00 PKD
ROOT
HETATM    1 CL   UNL     1     -10.698   6.816  68.836  1.00  0.00    -0.255 Cl 
HETATM    2  C   UNL     1     -10.048   7.595  67.444  1.00  0.00    -0.222 A  
HETATM    3  C   UNL     1      -9.038   6.975  66.719  1.00  0.00    -0.162 A  
HETATM    4  C   UNL     1      -8.516   7.615  65.601  1.00  0.00    -0.152 A  
HETATM    5  C   UNL     1      -8.996   8.876  65.230  1.00  0.00    -0.213 A  
HETATM    6  C   UNL     1      -9.997   9.534  65.962  1.00  0.00    -0.278 A  
HETATM    7  C   UNL     1     -10.526   8.853  67.069  1.00  0.00    -0.326 A  
ENDROOT
BRANCH   6   8
HETATM    8  N   UNL     1     -10.367  10.828  65.646  1.00  0.00    -0.250 NA 
HETATM    9  C   UNL     1      -9.691  11.566  64.569  1.00  0.00    -0.207 C  
HETATM   10  C   UNL     1     -10.702  12.496  63.861  1.00  0.00    -0.437 C  
HETATM   11  N   UNL     1     -11.428  13.430  64.757  1.00  0.00    -0.324 NA 
HETATM   12  C   UNL     1     -11.140  11.658  66.587  1.00  0.00    -0.307 C  
HETATM   13  C   UNL     1     -12.085  12.611  65.810  1.00  0.00    -0.423 C  
BRANCH  11  14
HETATM   14  C   UNL     1     -10.553  14.449  65.359  1.00  0.00    -0.365 C  
BRANCH  14  15
HETATM   15  C   UNL     1     -11.132  15.056  66.638  1.00  0.00    -0.326 C  
BRANCH  15  16
HETATM   16  C   UNL     1     -10.155  14.910  67.801  1.00  0.00    -0.234 C  
BRANCH  16  17
HETATM   17  N   UNL     1     -10.855  14.807  69.058  1.00  0.00    -0.237 N  
HETATM   18  N   UNL     1     -11.522  13.660  69.444  1.00  0.00    -0.283 NA 
HETATM   19  C   UNL     1     -12.153  14.025  70.518  1.00  0.00    -0.353 A  
HETATM   20  C   UNL     1     -13.024  13.193  71.375  1.00  0.00    -0.386 A  
HETATM   21  C   UNL     1     -13.590  13.778  72.445  1.00  0.00    -0.690 A  
HETATM   22  C   UNL     1     -13.365  15.181  72.748  1.00  0.00    -0.596 A  
HETATM   23  C   UNL     1     -12.572  15.919  71.954  1.00  0.00    -0.443 A  
HETATM   24  N   UNL     1     -11.983  15.326  70.874  1.00  0.00    -0.310 N  
HETATM   25  C   UNL     1     -11.160  15.876  69.920  1.00  0.00    -0.343 C  
HETATM   26  O   UNL     1     -10.794  17.041  69.816  1.00  0.00    -0.215 OA 
ENDBRANCH  16  17
ENDBRANCH  15  16
ENDBRANCH  14  15
ENDBRANCH  11  14
ENDBRANCH   6   8
TORSDOF 5
ENDMDL
MODEL       27
REMARK 921   NORMALIZED FREE ENERGY PREDICTED BY IDOCK:   -6.41 KCAL/MOL
REMARK 922        TOTAL FREE ENERGY PREDICTED BY IDOCK:   -8.92 KCAL/MOL
REMARK 923 INTER-LIGAND FREE ENERGY PREDICTED BY IDOCK:   -8.10 KCAL/MOL
REMARK 924 INTRA-LIGAND FREE ENERGY PREDICTED BY IDOCK:   -0.82 KCAL/MOL
REMARK 927      BINDING AFFINITY PREDICTED BY RF-SCORE:    0.00 PKD
ROOT
HETATM    1 CL   UNL     1     -12.872   9.431  72.144  1.00  0.00    -0.475 Cl 
HETATM    2  C   UNL     1     -11.358   9.274  71.337  1.00  0.00    -0.364 A  
HETATM    3  C   UNL     1     -10.245   8.837  72.043  1.00  0.00    -0.401 A  
HETATM    4  C   UNL     1      -9.027   8.719  71.383  1.00  0.00    -0.307 A  
HETATM    5  C   UNL     1      -8.931   9.056  70.029  1.00  0.00    -0.184 A  
HETATM    6  C   UNL     1     -10.036   9.525  69.300  1.00  0.00    -0.187 A  
HETATM    7  C   UNL     1     -11.259   9.606  69.983  1.00  0.00    -0.271 A  
ENDROOT
BRANCH   6   8
HETATM    8  N   UNL     1      -9.887   9.966  67.998  1.00  0.00    -0.144 NA 
HETATM    9  C   UNL     1      -9.879  11.402  67.683  1.00  0.00    -0.176 C  
HETATM   10  C   UNL     1      -8.922  11.670  66.499  1.00  0.00    -0.191 C  
HETATM   11  N   UNL     1      -9.195  10.870  65.279  1.00  0.00    -0.206 NA 
HETATM   12  C   UNL     1     -10.129   9.072  66.852  1.00  0.00    -0.267 C  
HETATM   13  C   UNL     1      -9.182   9.437  65.679  1.00  0.00    -0.226 C  
BRANCH  11  14
HETATM   14  C   UNL     1     -10.471  11.219  64.634  1.00  0.00    -0.325 C  
BRANCH  14  15
HETATM   15  C   UNL     1     -10.415  12.546  63.874  1.00  0.00    -0.464 C  
BRANCH  15  16
HETATM   16  C   UNL     1     -11.583  13.447  64.266  1.00  0.00    -0.402 C  
BRANCH  16  17
HETATM   17  N   UNL     1     -11.351  14.072  65.546  1.00  0.00    -0.308 N  
HETATM   18  N   UNL     1     -11.970  13.641  66.704  1.00  0.00    -0.402 NA 
HETATM   19  C   UNL     1     -11.648  14.550  67.572  1.00  0.00    -0.381 A  
HETATM   20  C   UNL     1     -12.023  14.599  69.002  1.00  0.00    -0.318 A  
HETATM   21  C   UNL     1     -11.584  15.643  69.727  1.00  0.00    -0.360 A  
HETATM   22  C   UNL     1     -10.779  16.694  69.130  1.00  0.00    -0.342 A  
HETATM   23  C   UNL     1     -10.453  16.631  67.829  1.00  0.00    -0.316 A  
HETATM   24  N   UNL     1     -10.884  15.565  67.091  1.00  0.00    -0.320 N  
HETATM   25  C   UNL     1     -10.694  15.298  65.756  1.00  0.00    -0.348 C  
HETATM   26  O   UNL     1     -10.115  15.981  64.921  1.00  0.00    -0.419 OA 
ENDBRANCH  16  17
ENDBRANCH  15  16
ENDBRANCH  14  15
ENDBRANCH  11  14
ENDBRANCH   6   8
TORSDOF 5
ENDMDL
MODEL       28
REMARK 921   NORMALIZED FREE ENERGY PREDICTED BY IDOCK:   -6.41 KCAL/MOL
REMARK 922        TOTAL FREE ENERGY PREDICTED BY IDOCK:   -8.91 KCAL/MOL
REMARK 923 INTER-LIGAND FREE ENERGY PREDICTED BY IDOCK:   -7.96 KCAL/MOL
REMARK 924 INTRA-LIGAND FREE ENERGY PREDICTED BY IDOCK:   -0.95 KCAL/MOL
REMARK 927      BINDING AFFINITY PREDICTED BY RF-SCORE:    0.00 PKD
ROOT
HETATM    1 CL   UNL     1     -12.084  16.465  72.933  1.00  0.00    -0.610 Cl 
HETATM    2  C   UNL     1     -12.381  14.960  72.150  1.00  0.00    -0.351 A  
HETATM    3  C   UNL     1     -13.126  13.983  72.797  1.00  0.00    -0.537 A  
HETATM    4  C   UNL     1     -13.355  12.770  72.159  1.00  0.00    -0.593 A  
HETATM    5  C   UNL     1     -12.821  12.540  70.886  1.00  0.00    -0.177 A  
HETATM    6  C   UNL     1     -12.044  13.501  70.222  1.00  0.00    -0.355 A  
HETATM    7  C   UNL     1     -11.853  14.727  70.878  1.00  0.00    -0.379 A  
ENDROOT
BRANCH   6   8
HETATM    8  N   UNL     1     -11.428  13.204  69.020  1.00  0.00    -0.278 NA 
HETATM    9  C   UNL     1     -11.762  11.975  68.284  1.00  0.00    -0.334 C  
HETATM   10  C   UNL     1     -11.676  12.240  66.763  1.00  0.00    -0.342 C  
HETATM   11  N   UNL     1     -10.380  12.792  66.296  1.00  0.00    -0.254 NA 
HETATM   12  C   UNL     1     -10.167  13.852  68.622  1.00  0.00    -0.218 C  
HETATM   13  C   UNL     1     -10.118  14.028  67.082  1.00  0.00    -0.259 C  
BRANCH  11  14
HETATM   14  C   UNL     1      -9.264  11.841  66.433  1.00  0.00    -0.217 C  
BRANCH  14  15
HETATM   15  C   UNL     1      -9.644  10.411  66.043  1.00  0.00    -0.251 C  
BRANCH  15  16
HETATM   16  C   UNL     1      -8.874   9.395  66.881  1.00  0.00    -0.127 C  
BRANCH  16  17
HETATM   17  N   UNL     1      -9.640   8.984  68.033  1.00  0.00    -0.145 N  
HETATM   18  N   UNL     1      -9.516   9.599  69.264  1.00  0.00    -0.169 NA 
HETATM   19  C   UNL     1     -10.216   8.841  70.051  1.00  0.00    -0.198 A  
HETATM   20  C   UNL     1     -10.453   9.025  71.499  1.00  0.00    -0.410 A  
HETATM   21  C   UNL     1     -11.210   8.109  72.129  1.00  0.00    -0.393 A  
HETATM   22  C   UNL     1     -11.768   6.972  71.420  1.00  0.00    -0.344 A  
HETATM   23  C   UNL     1     -11.537   6.822  70.106  1.00  0.00    -0.341 A  
HETATM   24  N   UNL     1     -10.781   7.758  69.458  1.00  0.00    -0.226 N  
HETATM   25  C   UNL     1     -10.399   7.805  68.138  1.00  0.00    -0.200 C  
HETATM   26  O   UNL     1     -10.633   6.992  67.251  1.00  0.00    -0.251 OA 
ENDBRANCH  16  17
ENDBRANCH  15  16
ENDBRANCH  14  15
ENDBRANCH  11  14
ENDBRANCH   6   8
TORSDOF 5
ENDMDL
MODEL       29
REMARK 921   NORMALIZED FREE ENERGY PREDICTED BY IDOCK:   -6.40 KCAL/MOL
REMARK 922        TOTAL FREE ENERGY PREDICTED BY IDOCK:   -8.91 KCAL/MOL
REMARK 923 INTER-LIGAND FREE ENERGY PREDICTED BY IDOCK:   -8.27 KCAL/MOL
REMARK 924 INTRA-LIGAND FREE ENERGY PREDICTED BY IDOCK:   -0.64 KCAL/MOL
REMARK 927      BINDING AFFINITY PREDICTED BY RF-SCORE:    0.00 PKD
ROOT
HETATM    1 CL   UNL     1     -10.135  20.002  65.675  1.00  0.00    -0.432 Cl 
HETATM    2  C   UNL     1     -10.309  18.646  66.722  1.00  0.00    -0.407 A  
HETATM    3  C   UNL     1     -10.217  18.822  68.097  1.00  0.00    -0.433 A  
HETATM    4  C   UNL     1     -10.353  17.720  68.933  1.00  0.00    -0.300 A  
HETATM    5  C   UNL     1     -10.561  16.450  68.385  1.00  0.00    -0.311 A  
HETATM    6  C   UNL     1     -10.632  16.242  66.998  1.00  0.00    -0.284 A  
HETATM    7  C   UNL     1     -10.520  17.376  66.180  1.00  0.00    -0.284 A  
ENDROOT
BRANCH   6   8
HETATM    8  N   UNL     1     -10.717  14.963  66.479  1.00  0.00    -0.303 NA 
HETATM    9  C   UNL     1     -11.022  13.815  67.347  1.00  0.00    -0.284 C  
HETATM   10  C   UNL     1     -11.860  12.779  66.563  1.00  0.00    -0.405 C  
HETATM   11  N   UNL     1     -11.258  12.323  65.285  1.00  0.00    -0.318 NA 
HETATM   12  C   UNL     1     -10.132  14.624  65.171  1.00  0.00    -0.324 C  
HETATM   13  C   UNL     1     -10.985  13.536  64.468  1.00  0.00    -0.394 C  
BRANCH  11  14
HETATM   14  C   UNL     1     -10.029  11.535  65.476  1.00  0.00    -0.242 C  
BRANCH  14  15
HETATM   15  C   UNL     1     -10.275  10.203  66.187  1.00  0.00    -0.285 C  
BRANCH  15  16
HETATM   16  C   UNL     1      -9.547  10.159  67.527  1.00  0.00    -0.156 C  
BRANCH  16  17
HETATM   17  N   UNL     1     -10.459   9.865  68.605  1.00  0.00    -0.198 N  
HETATM   18  N   UNL     1     -11.284  10.824  69.161  1.00  0.00    -0.241 NA 
HETATM   19  C   UNL     1     -11.797  10.221  70.188  1.00  0.00    -0.263 A  
HETATM   20  C   UNL     1     -12.774  10.766  71.155  1.00  0.00    -0.532 A  
HETATM   21  C   UNL     1     -13.172   9.966  72.160  1.00  0.00    -0.511 A  
HETATM   22  C   UNL     1     -12.656   8.617  72.302  1.00  0.00    -0.457 A  
HETATM   23  C   UNL     1     -11.767   8.142  71.414  1.00  0.00    -0.285 A  
HETATM   24  N   UNL     1     -11.370   8.946  70.383  1.00  0.00    -0.239 N  
HETATM   25  C   UNL     1     -10.469   8.689  69.378  1.00  0.00    -0.218 C  
HETATM   26  O   UNL     1      -9.794   7.681  69.203  1.00  0.00    -0.166 OA 
ENDBRANCH  16  17
ENDBRANCH  15  16
ENDBRANCH  14  15
ENDBRANCH  11  14
ENDBRANCH   6   8
TORSDOF 5
ENDMDL
MODEL       30
REMARK 921   NORMALIZED FREE ENERGY PREDICTED BY IDOCK:   -6.37 KCAL/MOL
REMARK 922        TOTAL FREE ENERGY PREDICTED BY IDOCK:   -8.86 KCAL/MOL
REMARK 923 INTER-LIGAND FREE ENERGY PREDICTED BY IDOCK:   -7.68 KCAL/MOL
REMARK 924 INTRA-LIGAND FREE ENERGY PREDICTED BY IDOCK:   -1.18 KCAL/MOL
REMARK 927      BINDING AFFINITY PREDICTED BY RF-SCORE:    0.00 PKD
ROOT
HETATM    1 CL   UNL     1     -13.452   9.683  72.428  1.00  0.00    -0.479 Cl 
HETATM    2  C   UNL     1     -12.953  11.104  71.592  1.00  0.00    -0.443 A  
HETATM    3  C   UNL     1     -13.366  12.350  72.047  1.00  0.00    -0.511 A  
HETATM    4  C   UNL     1     -12.962  13.491  71.362  1.00  0.00    -0.421 A  
HETATM    5  C   UNL     1     -12.164  13.372  70.218  1.00  0.00    -0.405 A  
HETATM    6  C   UNL     1     -11.756  12.123  69.724  1.00  0.00    -0.310 A  
HETATM    7  C   UNL     1     -12.154  10.991  70.451  1.00  0.00    -0.463 A  
ENDROOT
BRANCH   6   8
HETATM    8  N   UNL     1     -11.071  12.027  68.526  1.00  0.00    -0.226 NA 
HETATM    9  C   UNL     1     -11.522  11.107  67.471  1.00  0.00    -0.216 C  
HETATM   10  C   UNL     1     -11.229  11.724  66.084  1.00  0.00    -0.306 C  
HETATM   11  N   UNL     1      -9.817  12.124  65.861  1.00  0.00    -0.245 NA 
HETATM   12  C   UNL     1      -9.685  12.507  68.393  1.00  0.00    -0.189 C  
HETATM   13  C   UNL     1      -9.442  13.051  66.961  1.00  0.00    -0.237 C  
BRANCH  11  14
HETATM   14  C   UNL     1      -8.895  10.978  65.808  1.00  0.00    -0.191 C  
BRANCH  14  15
HETATM   15  C   UNL     1      -9.579   9.677  65.382  1.00  0.00    -0.361 C  
BRANCH  15  16
HETATM   16  C   UNL     1      -8.931   8.474  66.060  1.00  0.00    -0.184 C  
BRANCH  16  17
HETATM   17  N   UNL     1      -9.515   8.230  67.357  1.00  0.00    -0.147 N  
HETATM   18  N   UNL     1      -8.978   8.747  68.521  1.00  0.00    -0.138 NA 
HETATM   19  C   UNL     1      -9.667   8.165  69.453  1.00  0.00    -0.170 A  
HETATM   20  C   UNL     1      -9.536   8.351  70.915  1.00  0.00    -0.212 A  
HETATM   21  C   UNL     1     -10.352   7.637  71.710  1.00  0.00    -0.233 A  
HETATM   22  C   UNL     1     -11.323   6.707  71.159  1.00  0.00    -0.355 A  
HETATM   23  C   UNL     1     -11.422   6.552  69.829  1.00  0.00    -0.379 A  
HETATM   24  N   UNL     1     -10.605   7.286  69.016  1.00  0.00    -0.213 N  
HETATM   25  C   UNL     1     -10.513   7.282  67.645  1.00  0.00    -0.242 C  
HETATM   26  O   UNL     1     -11.131   6.590  66.845  1.00  0.00    -0.399 OA 
ENDBRANCH  16  17
ENDBRANCH  15  16
ENDBRANCH  14  15
ENDBRANCH  11  14
ENDBRANCH   6   8
TORSDOF 5
ENDMDL
MODEL       31
REMARK 921   NORMALIZED FREE ENERGY PREDICTED BY IDOCK:   -6.36 KCAL/MOL
REMARK 922        TOTAL FREE ENERGY PREDICTED BY IDOCK:   -8.85 KCAL/MOL
REMARK 923 INTER-LIGAND FREE ENERGY PREDICTED BY IDOCK:   -7.83 KCAL/MOL
REMARK 924 INTRA-LIGAND FREE ENERGY PREDICTED BY IDOCK:   -1.02 KCAL/MOL
REMARK 927      BINDING AFFINITY PREDICTED BY RF-SCORE:    0.00 PKD
ROOT
HETATM    1 CL   UNL     1     -11.737  15.249  69.069  1.00  0.00    -0.355 Cl 
HETATM    2  C   UNL     1     -12.451  14.240  70.268  1.00  0.00    -0.361 A  
HETATM    3  C   UNL     1     -13.251  14.804  71.254  1.00  0.00    -0.447 A  
HETATM    4  C   UNL     1     -13.818  13.981  72.221  1.00  0.00    -0.655 A  
HETATM    5  C   UNL     1     -13.564  12.605  72.202  1.00  0.00    -0.510 A  
HETATM    6  C   UNL     1     -12.738  12.016  71.232  1.00  0.00    -0.279 A  
HETATM    7  C   UNL     1     -12.203  12.865  70.252  1.00  0.00    -0.362 A  
ENDROOT
BRANCH   6   8
HETATM    8  N   UNL     1     -12.405  10.675  71.308  1.00  0.00    -0.379 NA 
HETATM    9  C   UNL     1     -11.186  10.162  70.666  1.00  0.00    -0.340 C  
HETATM   10  C   UNL     1     -10.597   9.011  71.514  1.00  0.00    -0.345 C  
HETATM   11  N   UNL     1     -11.539   7.902  71.806  1.00  0.00    -0.266 NA 
HETATM   12  C   UNL     1     -13.406   9.655  71.663  1.00  0.00    -0.402 C  
HETATM   13  C   UNL     1     -12.737   8.501  72.454  1.00  0.00    -0.337 C  
BRANCH  11  14
HETATM   14  C   UNL     1     -11.921   7.139  70.607  1.00  0.00    -0.269 C  
BRANCH  14  15
HETATM   15  C   UNL     1     -10.915   6.044  70.247  1.00  0.00    -0.412 C  
BRANCH  15  16
HETATM   16  C   UNL     1     -10.681   5.993  68.740  1.00  0.00    -0.308 C  
BRANCH  16  17
HETATM   17  N   UNL     1     -10.137   7.239  68.256  1.00  0.00    -0.164 N  
HETATM   18  N   UNL     1     -10.757   7.986  67.273  1.00  0.00    -0.274 NA 
HETATM   19  C   UNL     1      -9.885   8.908  67.001  1.00  0.00    -0.214 A  
HETATM   20  C   UNL     1     -10.016  10.009  66.024  1.00  0.00    -0.334 A  
HETATM   21  C   UNL     1      -8.980  10.856  65.893  1.00  0.00    -0.206 A  
HETATM   22  C   UNL     1      -7.767  10.693  66.675  1.00  0.00    -0.132 A  
HETATM   23  C   UNL     1      -7.667   9.684  67.555  1.00  0.00    -0.095 A  
HETATM   24  N   UNL     1      -8.723   8.829  67.702  1.00  0.00    -0.135 N  
HETATM   25  C   UNL     1      -8.844   7.727  68.515  1.00  0.00    -0.130 C  
HETATM   26  O   UNL     1      -8.008   7.249  69.272  1.00  0.00    -0.114 OA 
ENDBRANCH  16  17
ENDBRANCH  15  16
ENDBRANCH  14  15
ENDBRANCH  11  14
ENDBRANCH   6   8
TORSDOF 5
ENDMDL
MODEL       32
REMARK 921   NORMALIZED FREE ENERGY PREDICTED BY IDOCK:   -6.34 KCAL/MOL
REMARK 922        TOTAL FREE ENERGY PREDICTED BY IDOCK:   -8.83 KCAL/MOL
REMARK 923 INTER-LIGAND FREE ENERGY PREDICTED BY IDOCK:   -8.13 KCAL/MOL
REMARK 924 INTRA-LIGAND FREE ENERGY PREDICTED BY IDOCK:   -0.69 KCAL/MOL
REMARK 927      BINDING AFFINITY PREDICTED BY RF-SCORE:    0.00 PKD
ROOT
HETATM    1 CL   UNL     1     -10.252  20.265  65.499  1.00  0.00    -0.283 Cl 
HETATM    2  C   UNL     1     -10.298  18.999  66.667  1.00  0.00    -0.428 A  
HETATM    3  C   UNL     1     -10.126  19.298  68.012  1.00  0.00    -0.496 A  
HETATM    4  C   UNL     1     -10.159  18.269  68.946  1.00  0.00    -0.358 A  
HETATM    5  C   UNL     1     -10.346  16.948  68.522  1.00  0.00    -0.336 A  
HETATM    6  C   UNL     1     -10.496  16.618  67.166  1.00  0.00    -0.300 A  
HETATM    7  C   UNL     1     -10.488  17.680  66.248  1.00  0.00    -0.292 A  
ENDROOT
BRANCH   6   8
HETATM    8  N   UNL     1     -10.557  15.296  66.763  1.00  0.00    -0.299 NA 
HETATM    9  C   UNL     1     -11.169  14.273  67.624  1.00  0.00    -0.304 C  
HETATM   10  C   UNL     1     -11.869  13.208  66.749  1.00  0.00    -0.385 C  
HETATM   11  N   UNL     1     -11.006  12.576  65.720  1.00  0.00    -0.283 NA 
HETATM   12  C   UNL     1      -9.693  14.779  65.688  1.00  0.00    -0.278 C  
HETATM   13  C   UNL     1     -10.432  13.672  64.893  1.00  0.00    -0.409 C  
BRANCH  11  14
HETATM   14  C   UNL     1      -9.938  11.743  66.295  1.00  0.00    -0.218 C  
BRANCH  14  15
HETATM   15  C   UNL     1     -10.464  10.662  67.241  1.00  0.00    -0.293 C  
BRANCH  15  16
HETATM   16  C   UNL     1      -9.924  10.864  68.653  1.00  0.00    -0.189 C  
BRANCH  16  17
HETATM   17  N   UNL     1     -10.780  10.239  69.631  1.00  0.00    -0.246 N  
HETATM   18  N   UNL     1     -10.916   8.867  69.730  1.00  0.00    -0.202 NA 
HETATM   19  C   UNL     1     -11.883   8.721  70.582  1.00  0.00    -0.112 A  
HETATM   20  C   UNL     1     -12.453   7.453  71.086  1.00  0.00    -0.343 A  
HETATM   21  C   UNL     1     -13.466   7.529  71.967  1.00  0.00    -0.206 A  
HETATM   22  C   UNL     1     -13.993   8.809  72.403  1.00  0.00    -0.482 A  
HETATM   23  C   UNL     1     -13.463   9.949  71.931  1.00  0.00    -0.372 A  
HETATM   24  N   UNL     1     -12.425   9.877  71.047  1.00  0.00    -0.332 N  
HETATM   25  C   UNL     1     -11.743  10.894  70.421  1.00  0.00    -0.350 C  
HETATM   26  O   UNL     1     -11.942  12.100  70.499  1.00  0.00    -0.337 OA 
ENDBRANCH  16  17
ENDBRANCH  15  16
ENDBRANCH  14  15
ENDBRANCH  11  14
ENDBRANCH   6   8
TORSDOF 5
ENDMDL
MODEL       33
REMARK 921   NORMALIZED FREE ENERGY PREDICTED BY IDOCK:   -6.29 KCAL/MOL
REMARK 922        TOTAL FREE ENERGY PREDICTED BY IDOCK:   -8.76 KCAL/MOL
REMARK 923 INTER-LIGAND FREE ENERGY PREDICTED BY IDOCK:   -8.20 KCAL/MOL
REMARK 924 INTRA-LIGAND FREE ENERGY PREDICTED BY IDOCK:   -0.56 KCAL/MOL
REMARK 927      BINDING AFFINITY PREDICTED BY RF-SCORE:    0.00 PKD
ROOT
HETATM    1 CL   UNL     1     -12.002  15.711  69.332  1.00  0.00    -0.379 Cl 
HETATM    2  C   UNL     1     -12.550  14.445  70.363  1.00  0.00    -0.345 A  
HETATM    3  C   UNL     1     -13.402  14.739  71.420  1.00  0.00    -0.464 A  
HETATM    4  C   UNL     1     -13.834  13.711  72.250  1.00  0.00    -0.689 A  
HETATM    5  C   UNL     1     -13.393  12.402  72.026  1.00  0.00    -0.511 A  
HETATM    6  C   UNL     1     -12.511  12.084  70.982  1.00  0.00    -0.276 A  
HETATM    7  C   UNL     1     -12.115  13.136  70.142  1.00  0.00    -0.392 A  
ENDROOT
BRANCH   6   8
HETATM    8  N   UNL     1     -11.996  10.806  70.857  1.00  0.00    -0.339 NA 
HETATM    9  C   UNL     1     -10.679  10.579  70.244  1.00  0.00    -0.100 C  
HETATM   10  C   UNL     1      -9.985   9.381  70.931  1.00  0.00    -0.283 C  
HETATM   11  N   UNL     1     -10.776   8.125  70.949  1.00  0.00    -0.217 NA 
HETATM   12  C   UNL     1     -12.861   9.617  70.946  1.00  0.00    -0.192 C  
HETATM   13  C   UNL     1     -12.084   8.436  71.584  1.00  0.00    -0.313 C  
BRANCH  11  14
HETATM   14  C   UNL     1     -10.971   7.547  69.609  1.00  0.00    -0.153 C  
BRANCH  14  15
HETATM   15  C   UNL     1      -9.944   8.041  68.588  1.00  0.00    -0.200 C  
BRANCH  15  16
HETATM   16  C   UNL     1     -10.564   8.143  67.197  1.00  0.00    -0.285 C  
BRANCH  16  17
HETATM   17  N   UNL     1     -10.573   9.508  66.731  1.00  0.00    -0.182 N  
HETATM   18  N   UNL     1     -11.400  10.472  67.277  1.00  0.00    -0.345 NA 
HETATM   19  C   UNL     1     -11.242  11.487  66.484  1.00  0.00    -0.259 A  
HETATM   20  C   UNL     1     -11.877  12.818  66.591  1.00  0.00    -0.462 A  
HETATM   21  C   UNL     1     -11.578  13.731  65.649  1.00  0.00    -0.339 A  
HETATM   22  C   UNL     1     -10.673  13.421  64.557  1.00  0.00    -0.434 A  
HETATM   23  C   UNL     1     -10.109  12.205  64.477  1.00  0.00    -0.259 A  
HETATM   24  N   UNL     1     -10.398  11.279  65.439  1.00  0.00    -0.262 N  
HETATM   25  C   UNL     1      -9.964   9.980  65.555  1.00  0.00    -0.296 C  
HETATM   26  O   UNL     1      -9.236   9.353  64.794  1.00  0.00    -0.228 OA 
ENDBRANCH  16  17
ENDBRANCH  15  16
ENDBRANCH  14  15
ENDBRANCH  11  14
ENDBRANCH   6   8
TORSDOF 5
ENDMDL
MODEL       34
REMARK 921   NORMALIZED FREE ENERGY PREDICTED BY IDOCK:   -6.27 KCAL/MOL
REMARK 922        TOTAL FREE ENERGY PREDICTED BY IDOCK:   -8.74 KCAL/MOL
REMARK 923 INTER-LIGAND FREE ENERGY PREDICTED BY IDOCK:   -7.75 KCAL/MOL
REMARK 924 INTRA-LIGAND FREE ENERGY PREDICTED BY IDOCK:   -0.99 KCAL/MOL
REMARK 927      BINDING AFFINITY PREDICTED BY RF-SCORE:    0.00 PKD
ROOT
HETATM    1 CL   UNL     1     -12.055  13.872  66.805  1.00  0.00    -0.470 Cl 
HETATM    2  C   UNL     1     -11.295  12.686  65.812  1.00  0.00    -0.333 A  
HETATM    3  C   UNL     1     -11.153  12.919  64.450  1.00  0.00    -0.395 A  
HETATM    4  C   UNL     1     -10.544  11.954  63.657  1.00  0.00    -0.500 A  
HETATM    5  C   UNL     1     -10.100  10.757  64.231  1.00  0.00    -0.427 A  
HETATM    6  C   UNL     1     -10.256  10.488  65.599  1.00  0.00    -0.246 A  
HETATM    7  C   UNL     1     -10.848  11.492  66.381  1.00  0.00    -0.334 A  
ENDROOT
BRANCH   6   8
HETATM    8  N   UNL     1      -9.920   9.251  66.118  1.00  0.00    -0.290 NA 
HETATM    9  C   UNL     1     -10.642   8.694  67.272  1.00  0.00    -0.238 C  
HETATM   10  C   UNL     1     -10.730   7.156  67.137  1.00  0.00    -0.352 C  
HETATM   11  N   UNL     1      -9.428   6.468  66.954  1.00  0.00    -0.147 NA 
HETATM   12  C   UNL     1      -8.618   8.625  65.830  1.00  0.00    -0.157 C  
HETATM   13  C   UNL     1      -8.766   7.083  65.773  1.00  0.00    -0.100 C  
BRANCH  11  14
HETATM   14  C   UNL     1      -8.560   6.551  68.141  1.00  0.00    -0.118 C  
BRANCH  14  15
HETATM   15  C   UNL     1      -8.977   5.590  69.256  1.00  0.00    -0.125 C  
BRANCH  15  16
HETATM   16  C   UNL     1      -8.801   6.237  70.626  1.00  0.00    -0.144 C  
BRANCH  16  17
HETATM   17  N   UNL     1     -10.005   6.918  71.037  1.00  0.00    -0.189 N  
HETATM   18  N   UNL     1     -11.225   6.276  71.131  1.00  0.00    -0.296 NA 
HETATM   19  C   UNL     1     -12.060   7.246  71.347  1.00  0.00    -0.335 A  
HETATM   20  C   UNL     1     -13.521   7.146  71.547  1.00  0.00    -0.411 A  
HETATM   21  C   UNL     1     -14.204   8.287  71.751  1.00  0.00    -0.544 A  
HETATM   22  C   UNL     1     -13.535   9.575  71.763  1.00  0.00    -0.480 A  
HETATM   23  C   UNL     1     -12.207   9.644  71.576  1.00  0.00    -0.399 A  
HETATM   24  N   UNL     1     -11.507   8.487  71.384  1.00  0.00    -0.273 N  
HETATM   25  C   UNL     1     -10.163   8.311  71.155  1.00  0.00    -0.198 C  
HETATM   26  O   UNL     1      -9.295   9.168  71.043  1.00  0.00    -0.248 OA 
ENDBRANCH  16  17
ENDBRANCH  15  16
ENDBRANCH  14  15
ENDBRANCH  11  14
ENDBRANCH   6   8
TORSDOF 5
ENDMDL
MODEL       35
REMARK 921   NORMALIZED FREE ENERGY PREDICTED BY IDOCK:   -6.26 KCAL/MOL
REMARK 922        TOTAL FREE ENERGY PREDICTED BY IDOCK:   -8.73 KCAL/MOL
REMARK 923 INTER-LIGAND FREE ENERGY PREDICTED BY IDOCK:   -7.90 KCAL/MOL
REMARK 924 INTRA-LIGAND FREE ENERGY PREDICTED BY IDOCK:   -0.83 KCAL/MOL
REMARK 927      BINDING AFFINITY PREDICTED BY RF-SCORE:    0.00 PKD
ROOT
HETATM    1 CL   UNL     1     -11.439   8.331  72.629  1.00  0.00    -0.457 Cl 
HETATM    2  C   UNL     1     -11.161   7.712  71.046  1.00  0.00    -0.267 A  
HETATM    3  C   UNL     1     -11.128   6.338  70.841  1.00  0.00    -0.366 A  
HETATM    4  C   UNL     1     -10.897   5.849  69.560  1.00  0.00    -0.442 A  
HETATM    5  C   UNL     1     -10.684   6.739  68.501  1.00  0.00    -0.280 A  
HETATM    6  C   UNL     1     -10.688   8.130  68.688  1.00  0.00    -0.025 A  
HETATM    7  C   UNL     1     -10.952   8.596  69.985  1.00  0.00    -0.208 A  
ENDROOT
BRANCH   6   8
HETATM    8  N   UNL     1     -10.355   8.982  67.651  1.00  0.00    -0.242 NA 
HETATM    9  C   UNL     1     -10.817  10.379  67.644  1.00  0.00    -0.306 C  
HETATM   10  C   UNL     1      -9.743  11.278  66.989  1.00  0.00    -0.186 C  
HETATM   11  N   UNL     1      -9.321  10.861  65.629  1.00  0.00    -0.198 NA 
HETATM   12  C   UNL     1      -9.890   8.467  66.352  1.00  0.00    -0.240 C  
HETATM   13  C   UNL     1      -8.867   9.447  65.722  1.00  0.00    -0.171 C  
BRANCH  11  14
HETATM   14  C   UNL     1     -10.388  11.000  64.625  1.00  0.00    -0.345 C  
BRANCH  14  15
HETATM   15  C   UNL     1     -10.396  12.370  63.944  1.00  0.00    -0.450 C  
BRANCH  15  16
HETATM   16  C   UNL     1     -11.688  13.122  64.250  1.00  0.00    -0.395 C  
BRANCH  16  17
HETATM   17  N   UNL     1     -11.455  14.198  65.183  1.00  0.00    -0.323 N  
HETATM   18  N   UNL     1     -10.612  15.256  64.899  1.00  0.00    -0.397 NA 
HETATM   19  C   UNL     1     -10.535  15.890  66.028  1.00  0.00    -0.345 A  
HETATM   20  C   UNL     1      -9.774  17.125  66.315  1.00  0.00    -0.296 A  
HETATM   21  C   UNL     1      -9.827  17.615  67.567  1.00  0.00    -0.299 A  
HETATM   22  C   UNL     1     -10.595  16.953  68.606  1.00  0.00    -0.360 A  
HETATM   23  C   UNL     1     -11.276  15.831  68.325  1.00  0.00    -0.356 A  
HETATM   24  N   UNL     1     -11.237  15.337  67.052  1.00  0.00    -0.312 N  
HETATM   25  C   UNL     1     -11.830  14.208  66.538  1.00  0.00    -0.419 C  
HETATM   26  O   UNL     1     -12.507  13.372  67.126  1.00  0.00    -0.217 OA 
ENDBRANCH  16  17
ENDBRANCH  15  16
ENDBRANCH  14  15
ENDBRANCH  11  14
ENDBRANCH   6   8
TORSDOF 5
ENDMDL
MODEL       36
REMARK 921   NORMALIZED FREE ENERGY PREDICTED BY IDOCK:   -6.26 KCAL/MOL
REMARK 922        TOTAL FREE ENERGY PREDICTED BY IDOCK:   -8.72 KCAL/MOL
REMARK 923 INTER-LIGAND FREE ENERGY PREDICTED BY IDOCK:   -7.71 KCAL/MOL
REMARK 924 INTRA-LIGAND FREE ENERGY PREDICTED BY IDOCK:   -1.02 KCAL/MOL
REMARK 927      BINDING AFFINITY PREDICTED BY RF-SCORE:    0.00 PKD
ROOT
HETATM    1 CL   UNL     1     -12.317  14.095  66.525  1.00  0.00    -0.472 Cl 
HETATM    2  C   UNL     1     -11.548  12.931  65.515  1.00  0.00    -0.358 A  
HETATM    3  C   UNL     1     -11.523  13.123  64.139  1.00  0.00    -0.449 A  
HETATM    4  C   UNL     1     -10.905  12.174  63.333  1.00  0.00    -0.474 A  
HETATM    5  C   UNL     1     -10.335  11.034  63.909  1.00  0.00    -0.436 A  
HETATM    6  C   UNL     1     -10.371  10.804  65.293  1.00  0.00    -0.258 A  
HETATM    7  C   UNL     1     -10.975  11.791  66.085  1.00  0.00    -0.355 A  
ENDROOT
BRANCH   6   8
HETATM    8  N   UNL     1      -9.909   9.612  65.823  1.00  0.00    -0.298 NA 
HETATM    9  C   UNL     1     -10.498   9.054  67.050  1.00  0.00    -0.246 C  
HETATM   10  C   UNL     1     -10.489   7.509  66.973  1.00  0.00    -0.338 C  
HETATM   11  N   UNL     1      -9.161   6.903  66.708  1.00  0.00    -0.146 NA 
HETATM   12  C   UNL     1      -8.594   9.065  65.450  1.00  0.00    -0.177 C  
HETATM   13  C   UNL     1      -8.639   7.514  65.457  1.00  0.00    -0.083 C  
BRANCH  11  14
HETATM   14  C   UNL     1      -8.210   7.089  67.816  1.00  0.00    -0.114 C  
BRANCH  14  15
HETATM   15  C   UNL     1      -8.508   6.192  69.019  1.00  0.00    -0.118 C  
BRANCH  15  16
HETATM   16  C   UNL     1      -8.503   6.998  70.314  1.00  0.00    -0.138 C  
BRANCH  16  17
HETATM   17  N   UNL     1      -9.766   7.667  70.514  1.00  0.00    -0.182 N  
HETATM   18  N   UNL     1      -9.884   9.044  70.517  1.00  0.00    -0.199 NA 
HETATM   19  C   UNL     1     -11.108   9.240  70.900  1.00  0.00    -0.306 A  
HETATM   20  C   UNL     1     -11.799  10.536  71.070  1.00  0.00    -0.438 A  
HETATM   21  C   UNL     1     -13.077  10.512  71.487  1.00  0.00    -0.532 A  
HETATM   22  C   UNL     1     -13.756   9.261  71.772  1.00  0.00    -0.443 A  
HETATM   23  C   UNL     1     -13.109   8.095  71.614  1.00  0.00    -0.335 A  
HETATM   24  N   UNL     1     -11.815   8.113  71.177  1.00  0.00    -0.284 N  
HETATM   25  C   UNL     1     -10.954   7.062  70.962  1.00  0.00    -0.251 C  
HETATM   26  O   UNL     1     -11.155   5.868  71.147  1.00  0.00    -0.274 OA 
ENDBRANCH  16  17
ENDBRANCH  15  16
ENDBRANCH  14  15
ENDBRANCH  11  14
ENDBRANCH   6   8
TORSDOF 5
ENDMDL
MODEL       37
REMARK 921   NORMALIZED FREE ENERGY PREDICTED BY IDOCK:   -6.26 KCAL/MOL
REMARK 922        TOTAL FREE ENERGY PREDICTED BY IDOCK:   -8.72 KCAL/MOL
REMARK 923 INTER-LIGAND FREE ENERGY PREDICTED BY IDOCK:   -7.55 KCAL/MOL
REMARK 924 INTRA-LIGAND FREE ENERGY PREDICTED BY IDOCK:   -1.17 KCAL/MOL
REMARK 927      BINDING AFFINITY PREDICTED BY RF-SCORE:    0.00 PKD
ROOT
HETATM    1 CL   UNL     1     -12.838  14.276  70.671  1.00  0.00    -0.400 Cl 
HETATM    2  C   UNL     1     -12.641  12.575  70.860  1.00  0.00    -0.241 A  
HETATM    3  C   UNL     1     -13.272  11.923  71.912  1.00  0.00    -0.467 A  
HETATM    4  C   UNL     1     -13.103  10.551  72.059  1.00  0.00    -0.511 A  
HETATM    5  C   UNL     1     -12.289   9.849  71.164  1.00  0.00    -0.466 A  
HETATM    6  C   UNL     1     -11.620  10.490  70.109  1.00  0.00    -0.326 A  
HETATM    7  C   UNL     1     -11.832  11.869  69.967  1.00  0.00    -0.407 A  
ENDROOT
BRANCH   6   8
HETATM    8  N   UNL     1     -10.727   9.794  69.313  1.00  0.00    -0.218 NA 
HETATM    9  C   UNL     1      -9.385   9.450  69.807  1.00  0.00    -0.203 C  
HETATM   10  C   UNL     1      -8.950   8.088  69.220  1.00  0.00    -0.148 C  
HETATM   11  N   UNL     1      -9.000   7.998  67.740  1.00  0.00    -0.132 NA 
HETATM   12  C   UNL     1     -10.898   9.718  67.853  1.00  0.00    -0.242 C  
HETATM   13  C   UNL     1     -10.383   8.355  67.323  1.00  0.00    -0.299 C  
BRANCH  11  14
HETATM   14  C   UNL     1      -8.015   8.866  67.075  1.00  0.00    -0.102 C  
BRANCH  14  15
HETATM   15  C   UNL     1      -8.304   9.072  65.587  1.00  0.00    -0.137 C  
BRANCH  15  16
HETATM   16  C   UNL     1      -7.859  10.459  65.133  1.00  0.00    -0.122 C  
BRANCH  16  17
HETATM   17  N   UNL     1      -8.917  11.426  65.301  1.00  0.00    -0.081 N  
HETATM   18  N   UNL     1      -9.030  12.213  66.431  1.00  0.00    -0.178 NA 
HETATM   19  C   UNL     1     -10.178  12.797  66.277  1.00  0.00    -0.253 A  
HETATM   20  C   UNL     1     -10.817  13.775  67.183  1.00  0.00    -0.288 A  
HETATM   21  C   UNL     1     -12.024  14.255  66.834  1.00  0.00    -0.467 A  
HETATM   22  C   UNL     1     -12.686  13.823  65.616  1.00  0.00    -0.523 A  
HETATM   23  C   UNL     1     -12.089  12.932  64.809  1.00  0.00    -0.422 A  
HETATM   24  N   UNL     1     -10.857  12.452  65.151  1.00  0.00    -0.288 N  
HETATM   25  C   UNL     1     -10.070  11.531  64.501  1.00  0.00    -0.278 C  
HETATM   26  O   UNL     1     -10.320  10.910  63.475  1.00  0.00    -0.352 OA 
ENDBRANCH  16  17
ENDBRANCH  15  16
ENDBRANCH  14  15
ENDBRANCH  11  14
ENDBRANCH   6   8
TORSDOF 5
ENDMDL
MODEL       38
REMARK 921   NORMALIZED FREE ENERGY PREDICTED BY IDOCK:   -6.15 KCAL/MOL
REMARK 922        TOTAL FREE ENERGY PREDICTED BY IDOCK:   -8.58 KCAL/MOL
REMARK 923 INTER-LIGAND FREE ENERGY PREDICTED BY IDOCK:   -7.70 KCAL/MOL
REMARK 924 INTRA-LIGAND FREE ENERGY PREDICTED BY IDOCK:   -0.88 KCAL/MOL
REMARK 927      BINDING AFFINITY PREDICTED BY RF-SCORE:    0.00 PKD
ROOT
HETATM    1 CL   UNL     1     -12.240  13.391  63.209  1.00  0.00    -0.485 Cl 
HETATM    2  C   UNL     1     -11.308  12.307  64.170  1.00  0.00    -0.376 A  
HETATM    3  C   UNL     1     -10.322  11.533  63.573  1.00  0.00    -0.484 A  
HETATM    4  C   UNL     1      -9.580  10.657  64.356  1.00  0.00    -0.349 A  
HETATM    5  C   UNL     1      -9.844  10.551  65.726  1.00  0.00    -0.295 A  
HETATM    6  C   UNL     1     -10.853  11.303  66.348  1.00  0.00    -0.251 A  
HETATM    7  C   UNL     1     -11.567  12.200  65.539  1.00  0.00    -0.398 A  
ENDROOT
BRANCH   6   8
HETATM    8  N   UNL     1     -11.175  11.091  67.676  1.00  0.00    -0.332 NA 
HETATM    9  C   UNL     1     -11.030   9.760  68.285  1.00  0.00    -0.164 C  
HETATM   10  C   UNL     1     -10.614   9.908  69.767  1.00  0.00    -0.264 C  
HETATM   11  N   UNL     1     -11.509  10.763  70.586  1.00  0.00    -0.298 NA 
HETATM   12  C   UNL     1     -12.029  12.033  68.420  1.00  0.00    -0.194 C  
HETATM   13  C   UNL     1     -11.600  12.084  69.909  1.00  0.00    -0.238 C  
BRANCH  11  14
HETATM   14  C   UNL     1     -12.849  10.181  70.775  1.00  0.00    -0.308 C  
BRANCH  14  15
HETATM   15  C   UNL     1     -13.047   9.572  72.164  1.00  0.00    -0.522 C  
BRANCH  15  16
HETATM   16  C   UNL     1     -13.318   8.073  72.068  1.00  0.00    -0.244 C  
BRANCH  16  17
HETATM   17  N   UNL     1     -12.137   7.357  71.651  1.00  0.00    -0.302 N  
HETATM   18  N   UNL     1     -12.040   6.739  70.419  1.00  0.00    -0.303 NA 
HETATM   19  C   UNL     1     -10.929   6.074  70.502  1.00  0.00    -0.319 A  
HETATM   20  C   UNL     1     -10.308   5.229  69.460  1.00  0.00    -0.333 A  
HETATM   21  C   UNL     1      -9.148   4.617  69.761  1.00  0.00    -0.162 A  
HETATM   22  C   UNL     1      -8.530   4.769  71.066  1.00  0.00    -0.118 A  
HETATM   23  C   UNL     1      -9.113   5.539  71.999  1.00  0.00    -0.141 A  
HETATM   24  N   UNL     1     -10.283   6.174  71.693  1.00  0.00    -0.194 N  
HETATM   25  C   UNL     1     -11.064   6.986  72.482  1.00  0.00    -0.274 C  
HETATM   26  O   UNL     1     -10.891   7.297  73.654  1.00  0.00    -0.356 OA 
ENDBRANCH  16  17
ENDBRANCH  15  16
ENDBRANCH  14  15
ENDBRANCH  11  14
ENDBRANCH   6   8
TORSDOF 5
ENDMDL
MODEL       39
REMARK 921   NORMALIZED FREE ENERGY PREDICTED BY IDOCK:   -6.14 KCAL/MOL
REMARK 922        TOTAL FREE ENERGY PREDICTED BY IDOCK:   -8.57 KCAL/MOL
REMARK 923 INTER-LIGAND FREE ENERGY PREDICTED BY IDOCK:   -7.72 KCAL/MOL
REMARK 924 INTRA-LIGAND FREE ENERGY PREDICTED BY IDOCK:   -0.85 KCAL/MOL
REMARK 927      BINDING AFFINITY PREDICTED BY RF-SCORE:    0.00 PKD
ROOT
HETATM    1 CL   UNL     1     -10.094   4.753  69.933  1.00  0.00    -0.316 Cl 
HETATM    2  C   UNL     1     -10.405   6.446  69.996  1.00  0.00    -0.198 A  
HETATM    3  C   UNL     1     -10.966   7.000  71.139  1.00  0.00    -0.275 A  
HETATM    4  C   UNL     1     -11.219   8.366  71.177  1.00  0.00    -0.307 A  
HETATM    5  C   UNL     1     -10.925   9.162  70.064  1.00  0.00    -0.240 A  
HETATM    6  C   UNL     1     -10.382   8.621  68.888  1.00  0.00    -0.211 A  
HETATM    7  C   UNL     1     -10.110   7.244  68.888  1.00  0.00    -0.180 A  
ENDROOT
BRANCH   6   8
HETATM    8  N   UNL     1     -10.214   9.406  67.761  1.00  0.00    -0.208 NA 
HETATM    9  C   UNL     1     -10.506  10.847  67.795  1.00  0.00    -0.203 C  
HETATM   10  C   UNL     1      -9.527  11.598  66.864  1.00  0.00    -0.185 C  
HETATM   11  N   UNL     1      -9.491  11.106  65.465  1.00  0.00    -0.215 NA 
HETATM   12  C   UNL     1     -10.134   8.812  66.416  1.00  0.00    -0.243 C  
HETATM   13  C   UNL     1      -9.188   9.650  65.517  1.00  0.00    -0.234 C  
BRANCH  11  14
HETATM   14  C   UNL     1     -10.745  11.351  64.734  1.00  0.00    -0.298 C  
BRANCH  14  15
HETATM   15  C   UNL     1     -10.723  12.649  63.924  1.00  0.00    -0.465 C  
BRANCH  15  16
HETATM   16  C   UNL     1     -11.843  13.586  64.367  1.00  0.00    -0.414 C  
BRANCH  16  17
HETATM   17  N   UNL     1     -11.511  14.244  65.607  1.00  0.00    -0.323 N  
HETATM   18  N   UNL     1     -12.097  13.900  66.810  1.00  0.00    -0.439 NA 
HETATM   19  C   UNL     1     -11.677  14.819  67.623  1.00  0.00    -0.341 A  
HETATM   20  C   UNL     1     -11.977  14.948  69.065  1.00  0.00    -0.307 A  
HETATM   21  C   UNL     1     -11.440  15.990  69.724  1.00  0.00    -0.318 A  
HETATM   22  C   UNL     1     -10.603  16.963  69.046  1.00  0.00    -0.338 A  
HETATM   23  C   UNL     1     -10.346  16.829  67.735  1.00  0.00    -0.318 A  
HETATM   24  N   UNL     1     -10.877  15.764  67.064  1.00  0.00    -0.305 N  
HETATM   25  C   UNL     1     -10.771  15.433  65.734  1.00  0.00    -0.351 C  
HETATM   26  O   UNL     1     -10.192  16.046  64.844  1.00  0.00    -0.483 OA 
ENDBRANCH  16  17
ENDBRANCH  15  16
ENDBRANCH  14  15
ENDBRANCH  11  14
ENDBRANCH   6   8
TORSDOF 5
ENDMDL
MODEL       40
REMARK 921   NORMALIZED FREE ENERGY PREDICTED BY IDOCK:   -6.13 KCAL/MOL
REMARK 922        TOTAL FREE ENERGY PREDICTED BY IDOCK:   -8.55 KCAL/MOL
REMARK 923 INTER-LIGAND FREE ENERGY PREDICTED BY IDOCK:   -7.97 KCAL/MOL
REMARK 924 INTRA-LIGAND FREE ENERGY PREDICTED BY IDOCK:   -0.58 KCAL/MOL
REMARK 927      BINDING AFFINITY PREDICTED BY RF-SCORE:    0.00 PKD
ROOT
HETATM    1 CL   UNL     1      -8.913   1.847  70.684  1.00  0.00    -0.126 Cl 
HETATM    2  C   UNL     1      -9.827   2.905  71.690  1.00  0.00    -0.139 A  
HETATM    3  C   UNL     1     -10.535   2.389  72.767  1.00  0.00    -0.232 A  
HETATM    4  C   UNL     1     -11.275   3.250  73.569  1.00  0.00    -0.280 A  
HETATM    5  C   UNL     1     -11.313   4.618  73.274  1.00  0.00    -0.393 A  
HETATM    6  C   UNL     1     -10.626   5.160  72.176  1.00  0.00    -0.211 A  
HETATM    7  C   UNL     1      -9.865   4.272  71.401  1.00  0.00    -0.260 A  
ENDROOT
BRANCH   6   8
HETATM    8  N   UNL     1     -10.778   6.492  71.837  1.00  0.00    -0.215 NA 
HETATM    9  C   UNL     1     -10.573   7.554  72.834  1.00  0.00    -0.337 C  
HETATM   10  C   UNL     1      -9.969   8.801  72.149  1.00  0.00    -0.289 C  
HETATM   11  N   UNL     1     -10.741   9.315  70.990  1.00  0.00    -0.289 NA 
HETATM   12  C   UNL     1     -11.518   6.898  70.630  1.00  0.00    -0.336 C  
HETATM   13  C   UNL     1     -10.901   8.189  70.032  1.00  0.00    -0.233 C  
BRANCH  11  14
HETATM   14  C   UNL     1     -12.052   9.866  71.369  1.00  0.00    -0.413 C  
BRANCH  14  15
HETATM   15  C   UNL     1     -12.701  10.690  70.255  1.00  0.00    -0.277 C  
BRANCH  15  16
HETATM   16  C   UNL     1     -12.115  12.098  70.206  1.00  0.00    -0.302 C  
BRANCH  16  17
HETATM   17  N   UNL     1     -11.890  12.520  68.845  1.00  0.00    -0.311 N  
HETATM   18  N   UNL     1     -11.693  11.622  67.813  1.00  0.00    -0.557 NA 
HETATM   19  C   UNL     1     -11.354  12.380  66.816  1.00  0.00    -0.335 A  
HETATM   20  C   UNL     1     -11.035  11.958  65.435  1.00  0.00    -0.352 A  
HETATM   21  C   UNL     1     -10.697  12.915  64.552  1.00  0.00    -0.392 A  
HETATM   22  C   UNL     1     -10.635  14.313  64.939  1.00  0.00    -0.452 A  
HETATM   23  C   UNL     1     -10.926  14.674  66.199  1.00  0.00    -0.329 A  
HETATM   24  N   UNL     1     -11.284  13.707  67.096  1.00  0.00    -0.300 N  
HETATM   25  C   UNL     1     -11.601  13.832  68.428  1.00  0.00    -0.334 C  
HETATM   26  O   UNL     1     -11.604  14.846  69.115  1.00  0.00    -0.275 OA 
ENDBRANCH  16  17
ENDBRANCH  15  16
ENDBRANCH  14  15
ENDBRANCH  11  14
ENDBRANCH   6   8
TORSDOF 5
ENDMDL
MODEL       41
REMARK 921   NORMALIZED FREE ENERGY PREDICTED BY IDOCK:   -6.11 KCAL/MOL
REMARK 922        TOTAL FREE ENERGY PREDICTED BY IDOCK:   -8.53 KCAL/MOL
REMARK 923 INTER-LIGAND FREE ENERGY PREDICTED BY IDOCK:   -8.36 KCAL/MOL
REMARK 924 INTRA-LIGAND FREE ENERGY PREDICTED BY IDOCK:   -0.18 KCAL/MOL
REMARK 927      BINDING AFFINITY PREDICTED BY RF-SCORE:    0.00 PKD
ROOT
HETATM    1 CL   UNL     1     -11.130  12.439  63.465  1.00  0.00    -0.514 Cl 
HETATM    2  C   UNL     1     -10.186  11.092  63.976  1.00  0.00    -0.358 A  
HETATM    3  C   UNL     1      -9.366  10.441  63.063  1.00  0.00    -0.344 A  
HETATM    4  C   UNL     1      -8.613   9.351  63.483  1.00  0.00    -0.215 A  
HETATM    5  C   UNL     1      -8.701   8.912  64.809  1.00  0.00    -0.162 A  
HETATM    6  C   UNL     1      -9.542   9.536  65.744  1.00  0.00    -0.270 A  
HETATM    7  C   UNL     1     -10.269  10.651  65.299  1.00  0.00    -0.351 A  
ENDROOT
BRANCH   6   8
HETATM    8  N   UNL     1      -9.702   9.009  67.012  1.00  0.00    -0.174 NA 
HETATM    9  C   UNL     1     -10.305   7.682  67.207  1.00  0.00    -0.297 C  
HETATM   10  C   UNL     1      -9.649   6.986  68.422  1.00  0.00    -0.135 C  
HETATM   11  N   UNL     1      -9.683   7.766  69.684  1.00  0.00    -0.171 NA 
HETATM   12  C   UNL     1      -9.663   9.864  68.210  1.00  0.00    -0.144 C  
HETATM   13  C   UNL     1      -9.055   9.085  69.405  1.00  0.00    -0.146 C  
BRANCH  11  14
HETATM   14  C   UNL     1     -11.044   7.939  70.219  1.00  0.00    -0.229 C  
BRANCH  14  15
HETATM   15  C   UNL     1     -11.192   9.191  71.086  1.00  0.00    -0.395 C  
BRANCH  15  16
HETATM   16  C   UNL     1     -12.609   9.751  70.996  1.00  0.00    -0.314 C  
BRANCH  16  17
HETATM   17  N   UNL     1     -12.617  11.179  71.198  1.00  0.00    -0.402 N  
HETATM   18  N   UNL     1     -13.356  11.782  72.199  1.00  0.00    -0.406 NA 
HETATM   19  C   UNL     1     -13.241  13.047  71.937  1.00  0.00    -0.430 A  
HETATM   20  C   UNL     1     -13.819  14.178  72.695  1.00  0.00    -0.504 A  
HETATM   21  C   UNL     1     -13.580  15.421  72.241  1.00  0.00    -0.606 A  
HETATM   22  C   UNL     1     -12.792  15.651  71.043  1.00  0.00    -0.521 A  
HETATM   23  C   UNL     1     -12.279  14.609  70.368  1.00  0.00    -0.329 A  
HETATM   24  N   UNL     1     -12.507  13.345  70.833  1.00  0.00    -0.371 N  
HETATM   25  C   UNL     1     -12.106  12.140  70.307  1.00  0.00    -0.302 C  
HETATM   26  O   UNL     1     -11.474  11.934  69.278  1.00  0.00    -0.262 OA 
ENDBRANCH  16  17
ENDBRANCH  15  16
ENDBRANCH  14  15
ENDBRANCH  11  14
ENDBRANCH   6   8
TORSDOF 5
ENDMDL
MODEL       42
REMARK 921   NORMALIZED FREE ENERGY PREDICTED BY IDOCK:   -6.11 KCAL/MOL
REMARK 922        TOTAL FREE ENERGY PREDICTED BY IDOCK:   -8.53 KCAL/MOL
REMARK 923 INTER-LIGAND FREE ENERGY PREDICTED BY IDOCK:   -8.10 KCAL/MOL
REMARK 924 INTRA-LIGAND FREE ENERGY PREDICTED BY IDOCK:   -0.43 KCAL/MOL
REMARK 927      BINDING AFFINITY PREDICTED BY RF-SCORE:    0.00 PKD
ROOT
HETATM    1 CL   UNL     1      -9.869   4.158  70.885  1.00  0.00    -0.263 Cl 
HETATM    2  C   UNL     1     -10.165   5.731  71.520  1.00  0.00    -0.203 A  
HETATM    3  C   UNL     1     -10.267   5.910  72.893  1.00  0.00    -0.212 A  
HETATM    4  C   UNL     1     -10.512   7.183  73.396  1.00  0.00    -0.410 A  
HETATM    5  C   UNL     1     -10.670   8.261  72.517  1.00  0.00    -0.411 A  
HETATM    6  C   UNL     1     -10.598   8.101  71.125  1.00  0.00    -0.204 A  
HETATM    7  C   UNL     1     -10.321   6.811  70.647  1.00  0.00    -0.225 A  
ENDROOT
BRANCH   6   8
HETATM    8  N   UNL     1     -10.878   9.157  70.277  1.00  0.00    -0.237 NA 
HETATM    9  C   UNL     1     -10.132   9.337  69.022  1.00  0.00    -0.199 C  
HETATM   10  C   UNL     1     -11.066   9.929  67.942  1.00  0.00    -0.152 C  
HETATM   11  N   UNL     1     -11.751  11.187  68.327  1.00  0.00    -0.515 NA 
HETATM   12  C   UNL     1     -11.617  10.342  70.744  1.00  0.00    -0.358 C  
HETATM   13  C   UNL     1     -12.482  10.922  69.595  1.00  0.00    -0.129 C  
BRANCH  11  14
HETATM   14  C   UNL     1     -10.827  12.322  68.485  1.00  0.00    -0.237 C  
BRANCH  14  15
HETATM   15  C   UNL     1     -11.346  13.612  67.846  1.00  0.00    -0.325 C  
BRANCH  15  16
HETATM   16  C   UNL     1     -10.237  14.322  67.075  1.00  0.00    -0.260 C  
BRANCH  16  17
HETATM   17  N   UNL     1     -10.328  15.753  67.233  1.00  0.00    -0.283 N  
HETATM   18  N   UNL     1     -10.534  16.605  66.165  1.00  0.00    -0.311 NA 
HETATM   19  C   UNL     1     -10.376  17.783  66.685  1.00  0.00    -0.345 A  
HETATM   20  C   UNL     1     -10.495  19.090  66.004  1.00  0.00    -0.530 A  
HETATM   21  C   UNL     1     -10.282  20.198  66.735  1.00  0.00    -0.562 A  
HETATM   22  C   UNL     1      -9.936  20.119  68.143  1.00  0.00    -0.486 A  
HETATM   23  C   UNL     1      -9.829  18.922  68.742  1.00  0.00    -0.404 A  
HETATM   24  N   UNL     1     -10.059  17.794  68.006  1.00  0.00    -0.335 N  
HETATM   25  C   UNL     1      -9.991  16.476  68.392  1.00  0.00    -0.250 C  
HETATM   26  O   UNL     1      -9.677  16.021  69.485  1.00  0.00    -0.253 OA 
ENDBRANCH  16  17
ENDBRANCH  15  16
ENDBRANCH  14  15
ENDBRANCH  11  14
ENDBRANCH   6   8
TORSDOF 5
ENDMDL
MODEL       43
REMARK 921   NORMALIZED FREE ENERGY PREDICTED BY IDOCK:   -6.10 KCAL/MOL
REMARK 922        TOTAL FREE ENERGY PREDICTED BY IDOCK:   -8.52 KCAL/MOL
REMARK 923 INTER-LIGAND FREE ENERGY PREDICTED BY IDOCK:   -7.49 KCAL/MOL
REMARK 924 INTRA-LIGAND FREE ENERGY PREDICTED BY IDOCK:   -1.03 KCAL/MOL
REMARK 927      BINDING AFFINITY PREDICTED BY RF-SCORE:    0.00 PKD
ROOT
HETATM    1 CL   UNL     1     -12.219  13.201  63.206  1.00  0.00    -0.575 Cl 
HETATM    2  C   UNL     1     -11.851  12.928  64.867  1.00  0.00    -0.366 A  
HETATM    3  C   UNL     1     -12.224  13.869  65.817  1.00  0.00    -0.488 A  
HETATM    4  C   UNL     1     -11.918  13.642  67.154  1.00  0.00    -0.434 A  
HETATM    5  C   UNL     1     -11.225  12.484  67.524  1.00  0.00    -0.342 A  
HETATM    6  C   UNL     1     -10.814  11.531  66.579  1.00  0.00    -0.288 A  
HETATM    7  C   UNL     1     -11.162  11.772  65.242  1.00  0.00    -0.315 A  
ENDROOT
BRANCH   6   8
HETATM    8  N   UNL     1     -10.027  10.458  66.955  1.00  0.00    -0.198 NA 
HETATM    9  C   UNL     1     -10.570   9.380  67.795  1.00  0.00    -0.258 C  
HETATM   10  C   UNL     1      -9.925   8.033  67.394  1.00  0.00    -0.207 C  
HETATM   11  N   UNL     1      -8.441   8.017  67.420  1.00  0.00    -0.125 NA 
HETATM   12  C   UNL     1      -8.557  10.524  66.890  1.00  0.00    -0.125 C  
HETATM   13  C   UNL     1      -7.973   9.128  66.549  1.00  0.00    -0.100 C  
BRANCH  11  14
HETATM   14  C   UNL     1      -7.886   8.150  68.777  1.00  0.00    -0.113 C  
BRANCH  14  15
HETATM   15  C   UNL     1      -8.016   6.870  69.606  1.00  0.00    -0.125 C  
BRANCH  15  16
HETATM   16  C   UNL     1      -8.433   7.189  71.038  1.00  0.00    -0.129 C  
BRANCH  16  17
HETATM   17  N   UNL     1      -9.813   7.605  71.097  1.00  0.00    -0.173 N  
HETATM   18  N   UNL     1     -10.184   8.904  71.392  1.00  0.00    -0.276 NA 
HETATM   19  C   UNL     1     -11.472   8.827  71.523  1.00  0.00    -0.305 A  
HETATM   20  C   UNL     1     -12.412   9.927  71.827  1.00  0.00    -0.487 A  
HETATM   21  C   UNL     1     -13.719   9.623  71.927  1.00  0.00    -0.376 A  
HETATM   22  C   UNL     1     -14.194   8.262  71.754  1.00  0.00    -0.544 A  
HETATM   23  C   UNL     1     -13.323   7.278  71.480  1.00  0.00    -0.369 A  
HETATM   24  N   UNL     1     -11.996   7.583  71.364  1.00  0.00    -0.297 N  
HETATM   25  C   UNL     1     -10.931   6.751  71.112  1.00  0.00    -0.257 C  
HETATM   26  O   UNL     1     -10.937   5.535  70.965  1.00  0.00    -0.222 OA 
ENDBRANCH  16  17
ENDBRANCH  15  16
ENDBRANCH  14  15
ENDBRANCH  11  14
ENDBRANCH   6   8
TORSDOF 5
ENDMDL
MODEL       44
REMARK 921   NORMALIZED FREE ENERGY PREDICTED BY IDOCK:   -6.10 KCAL/MOL
REMARK 922        TOTAL FREE ENERGY PREDICTED BY IDOCK:   -8.52 KCAL/MOL
REMARK 923 INTER-LIGAND FREE ENERGY PREDICTED BY IDOCK:   -8.25 KCAL/MOL
REMARK 924 INTRA-LIGAND FREE ENERGY PREDICTED BY IDOCK:   -0.27 KCAL/MOL
REMARK 927      BINDING AFFINITY PREDICTED BY RF-SCORE:    0.00 PKD
ROOT
HETATM    1 CL   UNL     1      -9.383   3.229  67.442  1.00  0.00    -0.238 Cl 
HETATM    2  C   UNL     1      -9.643   3.780  69.053  1.00  0.00    -0.120 A  
HETATM    3  C   UNL     1      -9.514   2.891  70.112  1.00  0.00    -0.198 A  
HETATM    4  C   UNL     1      -9.731   3.344  71.409  1.00  0.00    -0.234 A  
HETATM    5  C   UNL     1     -10.093   4.678  71.630  1.00  0.00    -0.258 A  
HETATM    6  C   UNL     1     -10.255   5.588  70.574  1.00  0.00    -0.242 A  
HETATM    7  C   UNL     1     -10.002   5.111  69.279  1.00  0.00    -0.280 A  
ENDROOT
BRANCH   6   8
HETATM    8  N   UNL     1     -10.731   6.866  70.810  1.00  0.00    -0.227 NA 
HETATM    9  C   UNL     1     -12.149   7.097  71.124  1.00  0.00    -0.358 C  
HETATM   10  C   UNL     1     -12.275   8.279  72.113  1.00  0.00    -0.364 C  
HETATM   11  N   UNL     1     -11.627   9.538  71.671  1.00  0.00    -0.393 NA 
HETATM   12  C   UNL     1      -9.980   8.057  70.378  1.00  0.00    -0.188 C  
HETATM   13  C   UNL     1     -10.203   9.221  71.378  1.00  0.00    -0.301 C  
BRANCH  11  14
HETATM   14  C   UNL     1     -12.278  10.142  70.497  1.00  0.00    -0.264 C  
BRANCH  14  15
HETATM   15  C   UNL     1     -11.299  10.879  69.581  1.00  0.00    -0.362 C  
BRANCH  15  16
HETATM   16  C   UNL     1     -11.683  12.349  69.444  1.00  0.00    -0.322 C  
BRANCH  16  17
HETATM   17  N   UNL     1     -11.887  12.707  68.062  1.00  0.00    -0.343 N  
HETATM   18  N   UNL     1     -11.864  11.773  67.043  1.00  0.00    -0.607 NA 
HETATM   19  C   UNL     1     -11.904  12.500  65.969  1.00  0.00    -0.418 A  
HETATM   20  C   UNL     1     -11.919  12.030  64.567  1.00  0.00    -0.350 A  
HETATM   21  C   UNL     1     -11.955  12.961  63.596  1.00  0.00    -0.613 A  
HETATM   22  C   UNL     1     -11.969  14.379  63.909  1.00  0.00    -0.157 A  
HETATM   23  C   UNL     1     -11.952  14.783  65.189  1.00  0.00    -0.278 A  
HETATM   24  N   UNL     1     -11.930  13.842  66.178  1.00  0.00    -0.393 N  
HETATM   25  C   UNL     1     -11.890  14.014  67.542  1.00  0.00    -0.407 C  
HETATM   26  O   UNL     1     -11.836  15.063  68.172  1.00  0.00    -0.334 OA 
ENDBRANCH  16  17
ENDBRANCH  15  16
ENDBRANCH  14  15
ENDBRANCH  11  14
ENDBRANCH   6   8
TORSDOF 5
ENDMDL
MODEL       45
REMARK 921   NORMALIZED FREE ENERGY PREDICTED BY IDOCK:   -6.03 KCAL/MOL
REMARK 922        TOTAL FREE ENERGY PREDICTED BY IDOCK:   -8.43 KCAL/MOL
REMARK 923 INTER-LIGAND FREE ENERGY PREDICTED BY IDOCK:   -7.80 KCAL/MOL
REMARK 924 INTRA-LIGAND FREE ENERGY PREDICTED BY IDOCK:   -0.63 KCAL/MOL
REMARK 927      BINDING AFFINITY PREDICTED BY RF-SCORE:    0.00 PKD
ROOT
HETATM    1 CL   UNL     1      -9.676   3.932  70.568  1.00  0.00    -0.262 Cl 
HETATM    2  C   UNL     1      -9.992   5.169  71.724  1.00  0.00    -0.187 A  
HETATM    3  C   UNL     1      -9.712   4.944  73.066  1.00  0.00    -0.166 A  
HETATM    4  C   UNL     1      -9.977   5.947  73.992  1.00  0.00    -0.227 A  
HETATM    5  C   UNL     1     -10.537   7.157  73.568  1.00  0.00    -0.416 A  
HETATM    6  C   UNL     1     -10.853   7.399  72.222  1.00  0.00    -0.247 A  
HETATM    7  C   UNL     1     -10.548   6.381  71.306  1.00  0.00    -0.275 A  
ENDROOT
BRANCH   6   8
HETATM    8  N   UNL     1     -11.516   8.554  71.849  1.00  0.00    -0.311 NA 
HETATM    9  C   UNL     1     -10.808   9.641  71.156  1.00  0.00    -0.334 C  
HETATM   10  C   UNL     1     -11.764  10.329  70.155  1.00  0.00    -0.284 C  
HETATM   11  N   UNL     1     -13.034  10.824  70.740  1.00  0.00    -0.312 NA 
HETATM   12  C   UNL     1     -12.806   8.928  72.452  1.00  0.00    -0.380 C  
HETATM   13  C   UNL     1     -13.688   9.670  71.414  1.00  0.00    -0.204 C  
BRANCH  11  14
HETATM   14  C   UNL     1     -12.840  11.937  71.683  1.00  0.00    -0.312 C  
BRANCH  14  15
HETATM   15  C   UNL     1     -13.268  13.290  71.110  1.00  0.00    -0.145 C  
BRANCH  15  16
HETATM   16  C   UNL     1     -12.069  14.222  70.962  1.00  0.00    -0.344 C  
BRANCH  16  17
HETATM   17  N   UNL     1     -11.871  14.598  69.584  1.00  0.00    -0.301 N  
HETATM   18  N   UNL     1     -12.217  13.772  68.532  1.00  0.00    -0.279 NA 
HETATM   19  C   UNL     1     -11.725  14.380  67.497  1.00  0.00    -0.387 A  
HETATM   20  C   UNL     1     -11.806  13.956  66.082  1.00  0.00    -0.422 A  
HETATM   21  C   UNL     1     -11.215  14.737  65.161  1.00  0.00    -0.384 A  
HETATM   22  C   UNL     1     -10.512  15.950  65.537  1.00  0.00    -0.425 A  
HETATM   23  C   UNL     1     -10.448  16.315  66.827  1.00  0.00    -0.287 A  
HETATM   24  N   UNL     1     -11.059  15.533  67.766  1.00  0.00    -0.314 N  
HETATM   25  C   UNL     1     -11.110  15.691  69.130  1.00  0.00    -0.284 C  
HETATM   26  O   UNL     1     -10.587  16.565  69.813  1.00  0.00    -0.311 OA 
ENDBRANCH  16  17
ENDBRANCH  15  16
ENDBRANCH  14  15
ENDBRANCH  11  14
ENDBRANCH   6   8
TORSDOF 5
ENDMDL
MODEL       46
REMARK 921   NORMALIZED FREE ENERGY PREDICTED BY IDOCK:   -6.02 KCAL/MOL
REMARK 922        TOTAL FREE ENERGY PREDICTED BY IDOCK:   -8.42 KCAL/MOL
REMARK 923 INTER-LIGAND FREE ENERGY PREDICTED BY IDOCK:   -7.53 KCAL/MOL
REMARK 924 INTRA-LIGAND FREE ENERGY PREDICTED BY IDOCK:   -0.89 KCAL/MOL
REMARK 927      BINDING AFFINITY PREDICTED BY RF-SCORE:    0.00 PKD
ROOT
HETATM    1 CL   UNL     1      -7.730   8.321  65.084  1.00  0.00    -0.096 Cl 
HETATM    2  C   UNL     1      -8.667   9.575  64.366  1.00  0.00    -0.208 A  
HETATM    3  C   UNL     1      -8.761   9.657  62.983  1.00  0.00    -0.229 A  
HETATM    4  C   UNL     1      -9.515  10.677  62.413  1.00  0.00    -0.240 A  
HETATM    5  C   UNL     1     -10.152  11.615  63.233  1.00  0.00    -0.454 A  
HETATM    6  C   UNL     1     -10.050  11.568  64.632  1.00  0.00    -0.271 A  
HETATM    7  C   UNL     1      -9.307  10.512  65.181  1.00  0.00    -0.262 A  
ENDROOT
BRANCH   6   8
HETATM    8  N   UNL     1     -10.588  12.576  65.413  1.00  0.00    -0.274 NA 
HETATM    9  C   UNL     1      -9.720  13.487  66.173  1.00  0.00    -0.252 C  
HETATM   10  C   UNL     1     -10.361  14.892  66.227  1.00  0.00    -0.294 C  
HETATM   11  N   UNL     1     -11.747  14.929  66.756  1.00  0.00    -0.293 NA 
HETATM   12  C   UNL     1     -11.997  12.547  65.840  1.00  0.00    -0.409 C  
HETATM   13  C   UNL     1     -12.557  13.990  65.936  1.00  0.00    -0.449 C  
BRANCH  11  14
HETATM   14  C   UNL     1     -11.829  14.578  68.184  1.00  0.00    -0.313 C  
BRANCH  14  15
HETATM   15  C   UNL     1     -12.008  15.797  69.091  1.00  0.00    -0.312 C  
BRANCH  15  16
HETATM   16  C   UNL     1     -10.709  16.131  69.817  1.00  0.00    -0.336 C  
BRANCH  16  17
HETATM   17  N   UNL     1      -9.924  17.082  69.067  1.00  0.00    -0.280 N  
HETATM   18  N   UNL     1     -10.489  18.169  68.427  1.00  0.00    -0.338 NA 
HETATM   19  C   UNL     1      -9.504  18.656  67.737  1.00  0.00    -0.300 A  
HETATM   20  C   UNL     1      -9.524  19.847  66.861  1.00  0.00    -0.506 A  
HETATM   21  C   UNL     1      -8.385  20.176  66.227  1.00  0.00    -0.259 A  
HETATM   22  C   UNL     1      -7.177  19.386  66.385  1.00  0.00    -0.252 A  
HETATM   23  C   UNL     1      -7.181  18.306  67.183  1.00  0.00    -0.200 A  
HETATM   24  N   UNL     1      -8.333  17.977  67.841  1.00  0.00    -0.243 N  
HETATM   25  C   UNL     1      -8.580  16.919  68.684  1.00  0.00    -0.267 C  
HETATM   26  O   UNL     1      -7.820  16.015  69.010  1.00  0.00    -0.196 OA 
ENDBRANCH  16  17
ENDBRANCH  15  16
ENDBRANCH  14  15
ENDBRANCH  11  14
ENDBRANCH   6   8
TORSDOF 5
ENDMDL
MODEL       47
REMARK 921   NORMALIZED FREE ENERGY PREDICTED BY IDOCK:   -6.00 KCAL/MOL
REMARK 922        TOTAL FREE ENERGY PREDICTED BY IDOCK:   -8.39 KCAL/MOL
REMARK 923 INTER-LIGAND FREE ENERGY PREDICTED BY IDOCK:   -7.49 KCAL/MOL
REMARK 924 INTRA-LIGAND FREE ENERGY PREDICTED BY IDOCK:   -0.89 KCAL/MOL
REMARK 927      BINDING AFFINITY PREDICTED BY RF-SCORE:    0.00 PKD
ROOT
HETATM    1 CL   UNL     1     -10.638  15.590  65.295  1.00  0.00    -0.418 Cl 
HETATM    2  C   UNL     1     -11.010  13.981  64.805  1.00  0.00    -0.402 A  
HETATM    3  C   UNL     1     -11.989  13.764  63.844  1.00  0.00    -0.414 A  
HETATM    4  C   UNL     1     -12.286  12.461  63.460  1.00  0.00    -0.648 A  
HETATM    5  C   UNL     1     -11.613  11.388  64.055  1.00  0.00    -0.135 A  
HETATM    6  C   UNL     1     -10.638  11.580  65.046  1.00  0.00    -0.297 A  
HETATM    7  C   UNL     1     -10.338  12.906  65.394  1.00  0.00    -0.310 A  
ENDROOT
BRANCH   6   8
HETATM    8  N   UNL     1     -10.076  10.500  65.703  1.00  0.00    -0.264 NA 
HETATM    9  C   UNL     1     -10.599  10.051  67.002  1.00  0.00    -0.212 C  
HETATM   10  C   UNL     1     -10.471   8.514  67.110  1.00  0.00    -0.299 C  
HETATM   11  N   UNL     1      -9.104   7.982  66.885  1.00  0.00    -0.145 NA 
HETATM   12  C   UNL     1      -8.728  10.013  65.365  1.00  0.00    -0.159 C  
HETATM   13  C   UNL     1      -8.651   8.476  65.557  1.00  0.00    -0.180 C  
BRANCH  11  14
HETATM   14  C   UNL     1      -8.152   8.372  67.938  1.00  0.00    -0.123 C  
BRANCH  14  15
HETATM   15  C   UNL     1      -8.019   7.324  69.045  1.00  0.00    -0.119 C  
BRANCH  15  16
HETATM   16  C   UNL     1      -8.225   7.954  70.419  1.00  0.00    -0.119 C  
BRANCH  16  17
HETATM   17  N   UNL     1      -9.613   8.277  70.640  1.00  0.00    -0.169 N  
HETATM   18  N   UNL     1     -10.070   9.580  70.707  1.00  0.00    -0.291 NA 
HETATM   19  C   UNL     1     -11.303   9.447  71.089  1.00  0.00    -0.351 A  
HETATM   20  C   UNL     1     -12.294  10.521  71.314  1.00  0.00    -0.502 A  
HETATM   21  C   UNL     1     -13.525  10.160  71.719  1.00  0.00    -0.406 A  
HETATM   22  C   UNL     1     -13.871   8.767  71.938  1.00  0.00    -0.491 A  
HETATM   23  C   UNL     1     -12.954   7.808  71.730  1.00  0.00    -0.323 A  
HETATM   24  N   UNL     1     -11.707   8.168  71.305  1.00  0.00    -0.276 N  
HETATM   25  C   UNL     1     -10.613   7.376  71.048  1.00  0.00    -0.224 C  
HETATM   26  O   UNL     1     -10.510   6.162  71.174  1.00  0.00    -0.214 OA 
ENDBRANCH  16  17
ENDBRANCH  15  16
ENDBRANCH  14  15
ENDBRANCH  11  14
ENDBRANCH   6   8
TORSDOF 5
ENDMDL
MODEL       48
REMARK 921   NORMALIZED FREE ENERGY PREDICTED BY IDOCK:   -5.99 KCAL/MOL
REMARK 922        TOTAL FREE ENERGY PREDICTED BY IDOCK:   -8.37 KCAL/MOL
REMARK 923 INTER-LIGAND FREE ENERGY PREDICTED BY IDOCK:   -7.75 KCAL/MOL
REMARK 924 INTRA-LIGAND FREE ENERGY PREDICTED BY IDOCK:   -0.62 KCAL/MOL
REMARK 927      BINDING AFFINITY PREDICTED BY RF-SCORE:    0.00 PKD
ROOT
HETATM    1 CL   UNL     1      -9.864   4.064  70.591  1.00  0.00    -0.264 Cl 
HETATM    2  C   UNL     1     -10.293   5.479  71.473  1.00  0.00    -0.222 A  
HETATM    3  C   UNL     1     -10.473   5.404  72.848  1.00  0.00    -0.250 A  
HETATM    4  C   UNL     1     -10.825   6.551  73.550  1.00  0.00    -0.211 A  
HETATM    5  C   UNL     1     -11.010   7.758  72.867  1.00  0.00    -0.467 A  
HETATM    6  C   UNL     1     -10.860   7.854  71.475  1.00  0.00    -0.229 A  
HETATM    7  C   UNL     1     -10.477   6.687  70.795  1.00  0.00    -0.251 A  
ENDROOT
BRANCH   6   8
HETATM    8  N   UNL     1     -11.167   9.027  70.810  1.00  0.00    -0.263 NA 
HETATM    9  C   UNL     1     -10.288   9.549  69.753  1.00  0.00    -0.230 C  
HETATM   10  C   UNL     1     -11.139  10.247  68.667  1.00  0.00    -0.239 C  
HETATM   11  N   UNL     1     -12.041  11.313  69.168  1.00  0.00    -0.392 NA 
HETATM   12  C   UNL     1     -12.124   9.998  71.368  1.00  0.00    -0.407 C  
HETATM   13  C   UNL     1     -12.895  10.708  70.225  1.00  0.00    -0.147 C  
BRANCH  11  14
HETATM   14  C   UNL     1     -11.318  12.484  69.690  1.00  0.00    -0.112 C  
BRANCH  14  15
HETATM   15  C   UNL     1     -12.103  13.789  69.542  1.00  0.00    -0.386 C  
BRANCH  15  16
HETATM   16  C   UNL     1     -11.459  14.696  68.498  1.00  0.00    -0.302 C  
BRANCH  16  17
HETATM   17  N   UNL     1     -11.318  14.016  67.234  1.00  0.00    -0.315 N  
HETATM   18  N   UNL     1     -12.397  13.739  66.415  1.00  0.00    -0.434 NA 
HETATM   19  C   UNL     1     -11.888  12.981  65.494  1.00  0.00    -0.395 A  
HETATM   20  C   UNL     1     -12.585  12.390  64.331  1.00  0.00    -0.489 A  
HETATM   21  C   UNL     1     -11.865  11.622  63.495  1.00  0.00    -0.365 A  
HETATM   22  C   UNL     1     -10.454  11.368  63.727  1.00  0.00    -0.456 A  
HETATM   23  C   UNL     1      -9.842  11.912  64.791  1.00  0.00    -0.191 A  
HETATM   24  N   UNL     1     -10.566  12.705  65.635  1.00  0.00    -0.268 N  
HETATM   25  C   UNL     1     -10.165  13.345  66.784  1.00  0.00    -0.259 C  
HETATM   26  O   UNL     1      -9.065  13.319  67.323  1.00  0.00    -0.203 OA 
ENDBRANCH  16  17
ENDBRANCH  15  16
ENDBRANCH  14  15
ENDBRANCH  11  14
ENDBRANCH   6   8
TORSDOF 5
ENDMDL
MODEL       49
REMARK 921   NORMALIZED FREE ENERGY PREDICTED BY IDOCK:   -5.95 KCAL/MOL
REMARK 922        TOTAL FREE ENERGY PREDICTED BY IDOCK:   -8.33 KCAL/MOL
REMARK 923 INTER-LIGAND FREE ENERGY PREDICTED BY IDOCK:   -7.18 KCAL/MOL
REMARK 924 INTRA-LIGAND FREE ENERGY PREDICTED BY IDOCK:   -1.15 KCAL/MOL
REMARK 927      BINDING AFFINITY PREDICTED BY RF-SCORE:    0.00 PKD
ROOT
HETATM    1 CL   UNL     1     -13.460  15.554  71.864  1.00  0.00    -0.546 Cl 
HETATM    2  C   UNL     1     -12.777  14.315  70.883  1.00  0.00    -0.357 A  
HETATM    3  C   UNL     1     -12.345  14.616  69.597  1.00  0.00    -0.270 A  
HETATM    4  C   UNL     1     -11.801  13.607  68.810  1.00  0.00    -0.395 A  
HETATM    5  C   UNL     1     -11.710  12.304  69.312  1.00  0.00    -0.388 A  
HETATM    6  C   UNL     1     -12.162  11.970  70.597  1.00  0.00    -0.316 A  
HETATM    7  C   UNL     1     -12.681  13.013  71.380  1.00  0.00    -0.375 A  
ENDROOT
BRANCH   6   8
HETATM    8  N   UNL     1     -12.172  10.653  71.023  1.00  0.00    -0.370 NA 
HETATM    9  C   UNL     1     -10.995   9.791  70.838  1.00  0.00    -0.341 C  
HETATM   10  C   UNL     1     -10.884   8.803  72.022  1.00  0.00    -0.358 C  
HETATM   11  N   UNL     1     -12.097   7.984  72.271  1.00  0.00    -0.342 NA 
HETATM   12  C   UNL     1     -13.434   9.945  71.298  1.00  0.00    -0.280 C  
HETATM   13  C   UNL     1     -13.235   8.925  72.449  1.00  0.00    -0.430 C  
BRANCH  11  14
HETATM   14  C   UNL     1     -12.378   7.026  71.189  1.00  0.00    -0.378 C  
BRANCH  14  15
HETATM   15  C   UNL     1     -11.208   6.080  70.908  1.00  0.00    -0.335 C  
BRANCH  15  16
HETATM   16  C   UNL     1     -10.972   5.938  69.407  1.00  0.00    -0.350 C  
BRANCH  16  17
HETATM   17  N   UNL     1      -9.901   6.797  68.966  1.00  0.00    -0.148 N  
HETATM   18  N   UNL     1      -8.762   7.010  69.720  1.00  0.00    -0.141 NA 
HETATM   19  C   UNL     1      -8.149   7.956  69.078  1.00  0.00    -0.124 A  
HETATM   20  C   UNL     1      -6.855   8.583  69.422  1.00  0.00    -0.046 A  
HETATM   21  C   UNL     1      -6.400   9.560  68.618  1.00  0.00    -0.048 A  
HETATM   22  C   UNL     1      -7.155   9.996  67.457  1.00  0.00    -0.087 A  
HETATM   23  C   UNL     1      -8.329   9.415  67.164  1.00  0.00    -0.124 A  
HETATM   24  N   UNL     1      -8.789   8.412  67.969  1.00  0.00    -0.141 N  
HETATM   25  C   UNL     1      -9.957   7.693  67.882  1.00  0.00    -0.169 C  
HETATM   26  O   UNL     1     -10.865   7.817  67.069  1.00  0.00    -0.316 OA 
ENDBRANCH  16  17
ENDBRANCH  15  16
ENDBRANCH  14  15
ENDBRANCH  11  14
ENDBRANCH   6   8
TORSDOF 5
ENDMDL
MODEL       50
REMARK 921   NORMALIZED FREE ENERGY PREDICTED BY IDOCK:   -5.93 KCAL/MOL
REMARK 922        TOTAL FREE ENERGY PREDICTED BY IDOCK:   -8.30 KCAL/MOL
REMARK 923 INTER-LIGAND FREE ENERGY PREDICTED BY IDOCK:   -7.77 KCAL/MOL
REMARK 924 INTRA-LIGAND FREE ENERGY PREDICTED BY IDOCK:   -0.53 KCAL/MOL
REMARK 927      BINDING AFFINITY PREDICTED BY RF-SCORE:    0.00 PKD
ROOT
HETATM    1 CL   UNL     1      -7.611   4.672  67.481  1.00  0.00    -0.078 Cl 
HETATM    2  C   UNL     1      -8.814   5.586  68.308  1.00  0.00    -0.104 A  
HETATM    3  C   UNL     1      -9.691   4.943  69.173  1.00  0.00    -0.252 A  
HETATM    4  C   UNL     1     -10.662   5.688  69.832  1.00  0.00    -0.399 A  
HETATM    5  C   UNL     1     -10.758   7.066  69.605  1.00  0.00    -0.265 A  
HETATM    6  C   UNL     1      -9.901   7.733  68.716  1.00  0.00    -0.169 A  
HETATM    7  C   UNL     1      -8.912   6.962  68.087  1.00  0.00    -0.123 A  
ENDROOT
BRANCH   6   8
HETATM    8  N   UNL     1     -10.095   9.070  68.418  1.00  0.00    -0.184 NA 
HETATM    9  C   UNL     1      -9.751   9.605  67.092  1.00  0.00    -0.174 C  
HETATM   10  C   UNL     1     -10.747  10.724  66.709  1.00  0.00    -0.231 C  
HETATM   11  N   UNL     1     -10.867  11.822  67.700  1.00  0.00    -0.206 NA 
HETATM   12  C   UNL     1     -10.260  10.077  69.479  1.00  0.00    -0.234 C  
HETATM   13  C   UNL     1     -11.218  11.202  69.006  1.00  0.00    -0.256 C  
BRANCH  11  14
HETATM   14  C   UNL     1      -9.641  12.628  67.819  1.00  0.00    -0.197 C  
BRANCH  14  15
HETATM   15  C   UNL     1      -9.377  13.502  66.591  1.00  0.00    -0.254 C  
BRANCH  15  16
HETATM   16  C   UNL     1     -10.595  14.360  66.261  1.00  0.00    -0.292 C  
BRANCH  16  17
HETATM   17  N   UNL     1     -10.339  15.753  66.534  1.00  0.00    -0.286 N  
HETATM   18  N   UNL     1     -10.026  16.216  67.798  1.00  0.00    -0.234 NA 
HETATM   19  C   UNL     1     -10.050  17.506  67.661  1.00  0.00    -0.328 A  
HETATM   20  C   UNL     1      -9.773  18.525  68.696  1.00  0.00    -0.398 A  
HETATM   21  C   UNL     1      -9.862  19.819  68.338  1.00  0.00    -0.522 A  
HETATM   22  C   UNL     1     -10.228  20.207  66.988  1.00  0.00    -0.558 A  
HETATM   23  C   UNL     1     -10.478  19.265  66.064  1.00  0.00    -0.487 A  
HETATM   24  N   UNL     1     -10.375  17.949  66.418  1.00  0.00    -0.374 N  
HETATM   25  C   UNL     1     -10.600  16.825  65.660  1.00  0.00    -0.246 C  
HETATM   26  O   UNL     1     -10.975  16.757  64.496  1.00  0.00    -0.921 OA 
ENDBRANCH  16  17
ENDBRANCH  15  16
ENDBRANCH  14  15
ENDBRANCH  11  14
ENDBRANCH   6   8
TORSDOF 5
ENDMDL
MODEL       51
REMARK 921   NORMALIZED FREE ENERGY PREDICTED BY IDOCK:   -5.90 KCAL/MOL
REMARK 922        TOTAL FREE ENERGY PREDICTED BY IDOCK:   -8.26 KCAL/MOL
REMARK 923 INTER-LIGAND FREE ENERGY PREDICTED BY IDOCK:   -7.88 KCAL/MOL
REMARK 924 INTRA-LIGAND FREE ENERGY PREDICTED BY IDOCK:   -0.39 KCAL/MOL
REMARK 927      BINDING AFFINITY PREDICTED BY RF-SCORE:    0.00 PKD
ROOT
HETATM    1 CL   UNL     1     -12.020   6.147  72.286  1.00  0.00    -0.343 Cl 
HETATM    2  C   UNL     1     -11.068   6.252  70.854  1.00  0.00    -0.306 A  
HETATM    3  C   UNL     1     -10.259   5.184  70.487  1.00  0.00    -0.330 A  
HETATM    4  C   UNL     1      -9.490   5.281  69.332  1.00  0.00    -0.190 A  
HETATM    5  C   UNL     1      -9.525   6.453  68.567  1.00  0.00    -0.120 A  
HETATM    6  C   UNL     1     -10.314   7.555  68.932  1.00  0.00    -0.211 A  
HETATM    7  C   UNL     1     -11.101   7.418  70.085  1.00  0.00    -0.265 A  
ENDROOT
BRANCH   6   8
HETATM    8  N   UNL     1     -10.237   8.742  68.227  1.00  0.00    -0.196 NA 
HETATM    9  C   UNL     1      -9.226   8.932  67.176  1.00  0.00    -0.139 C  
HETATM   10  C   UNL     1      -9.806   9.820  66.051  1.00  0.00    -0.274 C  
HETATM   11  N   UNL     1     -10.344  11.128  66.500  1.00  0.00    -0.235 NA 
HETATM   12  C   UNL     1     -10.856   9.978  68.735  1.00  0.00    -0.219 C  
HETATM   13  C   UNL     1     -11.357  10.850  67.554  1.00  0.00    -0.232 C  
BRANCH  11  14
HETATM   14  C   UNL     1      -9.303  12.038  67.005  1.00  0.00    -0.191 C  
BRANCH  14  15
HETATM   15  C   UNL     1      -9.404  13.448  66.419  1.00  0.00    -0.185 C  
BRANCH  15  16
HETATM   16  C   UNL     1     -10.595  14.198  67.006  1.00  0.00    -0.276 C  
BRANCH  16  17
HETATM   17  N   UNL     1     -10.344  15.619  67.050  1.00  0.00    -0.283 N  
HETATM   18  N   UNL     1     -10.170  16.305  68.237  1.00  0.00    -0.245 NA 
HETATM   19  C   UNL     1     -10.152  17.548  67.865  1.00  0.00    -0.330 A  
HETATM   20  C   UNL     1      -9.976  18.739  68.723  1.00  0.00    -0.442 A  
HETATM   21  C   UNL     1      -9.998  19.946  68.130  1.00  0.00    -0.551 A  
HETATM   22  C   UNL     1     -10.197  20.080  66.698  1.00  0.00    -0.597 A  
HETATM   23  C   UNL     1     -10.358  18.985  65.937  1.00  0.00    -0.371 A  
HETATM   24  N   UNL     1     -10.323  17.756  66.534  1.00  0.00    -0.355 N  
HETATM   25  C   UNL     1     -10.481  16.512  65.972  1.00  0.00    -0.310 C  
HETATM   26  O   UNL     1     -10.720  16.233  64.803  1.00  0.00    -0.680 OA 
ENDBRANCH  16  17
ENDBRANCH  15  16
ENDBRANCH  14  15
ENDBRANCH  11  14
ENDBRANCH   6   8
TORSDOF 5
ENDMDL
MODEL       52
REMARK 921   NORMALIZED FREE ENERGY PREDICTED BY IDOCK:   -5.90 KCAL/MOL
REMARK 922        TOTAL FREE ENERGY PREDICTED BY IDOCK:   -8.25 KCAL/MOL
REMARK 923 INTER-LIGAND FREE ENERGY PREDICTED BY IDOCK:   -7.36 KCAL/MOL
REMARK 924 INTRA-LIGAND FREE ENERGY PREDICTED BY IDOCK:   -0.89 KCAL/MOL
REMARK 927      BINDING AFFINITY PREDICTED BY RF-SCORE:    0.00 PKD
ROOT
HETATM    1 CL   UNL     1     -12.480  15.862  70.735  1.00  0.00    -0.394 Cl 
HETATM    2  C   UNL     1     -12.712  14.203  71.132  1.00  0.00    -0.361 A  
HETATM    3  C   UNL     1     -13.477  13.861  72.240  1.00  0.00    -0.623 A  
HETATM    4  C   UNL     1     -13.653  12.519  72.555  1.00  0.00    -0.181 A  
HETATM    5  C   UNL     1     -13.048  11.532  71.769  1.00  0.00    -0.503 A  
HETATM    6  C   UNL     1     -12.249  11.853  70.660  1.00  0.00    -0.331 A  
HETATM    7  C   UNL     1     -12.112  13.214  70.348  1.00  0.00    -0.392 A  
ENDROOT
BRANCH   6   8
HETATM    8  N   UNL     1     -11.565  10.865  69.974  1.00  0.00    -0.312 NA 
HETATM    9  C   UNL     1     -10.710   9.905  70.687  1.00  0.00    -0.303 C  
HETATM   10  C   UNL     1     -10.767   8.532  69.978  1.00  0.00    -0.232 C  
HETATM   11  N   UNL     1     -10.429   8.560  68.533  1.00  0.00    -0.196 NA 
HETATM   12  C   UNL     1     -11.330  10.960  68.523  1.00  0.00    -0.299 C  
HETATM   13  C   UNL     1     -11.335   9.546  67.887  1.00  0.00     0.414 C  
BRANCH  11  14
HETATM   14  C   UNL     1      -9.020   8.900  68.276  1.00  0.00    -0.137 C  
BRANCH  14  15
HETATM   15  C   UNL     1      -8.627   8.758  66.804  1.00  0.00    -0.122 C  
BRANCH  15  16
HETATM   16  C   UNL     1      -8.059  10.066  66.263  1.00  0.00    -0.117 C  
BRANCH  16  17
HETATM   17  N   UNL     1      -9.109  10.924  65.769  1.00  0.00    -0.190 N  
HETATM   18  N   UNL     1      -9.893  10.585  64.683  1.00  0.00    -0.315 NA 
HETATM   19  C   UNL     1     -10.572  11.667  64.453  1.00  0.00    -0.323 A  
HETATM   20  C   UNL     1     -11.592  11.882  63.405  1.00  0.00    -0.477 A  
HETATM   21  C   UNL     1     -12.174  13.093  63.337  1.00  0.00    -0.521 A  
HETATM   22  C   UNL     1     -11.809  14.158  64.254  1.00  0.00    -0.420 A  
HETATM   23  C   UNL     1     -10.878  13.942  65.197  1.00  0.00    -0.358 A  
HETATM   24  N   UNL     1     -10.294  12.710  65.278  1.00  0.00    -0.286 N  
HETATM   25  C   UNL     1      -9.316  12.266  66.136  1.00  0.00    -0.176 C  
HETATM   26  O   UNL     1      -8.727  12.896  67.006  1.00  0.00    -0.206 OA 
ENDBRANCH  16  17
ENDBRANCH  15  16
ENDBRANCH  14  15
ENDBRANCH  11  14
ENDBRANCH   6   8
TORSDOF 5
ENDMDL
MODEL       53
REMARK 921   NORMALIZED FREE ENERGY PREDICTED BY IDOCK:   -5.90 KCAL/MOL
REMARK 922        TOTAL FREE ENERGY PREDICTED BY IDOCK:   -8.25 KCAL/MOL
REMARK 923 INTER-LIGAND FREE ENERGY PREDICTED BY IDOCK:   -7.97 KCAL/MOL
REMARK 924 INTRA-LIGAND FREE ENERGY PREDICTED BY IDOCK:   -0.28 KCAL/MOL
REMARK 927      BINDING AFFINITY PREDICTED BY RF-SCORE:    0.00 PKD
ROOT
HETATM    1 CL   UNL     1     -10.247  20.316  66.064  1.00  0.00    -0.479 Cl 
HETATM    2  C   UNL     1      -9.571  19.165  67.152  1.00  0.00    -0.319 A  
HETATM    3  C   UNL     1      -8.218  19.223  67.460  1.00  0.00    -0.320 A  
HETATM    4  C   UNL     1      -7.680  18.285  68.335  1.00  0.00    -0.312 A  
HETATM    5  C   UNL     1      -8.498  17.288  68.878  1.00  0.00    -0.175 A  
HETATM    6  C   UNL     1      -9.862  17.193  68.561  1.00  0.00    -0.297 A  
HETATM    7  C   UNL     1     -10.384  18.169  67.699  1.00  0.00    -0.411 A  
ENDROOT
BRANCH   6   8
HETATM    8  N   UNL     1     -10.620  16.128  69.015  1.00  0.00    -0.253 NA 
HETATM    9  C   UNL     1     -10.790  15.882  70.455  1.00  0.00    -0.313 C  
HETATM   10  C   UNL     1     -12.200  15.304  70.720  1.00  0.00    -0.360 C  
HETATM   11  N   UNL     1     -12.535  14.088  69.939  1.00  0.00    -0.307 NA 
HETATM   12  C   UNL     1     -10.947  14.990  68.139  1.00  0.00    -0.279 C  
HETATM   13  C   UNL     1     -12.342  14.419  68.502  1.00  0.00    -0.004 C  
BRANCH  11  14
HETATM   14  C   UNL     1     -11.726  12.918  70.318  1.00  0.00    -0.107 C  
BRANCH  14  15
HETATM   15  C   UNL     1     -12.392  11.587  69.958  1.00  0.00    -0.287 C  
BRANCH  15  16
HETATM   16  C   UNL     1     -11.397  10.645  69.287  1.00  0.00    -0.282 C  
BRANCH  16  17
HETATM   17  N   UNL     1     -11.136  11.048  67.926  1.00  0.00    -0.265 N  
HETATM   18  N   UNL     1     -12.016  11.830  67.203  1.00  0.00    -0.595 NA 
HETATM   19  C   UNL     1     -11.517  11.816  66.005  1.00  0.00    -0.215 A  
HETATM   20  C   UNL     1     -12.039  12.505  64.806  1.00  0.00    -0.497 A  
HETATM   21  C   UNL     1     -11.365  12.349  63.652  1.00  0.00    -0.556 A  
HETATM   22  C   UNL     1     -10.171  11.525  63.580  1.00  0.00    -0.462 A  
HETATM   23  C   UNL     1      -9.716  10.906  64.681  1.00  0.00    -0.280 A  
HETATM   24  N   UNL     1     -10.389  11.073  65.858  1.00  0.00    -0.255 N  
HETATM   25  C   UNL     1     -10.127  10.531  67.094  1.00  0.00    -0.209 C  
HETATM   26  O   UNL     1      -9.238   9.747  67.405  1.00  0.00    -0.133 OA 
ENDBRANCH  16  17
ENDBRANCH  15  16
ENDBRANCH  14  15
ENDBRANCH  11  14
ENDBRANCH   6   8
TORSDOF 5
ENDMDL
MODEL       54
REMARK 921   NORMALIZED FREE ENERGY PREDICTED BY IDOCK:   -5.89 KCAL/MOL
REMARK 922        TOTAL FREE ENERGY PREDICTED BY IDOCK:   -8.24 KCAL/MOL
REMARK 923 INTER-LIGAND FREE ENERGY PREDICTED BY IDOCK:   -7.18 KCAL/MOL
REMARK 924 INTRA-LIGAND FREE ENERGY PREDICTED BY IDOCK:   -1.06 KCAL/MOL
REMARK 927      BINDING AFFINITY PREDICTED BY RF-SCORE:    0.00 PKD
ROOT
HETATM    1 CL   UNL     1     -12.905  13.033  71.170  1.00  0.00    -0.377 Cl 
HETATM    2  C   UNL     1     -12.558  11.347  71.100  1.00  0.00    -0.386 A  
HETATM    3  C   UNL     1     -13.098  10.494  72.054  1.00  0.00    -0.511 A  
HETATM    4  C   UNL     1     -12.808   9.136  71.992  1.00  0.00    -0.483 A  
HETATM    5  C   UNL     1     -11.964   8.648  70.988  1.00  0.00    -0.278 A  
HETATM    6  C   UNL     1     -11.385   9.494  70.029  1.00  0.00    -0.166 A  
HETATM    7  C   UNL     1     -11.719  10.855  70.097  1.00  0.00    -0.433 A  
ENDROOT
BRANCH   6   8
HETATM    8  N   UNL     1     -10.461   9.005  69.123  1.00  0.00    -0.226 NA 
HETATM    9  C   UNL     1      -9.039   8.892  69.482  1.00  0.00    -0.146 C  
HETATM   10  C   UNL     1      -8.424   7.656  68.785  1.00  0.00    -0.129 C  
HETATM   11  N   UNL     1      -8.595   7.617  67.312  1.00  0.00    -0.120 NA 
HETATM   12  C   UNL     1     -10.751   8.957  67.680  1.00  0.00    -0.151 C  
HETATM   13  C   UNL     1     -10.052   7.733  67.034  1.00  0.00    -0.273 C  
BRANCH  11  14
HETATM   14  C   UNL     1      -7.847   8.677  66.616  1.00  0.00    -0.097 C  
BRANCH  14  15
HETATM   15  C   UNL     1      -8.186   8.771  65.127  1.00  0.00    -0.149 C  
BRANCH  15  16
HETATM   16  C   UNL     1      -8.074  10.211  64.634  1.00  0.00    -0.153 C  
BRANCH  16  17
HETATM   17  N   UNL     1      -9.221  10.988  65.037  1.00  0.00    -0.209 N  
HETATM   18  N   UNL     1     -10.347  11.115  64.246  1.00  0.00    -0.327 NA 
HETATM   19  C   UNL     1     -11.049  12.013  64.864  1.00  0.00    -0.316 A  
HETATM   20  C   UNL     1     -12.375  12.541  64.476  1.00  0.00    -0.545 A  
HETATM   21  C   UNL     1     -12.927  13.483  65.261  1.00  0.00    -0.290 A  
HETATM   22  C   UNL     1     -12.244  13.976  66.444  1.00  0.00    -0.492 A  
HETATM   23  C   UNL     1     -11.040  13.486  66.776  1.00  0.00    -0.299 A  
HETATM   24  N   UNL     1     -10.481  12.518  65.990  1.00  0.00    -0.253 N  
HETATM   25  C   UNL     1      -9.266  11.888  66.118  1.00  0.00    -0.199 C  
HETATM   26  O   UNL     1      -8.396  12.081  66.959  1.00  0.00    -0.170 OA 
ENDBRANCH  16  17
ENDBRANCH  15  16
ENDBRANCH  14  15
ENDBRANCH  11  14
ENDBRANCH   6   8
TORSDOF 5
ENDMDL
MODEL       55
REMARK 921   NORMALIZED FREE ENERGY PREDICTED BY IDOCK:   -5.88 KCAL/MOL
REMARK 922        TOTAL FREE ENERGY PREDICTED BY IDOCK:   -8.23 KCAL/MOL
REMARK 923 INTER-LIGAND FREE ENERGY PREDICTED BY IDOCK:   -7.43 KCAL/MOL
REMARK 924 INTRA-LIGAND FREE ENERGY PREDICTED BY IDOCK:   -0.80 KCAL/MOL
REMARK 927      BINDING AFFINITY PREDICTED BY RF-SCORE:    0.00 PKD
ROOT
HETATM    1 CL   UNL     1     -12.230  13.098  63.121  1.00  0.00    -0.489 Cl 
HETATM    2  C   UNL     1     -11.280  12.008  64.057  1.00  0.00    -0.397 A  
HETATM    3  C   UNL     1     -10.356  11.185  63.426  1.00  0.00    -0.419 A  
HETATM    4  C   UNL     1      -9.599  10.304  64.190  1.00  0.00    -0.376 A  
HETATM    5  C   UNL     1      -9.787  10.242  65.575  1.00  0.00    -0.347 A  
HETATM    6  C   UNL     1     -10.733  11.045  66.233  1.00  0.00    -0.212 A  
HETATM    7  C   UNL     1     -11.462  11.945  65.441  1.00  0.00    -0.310 A  
ENDROOT
BRANCH   6   8
HETATM    8  N   UNL     1     -10.984  10.879  67.583  1.00  0.00    -0.272 NA 
HETATM    9  C   UNL     1     -10.677   9.608  68.257  1.00  0.00    -0.217 C  
HETATM   10  C   UNL     1     -10.228   9.886  69.710  1.00  0.00    -0.246 C  
HETATM   11  N   UNL     1     -11.180  10.688  70.517  1.00  0.00    -0.268 NA 
HETATM   12  C   UNL     1     -11.907  11.768  68.308  1.00  0.00    -0.271 C  
HETATM   13  C   UNL     1     -11.434  11.951  69.773  1.00  0.00    -0.229 C  
BRANCH  11  14
HETATM   14  C   UNL     1     -12.442   9.982  70.792  1.00  0.00    -0.295 C  
BRANCH  14  15
HETATM   15  C   UNL     1     -12.327   8.971  71.934  1.00  0.00    -0.455 C  
BRANCH  15  16
HETATM   16  C   UNL     1     -13.000   7.652  71.564  1.00  0.00    -0.341 C  
BRANCH  16  17
HETATM   17  N   UNL     1     -12.034   6.585  71.469  1.00  0.00    -0.337 N  
HETATM   18  N   UNL     1     -11.445   6.016  72.583  1.00  0.00    -0.277 NA 
HETATM   19  C   UNL     1     -10.531   5.245  72.079  1.00  0.00    -0.222 A  
HETATM   20  C   UNL     1      -9.592   4.369  72.811  1.00  0.00    -0.171 A  
HETATM   21  C   UNL     1      -8.712   3.654  72.088  1.00  0.00    -0.113 A  
HETATM   22  C   UNL     1      -8.674   3.743  70.639  1.00  0.00    -0.121 A  
HETATM   23  C   UNL     1      -9.535   4.547  69.995  1.00  0.00    -0.177 A  
HETATM   24  N   UNL     1     -10.440   5.265  70.724  1.00  0.00    -0.249 N  
HETATM   25  C   UNL     1     -11.393   6.157  70.292  1.00  0.00    -0.344 C  
HETATM   26  O   UNL     1     -11.621   6.528  69.147  1.00  0.00    -0.276 OA 
ENDBRANCH  16  17
ENDBRANCH  15  16
ENDBRANCH  14  15
ENDBRANCH  11  14
ENDBRANCH   6   8
TORSDOF 5
ENDMDL
MODEL       56
REMARK 921   NORMALIZED FREE ENERGY PREDICTED BY IDOCK:   -5.85 KCAL/MOL
REMARK 922        TOTAL FREE ENERGY PREDICTED BY IDOCK:   -8.19 KCAL/MOL
REMARK 923 INTER-LIGAND FREE ENERGY PREDICTED BY IDOCK:   -7.54 KCAL/MOL
REMARK 924 INTRA-LIGAND FREE ENERGY PREDICTED BY IDOCK:   -0.65 KCAL/MOL
REMARK 927      BINDING AFFINITY PREDICTED BY RF-SCORE:    0.00 PKD
ROOT
HETATM    1 CL   UNL     1     -12.915  13.286  71.629  1.00  0.00    -0.459 Cl 
HETATM    2  C   UNL     1     -12.207  14.260  70.397  1.00  0.00    -0.342 A  
HETATM    3  C   UNL     1     -11.801  15.555  70.692  1.00  0.00    -0.400 A  
HETATM    4  C   UNL     1     -11.236  16.334  69.689  1.00  0.00    -0.311 A  
HETATM    5  C   UNL     1     -11.100  15.816  68.396  1.00  0.00    -0.341 A  
HETATM    6  C   UNL     1     -11.526  14.520  68.067  1.00  0.00    -0.321 A  
HETATM    7  C   UNL     1     -12.066  13.746  69.105  1.00  0.00    -0.374 A  
ENDROOT
BRANCH   6   8
HETATM    8  N   UNL     1     -11.491  14.077  66.757  1.00  0.00    -0.347 NA 
HETATM    9  C   UNL     1     -11.631  12.648  66.440  1.00  0.00    -0.384 C  
HETATM   10  C   UNL     1     -12.383  12.484  65.099  1.00  0.00    -0.429 C  
HETATM   11  N   UNL     1     -11.789  13.217  63.954  1.00  0.00    -0.454 NA 
HETATM   12  C   UNL     1     -10.929  14.908  65.680  1.00  0.00    -0.344 C  
HETATM   13  C   UNL     1     -11.685  14.647  64.351  1.00  0.00    -0.346 C  
BRANCH  11  14
HETATM   14  C   UNL     1     -10.474  12.692  63.552  1.00  0.00    -0.216 C  
BRANCH  14  15
HETATM   15  C   UNL     1     -10.386  11.167  63.639  1.00  0.00    -0.449 C  
BRANCH  15  16
HETATM   16  C   UNL     1      -9.098  10.734  64.334  1.00  0.00    -0.196 C  
BRANCH  16  17
HETATM   17  N   UNL     1      -9.309   9.548  65.127  1.00  0.00    -0.259 N  
HETATM   18  N   UNL     1     -10.020   9.565  66.312  1.00  0.00    -0.268 NA 
HETATM   19  C   UNL     1      -9.830   8.376  66.794  1.00  0.00    -0.259 A  
HETATM   20  C   UNL     1     -10.373   7.819  68.052  1.00  0.00    -0.263 A  
HETATM   21  C   UNL     1     -10.042   6.554  68.370  1.00  0.00    -0.169 A  
HETATM   22  C   UNL     1      -9.173   5.763  67.516  1.00  0.00    -0.108 A  
HETATM   23  C   UNL     1      -8.689   6.290  66.380  1.00  0.00    -0.137 A  
HETATM   24  N   UNL     1      -9.034   7.569  66.046  1.00  0.00    -0.156 N  
HETATM   25  C   UNL     1      -8.650   8.317  64.958  1.00  0.00    -0.075 C  
HETATM   26  O   UNL     1      -7.883   8.004  64.055  1.00  0.00    -0.133 OA 
ENDBRANCH  16  17
ENDBRANCH  15  16
ENDBRANCH  14  15
ENDBRANCH  11  14
ENDBRANCH   6   8
TORSDOF 5
ENDMDL
MODEL       57
REMARK 921   NORMALIZED FREE ENERGY PREDICTED BY IDOCK:   -5.84 KCAL/MOL
REMARK 922        TOTAL FREE ENERGY PREDICTED BY IDOCK:   -8.18 KCAL/MOL
REMARK 923 INTER-LIGAND FREE ENERGY PREDICTED BY IDOCK:   -7.70 KCAL/MOL
REMARK 924 INTRA-LIGAND FREE ENERGY PREDICTED BY IDOCK:   -0.48 KCAL/MOL
REMARK 927      BINDING AFFINITY PREDICTED BY RF-SCORE:    0.00 PKD
ROOT
HETATM    1 CL   UNL     1     -10.644  19.668  66.330  1.00  0.00    -0.585 Cl 
HETATM    2  C   UNL     1      -9.730  18.220  66.515  1.00  0.00    -0.343 A  
HETATM    3  C   UNL     1      -8.363  18.234  66.266  1.00  0.00    -0.230 A  
HETATM    4  C   UNL     1      -7.635  17.058  66.412  1.00  0.00    -0.350 A  
HETATM    5  C   UNL     1      -8.285  15.877  66.788  1.00  0.00    -0.307 A  
HETATM    6  C   UNL     1      -9.669  15.833  67.020  1.00  0.00    -0.228 A  
HETATM    7  C   UNL     1     -10.374  17.039  66.893  1.00  0.00    -0.303 A  
ENDROOT
BRANCH   6   8
HETATM    8  N   UNL     1     -10.305  14.630  67.271  1.00  0.00    -0.255 NA 
HETATM    9  C   UNL     1     -11.772  14.549  67.331  1.00  0.00    -0.400 C  
HETATM   10  C   UNL     1     -12.240  13.183  66.780  1.00  0.00    -0.243 C  
HETATM   11  N   UNL     1     -11.625  12.000  67.433  1.00  0.00    -0.461 NA 
HETATM   12  C   UNL     1      -9.587  13.494  67.873  1.00  0.00    -0.218 C  
HETATM   13  C   UNL     1     -10.150  12.155  67.327  1.00  0.00    -0.202 C  
BRANCH  11  14
HETATM   14  C   UNL     1     -12.033  11.840  68.838  1.00  0.00    -0.271 C  
BRANCH  14  15
HETATM   15  C   UNL     1     -11.582  10.510  69.445  1.00  0.00    -0.318 C  
BRANCH  15  16
HETATM   16  C   UNL     1     -12.592  10.011  70.474  1.00  0.00    -0.150 C  
BRANCH  16  17
HETATM   17  N   UNL     1     -11.988   9.061  71.377  1.00  0.00    -0.312 N  
HETATM   18  N   UNL     1     -10.744   9.265  71.945  1.00  0.00    -0.274 NA 
HETATM   19  C   UNL     1     -10.492   8.134  72.528  1.00  0.00    -0.339 A  
HETATM   20  C   UNL     1      -9.292   7.778  73.316  1.00  0.00    -0.331 A  
HETATM   21  C   UNL     1      -9.228   6.538  73.831  1.00  0.00    -0.172 A  
HETATM   22  C   UNL     1     -10.293   5.574  73.617  1.00  0.00    -0.261 A  
HETATM   23  C   UNL     1     -11.372   5.917  72.896  1.00  0.00    -0.226 A  
HETATM   24  N   UNL     1     -11.449   7.181  72.382  1.00  0.00    -0.268 N  
HETATM   25  C   UNL     1     -12.433   7.747  71.607  1.00  0.00    -0.326 C  
HETATM   26  O   UNL     1     -13.455   7.224  71.178  1.00  0.00    -0.325 OA 
ENDBRANCH  16  17
ENDBRANCH  15  16
ENDBRANCH  14  15
ENDBRANCH  11  14
ENDBRANCH   6   8
TORSDOF 5
ENDMDL
MODEL       58
REMARK 921   NORMALIZED FREE ENERGY PREDICTED BY IDOCK:   -5.84 KCAL/MOL
REMARK 922        TOTAL FREE ENERGY PREDICTED BY IDOCK:   -8.17 KCAL/MOL
REMARK 923 INTER-LIGAND FREE ENERGY PREDICTED BY IDOCK:   -6.99 KCAL/MOL
REMARK 924 INTRA-LIGAND FREE ENERGY PREDICTED BY IDOCK:   -1.18 KCAL/MOL
REMARK 927      BINDING AFFINITY PREDICTED BY RF-SCORE:    0.00 PKD
ROOT
HETATM    1 CL   UNL     1     -12.880  15.476  70.797  1.00  0.00    -0.522 Cl 
HETATM    2  C   UNL     1     -12.635  13.774  70.686  1.00  0.00    -0.315 A  
HETATM    3  C   UNL     1     -13.218  12.933  71.625  1.00  0.00    -0.416 A  
HETATM    4  C   UNL     1     -13.009  11.562  71.530  1.00  0.00    -0.485 A  
HETATM    5  C   UNL     1     -12.205  11.048  70.507  1.00  0.00    -0.472 A  
HETATM    6  C   UNL     1     -11.585  11.879  69.562  1.00  0.00    -0.327 A  
HETATM    7  C   UNL     1     -11.836  13.256  69.664  1.00  0.00    -0.391 A  
ENDROOT
BRANCH   6   8
HETATM    8  N   UNL     1     -10.699  11.358  68.636  1.00  0.00    -0.196 NA 
HETATM    9  C   UNL     1     -10.795   9.955  68.206  1.00  0.00    -0.230 C  
HETATM   10  C   UNL     1     -10.382   9.836  66.721  1.00  0.00    -0.218 C  
HETATM   11  N   UNL     1      -9.044  10.391  66.397  1.00  0.00    -0.154 NA 
HETATM   12  C   UNL     1      -9.415  12.018  68.344  1.00  0.00    -0.181 C  
HETATM   13  C   UNL     1      -9.029  11.805  66.857  1.00  0.00    -0.195 C  
BRANCH  11  14
HETATM   14  C   UNL     1      -7.941   9.632  67.010  1.00  0.00    -0.109 C  
BRANCH  14  15
HETATM   15  C   UNL     1      -8.176   8.120  67.001  1.00  0.00    -0.115 C  
BRANCH  15  16
HETATM   16  C   UNL     1      -7.620   7.476  68.267  1.00  0.00    -0.114 C  
BRANCH  16  17
HETATM   17  N   UNL     1      -8.614   7.441  69.312  1.00  0.00    -0.136 N  
HETATM   18  N   UNL     1      -9.815   6.772  69.171  1.00  0.00    -0.156 NA 
HETATM   19  C   UNL     1     -10.481   7.125  70.227  1.00  0.00    -0.217 A  
HETATM   20  C   UNL     1     -11.842   6.696  70.615  1.00  0.00    -0.443 A  
HETATM   21  C   UNL     1     -12.352   7.193  71.756  1.00  0.00    -0.385 A  
HETATM   22  C   UNL     1     -11.601   8.126  72.576  1.00  0.00    -0.468 A  
HETATM   23  C   UNL     1     -10.368   8.504  72.204  1.00  0.00    -0.339 A  
HETATM   24  N   UNL     1      -9.840   7.991  71.053  1.00  0.00    -0.173 N  
HETATM   25  C   UNL     1      -8.622   8.243  70.467  1.00  0.00    -0.131 C  
HETATM   26  O   UNL     1      -7.746   9.015  70.840  1.00  0.00    -0.105 OA 
ENDBRANCH  16  17
ENDBRANCH  15  16
ENDBRANCH  14  15
ENDBRANCH  11  14
ENDBRANCH   6   8
TORSDOF 5
ENDMDL
MODEL       59
REMARK 921   NORMALIZED FREE ENERGY PREDICTED BY IDOCK:   -5.83 KCAL/MOL
REMARK 922        TOTAL FREE ENERGY PREDICTED BY IDOCK:   -8.16 KCAL/MOL
REMARK 923 INTER-LIGAND FREE ENERGY PREDICTED BY IDOCK:   -7.75 KCAL/MOL
REMARK 924 INTRA-LIGAND FREE ENERGY PREDICTED BY IDOCK:   -0.41 KCAL/MOL
REMARK 927      BINDING AFFINITY PREDICTED BY RF-SCORE:    0.00 PKD
ROOT
HETATM    1 CL   UNL     1     -10.952   6.814  68.252  1.00  0.00    -0.283 Cl 
HETATM    2  C   UNL     1     -10.221   7.891  67.124  1.00  0.00    -0.290 A  
HETATM    3  C   UNL     1      -9.119   7.471  66.388  1.00  0.00    -0.210 A  
HETATM    4  C   UNL     1      -8.533   8.350  65.484  1.00  0.00    -0.184 A  
HETATM    5  C   UNL     1      -9.043   9.645  65.338  1.00  0.00    -0.265 A  
HETATM    6  C   UNL     1     -10.138  10.100  66.089  1.00  0.00    -0.246 A  
HETATM    7  C   UNL     1     -10.728   9.183  66.972  1.00  0.00    -0.189 A  
ENDROOT
BRANCH   6   8
HETATM    8  N   UNL     1     -10.546  11.420  66.014  1.00  0.00    -0.261 NA 
HETATM    9  C   UNL     1     -11.375  11.892  64.894  1.00  0.00    -0.277 C  
HETATM   10  C   UNL     1     -12.347  12.986  65.392  1.00  0.00    -0.486 C  
HETATM   11  N   UNL     1     -11.702  14.130  66.083  1.00  0.00    -0.378 NA 
HETATM   12  C   UNL     1      -9.872  12.477  66.787  1.00  0.00    -0.229 C  
HETATM   13  C   UNL     1     -10.890  13.572  67.198  1.00  0.00    -0.284 C  
BRANCH  11  14
HETATM   14  C   UNL     1     -10.866  14.947  65.189  1.00  0.00    -0.414 C  
BRANCH  14  15
HETATM   15  C   UNL     1      -9.917  15.882  65.942  1.00  0.00    -0.377 C  
BRANCH  15  16
HETATM   16  C   UNL     1     -10.476  17.300  65.992  1.00  0.00    -0.282 C  
BRANCH  16  17
HETATM   17  N   UNL     1      -9.521  18.215  66.568  1.00  0.00    -0.301 N  
HETATM   18  N   UNL     1      -8.681  18.994  65.795  1.00  0.00    -0.330 NA 
HETATM   19  C   UNL     1      -7.877  19.524  66.666  1.00  0.00    -0.283 A  
HETATM   20  C   UNL     1      -6.769  20.469  66.407  1.00  0.00    -0.299 A  
HETATM   21  C   UNL     1      -6.050  20.892  67.462  1.00  0.00    -0.351 A  
HETATM   22  C   UNL     1      -6.340  20.432  68.808  1.00  0.00    -0.338 A  
HETATM   23  C   UNL     1      -7.349  19.571  69.020  1.00  0.00    -0.357 A  
HETATM   24  N   UNL     1      -8.092  19.150  67.954  1.00  0.00    -0.281 N  
HETATM   25  C   UNL     1      -9.146  18.268  67.923  1.00  0.00    -0.279 C  
HETATM   26  O   UNL     1      -9.635  17.638  68.853  1.00  0.00    -0.277 OA 
ENDBRANCH  16  17
ENDBRANCH  15  16
ENDBRANCH  14  15
ENDBRANCH  11  14
ENDBRANCH   6   8
TORSDOF 5
ENDMDL
MODEL       60
REMARK 921   NORMALIZED FREE ENERGY PREDICTED BY IDOCK:   -5.82 KCAL/MOL
REMARK 922        TOTAL FREE ENERGY PREDICTED BY IDOCK:   -8.16 KCAL/MOL
REMARK 923 INTER-LIGAND FREE ENERGY PREDICTED BY IDOCK:   -7.67 KCAL/MOL
REMARK 924 INTRA-LIGAND FREE ENERGY PREDICTED BY IDOCK:   -0.49 KCAL/MOL
REMARK 927      BINDING AFFINITY PREDICTED BY RF-SCORE:    0.00 PKD
ROOT
HETATM    1 CL   UNL     1      -9.397   4.045  65.934  1.00  0.00    -0.155 Cl 
HETATM    2  C   UNL     1      -9.526   3.913  67.646  1.00  0.00    -0.185 A  
HETATM    3  C   UNL     1      -9.250   2.700  68.265  1.00  0.00    -0.255 A  
HETATM    4  C   UNL     1      -9.363   2.603  69.647  1.00  0.00    -0.184 A  
HETATM    5  C   UNL     1      -9.769   3.714  70.394  1.00  0.00    -0.201 A  
HETATM    6  C   UNL     1     -10.078   4.942  69.789  1.00  0.00    -0.249 A  
HETATM    7  C   UNL     1      -9.928   5.021  68.397  1.00  0.00    -0.202 A  
ENDROOT
BRANCH   6   8
HETATM    8  N   UNL     1     -10.593   5.987  70.536  1.00  0.00    -0.246 NA 
HETATM    9  C   UNL     1     -11.822   6.679  70.119  1.00  0.00    -0.284 C  
HETATM   10  C   UNL     1     -12.619   7.120  71.368  1.00  0.00    -0.394 C  
HETATM   11  N   UNL     1     -11.858   7.946  72.338  1.00  0.00    -0.349 NA 
HETATM   12  C   UNL     1      -9.766   6.709  71.518  1.00  0.00    -0.164 C  
HETATM   13  C   UNL     1     -10.640   7.178  72.711  1.00  0.00    -0.268 C  
BRANCH  11  14
HETATM   14  C   UNL     1     -11.497   9.272  71.810  1.00  0.00    -0.378 C  
BRANCH  14  15
HETATM   15  C   UNL     1     -12.673   9.992  71.145  1.00  0.00    -0.484 C  
BRANCH  15  16
HETATM   16  C   UNL     1     -12.911  11.354  71.790  1.00  0.00    -0.344 C  
BRANCH  16  17
HETATM   17  N   UNL     1     -12.624  12.424  70.865  1.00  0.00    -0.310 N  
HETATM   18  N   UNL     1     -12.145  12.193  69.589  1.00  0.00    -0.256 NA 
HETATM   19  C   UNL     1     -11.852  13.381  69.158  1.00  0.00    -0.336 A  
HETATM   20  C   UNL     1     -11.309  13.747  67.832  1.00  0.00    -0.328 A  
HETATM   21  C   UNL     1     -11.069  15.048  67.593  1.00  0.00    -0.317 A  
HETATM   22  C   UNL     1     -11.322  16.062  68.602  1.00  0.00    -0.383 A  
HETATM   23  C   UNL     1     -11.813  15.707  69.800  1.00  0.00    -0.363 A  
HETATM   24  N   UNL     1     -12.072  14.388  70.043  1.00  0.00    -0.323 N  
HETATM   25  C   UNL     1     -12.551  13.791  71.185  1.00  0.00    -0.373 C  
HETATM   26  O   UNL     1     -12.826  14.317  72.257  1.00  0.00    -0.336 OA 
ENDBRANCH  16  17
ENDBRANCH  15  16
ENDBRANCH  14  15
ENDBRANCH  11  14
ENDBRANCH   6   8
TORSDOF 5
ENDMDL
MODEL       61
REMARK 921   NORMALIZED FREE ENERGY PREDICTED BY IDOCK:   -5.82 KCAL/MOL
REMARK 922        TOTAL FREE ENERGY PREDICTED BY IDOCK:   -8.15 KCAL/MOL
REMARK 923 INTER-LIGAND FREE ENERGY PREDICTED BY IDOCK:   -7.66 KCAL/MOL
REMARK 924 INTRA-LIGAND FREE ENERGY PREDICTED BY IDOCK:   -0.49 KCAL/MOL
REMARK 927      BINDING AFFINITY PREDICTED BY RF-SCORE:    0.00 PKD
ROOT
HETATM    1 CL   UNL     1      -6.625  19.759  65.990  1.00  0.00    -0.223 Cl 
HETATM    2  C   UNL     1      -8.164  19.252  66.573  1.00  0.00    -0.309 A  
HETATM    3  C   UNL     1      -8.931  20.123  67.336  1.00  0.00    -0.453 A  
HETATM    4  C   UNL     1     -10.170  19.703  67.807  1.00  0.00    -0.565 A  
HETATM    5  C   UNL     1     -10.620  18.408  67.525  1.00  0.00    -0.447 A  
HETATM    6  C   UNL     1      -9.852  17.501  66.779  1.00  0.00    -0.306 A  
HETATM    7  C   UNL     1      -8.619  17.962  66.292  1.00  0.00    -0.207 A  
ENDROOT
BRANCH   6   8
HETATM    8  N   UNL     1     -10.265  16.190  66.618  1.00  0.00    -0.279 NA 
HETATM    9  C   UNL     1     -10.712  15.393  67.770  1.00  0.00    -0.289 C  
HETATM   10  C   UNL     1     -11.834  14.425  67.328  1.00  0.00    -0.405 C  
HETATM   11  N   UNL     1     -11.487  13.543  66.186  1.00  0.00    -0.317 NA 
HETATM   12  C   UNL     1      -9.914  15.416  65.415  1.00  0.00    -0.321 C  
HETATM   13  C   UNL     1     -11.052  14.422  65.067  1.00  0.00    -0.380 C  
BRANCH  11  14
HETATM   14  C   UNL     1     -10.443  12.559  66.513  1.00  0.00    -0.238 C  
BRANCH  14  15
HETATM   15  C   UNL     1     -10.832  11.127  66.143  1.00  0.00    -0.247 C  
BRANCH  15  16
HETATM   16  C   UNL     1      -9.665  10.170  66.370  1.00  0.00    -0.205 C  
BRANCH  16  17
HETATM   17  N   UNL     1      -9.906   9.317  67.508  1.00  0.00    -0.165 N  
HETATM   18  N   UNL     1     -10.436   8.047  67.385  1.00  0.00    -0.280 NA 
HETATM   19  C   UNL     1     -10.660   7.694  68.613  1.00  0.00    -0.130 A  
HETATM   20  C   UNL     1     -11.216   6.409  69.091  1.00  0.00    -0.421 A  
HETATM   21  C   UNL     1     -11.375   6.253  70.418  1.00  0.00    -0.440 A  
HETATM   22  C   UNL     1     -11.025   7.309  71.351  1.00  0.00    -0.256 A  
HETATM   23  C   UNL     1     -10.525   8.468  70.895  1.00  0.00    -0.203 A  
HETATM   24  N   UNL     1     -10.348   8.627  69.549  1.00  0.00    -0.211 N  
HETATM   25  C   UNL     1      -9.877   9.717  68.857  1.00  0.00    -0.173 C  
HETATM   26  O   UNL     1      -9.537  10.808  69.299  1.00  0.00    -0.187 OA 
ENDBRANCH  16  17
ENDBRANCH  15  16
ENDBRANCH  14  15
ENDBRANCH  11  14
ENDBRANCH   6   8
TORSDOF 5
ENDMDL
MODEL       62
REMARK 921   NORMALIZED FREE ENERGY PREDICTED BY IDOCK:   -5.80 KCAL/MOL
REMARK 922        TOTAL FREE ENERGY PREDICTED BY IDOCK:   -8.13 KCAL/MOL
REMARK 923 INTER-LIGAND FREE ENERGY PREDICTED BY IDOCK:   -7.45 KCAL/MOL
REMARK 924 INTRA-LIGAND FREE ENERGY PREDICTED BY IDOCK:   -0.68 KCAL/MOL
REMARK 927      BINDING AFFINITY PREDICTED BY RF-SCORE:    0.00 PKD
ROOT
HETATM    1 CL   UNL     1      -7.628   8.536  64.314  1.00  0.00    -0.115 Cl 
HETATM    2  C   UNL     1      -8.750   9.834  64.166  1.00  0.00    -0.213 A  
HETATM    3  C   UNL     1      -9.220  10.197  62.911  1.00  0.00    -0.316 A  
HETATM    4  C   UNL     1     -10.121  11.251  62.802  1.00  0.00    -0.138 A  
HETATM    5  C   UNL     1     -10.528  11.942  63.949  1.00  0.00    -0.441 A  
HETATM    6  C   UNL     1     -10.047  11.610  65.225  1.00  0.00    -0.264 A  
HETATM    7  C   UNL     1      -9.162  10.525  65.309  1.00  0.00    -0.238 A  
ENDROOT
BRANCH   6   8
HETATM    8  N   UNL     1     -10.371  12.385  66.324  1.00  0.00    -0.240 NA 
HETATM    9  C   UNL     1     -11.656  12.212  67.018  1.00  0.00    -0.337 C  
HETATM   10  C   UNL     1     -11.469  12.470  68.531  1.00  0.00    -0.305 C  
HETATM   11  N   UNL     1     -10.864  13.782  68.872  1.00  0.00    -0.249 NA 
HETATM   12  C   UNL     1      -9.669  13.648  66.608  1.00  0.00    -0.284 C  
HETATM   13  C   UNL     1      -9.574  13.877  68.139  1.00  0.00    -0.218 C  
BRANCH  11  14
HETATM   14  C   UNL     1     -11.736  14.922  68.545  1.00  0.00    -0.310 C  
BRANCH  14  15
HETATM   15  C   UNL     1     -11.130  16.271  68.938  1.00  0.00    -0.345 C  
BRANCH  15  16
HETATM   16  C   UNL     1     -11.036  17.198  67.730  1.00  0.00    -0.180 C  
BRANCH  16  17
HETATM   17  N   UNL     1      -9.796  17.936  67.738  1.00  0.00    -0.289 N  
HETATM   18  N   UNL     1      -8.744  17.611  68.573  1.00  0.00    -0.286 NA 
HETATM   19  C   UNL     1      -7.914  18.594  68.409  1.00  0.00    -0.324 A  
HETATM   20  C   UNL     1      -6.593  18.772  69.049  1.00  0.00    -0.306 A  
HETATM   21  C   UNL     1      -5.892  19.878  68.740  1.00  0.00    -0.275 A  
HETATM   22  C   UNL     1      -6.415  20.871  67.819  1.00  0.00    -0.400 A  
HETATM   23  C   UNL     1      -7.619  20.692  67.252  1.00  0.00    -0.333 A  
HETATM   24  N   UNL     1      -8.328  19.563  67.551  1.00  0.00    -0.290 N  
HETATM   25  C   UNL     1      -9.573  19.177  67.114  1.00  0.00    -0.319 C  
HETATM   26  O   UNL     1     -10.339  19.784  66.374  1.00  0.00    -0.438 OA 
ENDBRANCH  16  17
ENDBRANCH  15  16
ENDBRANCH  14  15
ENDBRANCH  11  14
ENDBRANCH   6   8
TORSDOF 5
ENDMDL
MODEL       63
REMARK 921   NORMALIZED FREE ENERGY PREDICTED BY IDOCK:   -5.79 KCAL/MOL
REMARK 922        TOTAL FREE ENERGY PREDICTED BY IDOCK:   -8.11 KCAL/MOL
REMARK 923 INTER-LIGAND FREE ENERGY PREDICTED BY IDOCK:   -7.36 KCAL/MOL
REMARK 924 INTRA-LIGAND FREE ENERGY PREDICTED BY IDOCK:   -0.75 KCAL/MOL
REMARK 927      BINDING AFFINITY PREDICTED BY RF-SCORE:    0.00 PKD
ROOT
HETATM    1 CL   UNL     1     -10.405   4.401  72.053  1.00  0.00    -0.229 Cl 
HETATM    2  C   UNL     1     -10.756   6.059  71.744  1.00  0.00    -0.244 A  
HETATM    3  C   UNL     1     -11.495   6.789  72.666  1.00  0.00    -0.218 A  
HETATM    4  C   UNL     1     -11.778   8.125  72.404  1.00  0.00    -0.461 A  
HETATM    5  C   UNL     1     -11.334   8.711  71.214  1.00  0.00    -0.341 A  
HETATM    6  C   UNL     1     -10.608   7.987  70.255  1.00  0.00    -0.231 A  
HETATM    7  C   UNL     1     -10.312   6.650  70.558  1.00  0.00    -0.231 A  
ENDROOT
BRANCH   6   8
HETATM    8  N   UNL     1     -10.287   8.556  69.035  1.00  0.00    -0.215 NA 
HETATM    9  C   UNL     1     -10.202  10.016  68.882  1.00  0.00    -0.193 C  
HETATM   10  C   UNL     1      -9.098  10.367  67.858  1.00  0.00    -0.132 C  
HETATM   11  N   UNL     1      -9.239   9.711  66.534  1.00  0.00    -0.152 NA 
HETATM   12  C   UNL     1     -10.409   7.797  67.779  1.00  0.00    -0.221 C  
HETATM   13  C   UNL     1      -9.314   8.245  66.775  1.00  0.00    -0.182 C  
BRANCH  11  14
HETATM   14  C   UNL     1     -10.415  10.176  65.782  1.00  0.00    -0.057 C  
BRANCH  14  15
HETATM   15  C   UNL     1     -10.250  11.592  65.226  1.00  0.00    -0.316 C  
BRANCH  15  16
HETATM   16  C   UNL     1     -11.515  12.415  65.447  1.00  0.00    -0.358 C  
BRANCH  16  17
HETATM   17  N   UNL     1     -11.464  13.122  66.703  1.00  0.00    -0.331 N  
HETATM   18  N   UNL     1     -11.942  12.578  67.881  1.00  0.00    -0.399 NA 
HETATM   19  C   UNL     1     -11.881  13.568  68.716  1.00  0.00    -0.355 A  
HETATM   20  C   UNL     1     -12.255  13.561  70.147  1.00  0.00    -0.400 A  
HETATM   21  C   UNL     1     -12.119  14.709  70.834  1.00  0.00    -0.393 A  
HETATM   22  C   UNL     1     -11.632  15.919  70.196  1.00  0.00    -0.357 A  
HETATM   23  C   UNL     1     -11.301  15.904  68.895  1.00  0.00    -0.377 A  
HETATM   24  N   UNL     1     -11.423  14.737  68.196  1.00  0.00    -0.309 N  
HETATM   25  C   UNL     1     -11.168  14.487  66.868  1.00  0.00    -0.336 C  
HETATM   26  O   UNL     1     -10.798  15.275  66.006  1.00  0.00    -0.322 OA 
ENDBRANCH  16  17
ENDBRANCH  15  16
ENDBRANCH  14  15
ENDBRANCH  11  14
ENDBRANCH   6   8
TORSDOF 5
ENDMDL
MODEL       64
REMARK 921   NORMALIZED FREE ENERGY PREDICTED BY IDOCK:   -5.77 KCAL/MOL
REMARK 922        TOTAL FREE ENERGY PREDICTED BY IDOCK:   -8.08 KCAL/MOL
REMARK 923 INTER-LIGAND FREE ENERGY PREDICTED BY IDOCK:   -6.93 KCAL/MOL
REMARK 924 INTRA-LIGAND FREE ENERGY PREDICTED BY IDOCK:   -1.16 KCAL/MOL
REMARK 927      BINDING AFFINITY PREDICTED BY RF-SCORE:    0.00 PKD
ROOT
HETATM    1 CL   UNL     1     -11.257  13.391  65.602  1.00  0.00    -0.303 Cl 
HETATM    2  C   UNL     1     -11.587  13.400  67.293  1.00  0.00    -0.360 A  
HETATM    3  C   UNL     1     -11.756  14.609  67.954  1.00  0.00    -0.379 A  
HETATM    4  C   UNL     1     -12.015  14.606  69.320  1.00  0.00    -0.337 A  
HETATM    5  C   UNL     1     -12.086  13.393  70.013  1.00  0.00    -0.404 A  
HETATM    6  C   UNL     1     -11.893  12.159  69.372  1.00  0.00    -0.309 A  
HETATM    7  C   UNL     1     -11.661  12.191  67.989  1.00  0.00    -0.411 A  
ENDROOT
BRANCH   6   8
HETATM    8  N   UNL     1     -11.847  10.984  70.101  1.00  0.00    -0.325 NA 
HETATM    9  C   UNL     1     -10.716  10.053  69.963  1.00  0.00    -0.299 C  
HETATM   10  C   UNL     1     -10.434   9.373  71.323  1.00  0.00    -0.315 C  
HETATM   11  N   UNL     1     -11.600   8.691  71.936  1.00  0.00    -0.325 NA 
HETATM   12  C   UNL     1     -13.056  10.417  70.720  1.00  0.00    -0.286 C  
HETATM   13  C   UNL     1     -12.692   9.695  72.044  1.00  0.00    -0.385 C  
BRANCH  11  14
HETATM   14  C   UNL     1     -12.047   7.514  71.172  1.00  0.00    -0.307 C  
BRANCH  14  15
HETATM   15  C   UNL     1     -10.962   6.445  71.028  1.00  0.00    -0.328 C  
BRANCH  15  16
HETATM   16  C   UNL     1     -10.971   5.846  69.626  1.00  0.00    -0.377 C  
BRANCH  16  17
HETATM   17  N   UNL     1     -10.031   6.521  68.765  1.00  0.00    -0.139 N  
HETATM   18  N   UNL     1      -8.837   7.038  69.232  1.00  0.00    -0.139 NA 
HETATM   19  C   UNL     1      -8.380   7.704  68.217  1.00  0.00    -0.125 A  
HETATM   20  C   UNL     1      -7.112   8.460  68.136  1.00  0.00    -0.085 A  
HETATM   21  C   UNL     1      -6.832   9.090  66.981  1.00  0.00    -0.077 A  
HETATM   22  C   UNL     1      -7.746   9.042  65.854  1.00  0.00    -0.094 A  
HETATM   23  C   UNL     1      -8.894   8.352  65.950  1.00  0.00    -0.175 A  
HETATM   24  N   UNL     1      -9.175   7.698  67.116  1.00  0.00    -0.128 N  
HETATM   25  C   UNL     1     -10.282   6.955  67.451  1.00  0.00    -0.203 C  
HETATM   26  O   UNL     1     -11.283   6.739  66.777  1.00  0.00    -0.312 OA 
ENDBRANCH  16  17
ENDBRANCH  15  16
ENDBRANCH  14  15
ENDBRANCH  11  14
ENDBRANCH   6   8
TORSDOF 5
ENDMDL
MODEL       65
REMARK 921   NORMALIZED FREE ENERGY PREDICTED BY IDOCK:   -5.73 KCAL/MOL
REMARK 922        TOTAL FREE ENERGY PREDICTED BY IDOCK:   -8.04 KCAL/MOL
REMARK 923 INTER-LIGAND FREE ENERGY PREDICTED BY IDOCK:   -6.95 KCAL/MOL
REMARK 924 INTRA-LIGAND FREE ENERGY PREDICTED BY IDOCK:   -1.09 KCAL/MOL
REMARK 927      BINDING AFFINITY PREDICTED BY RF-SCORE:    0.00 PKD
ROOT
HETATM    1 CL   UNL     1     -12.407  14.524  63.971  1.00  0.00    -0.370 Cl 
HETATM    2  C   UNL     1     -11.239  13.594  64.829  1.00  0.00    -0.360 A  
HETATM    3  C   UNL     1     -11.234  12.211  64.704  1.00  0.00    -0.374 A  
HETATM    4  C   UNL     1     -10.290  11.470  65.406  1.00  0.00    -0.322 A  
HETATM    5  C   UNL     1      -9.372  12.119  66.240  1.00  0.00    -0.221 A  
HETATM    6  C   UNL     1      -9.374  13.513  66.402  1.00  0.00    -0.176 A  
HETATM    7  C   UNL     1     -10.318  14.238  65.660  1.00  0.00    -0.352 A  
ENDROOT
BRANCH   6   8
HETATM    8  N   UNL     1      -8.537  14.117  67.323  1.00  0.00    -0.208 NA 
HETATM    9  C   UNL     1      -8.778  15.497  67.770  1.00  0.00    -0.167 C  
HETATM   10  C   UNL     1      -8.360  15.644  69.251  1.00  0.00    -0.256 C  
HETATM   11  N   UNL     1      -6.965  15.234  69.552  1.00  0.00    -0.177 NA 
HETATM   12  C   UNL     1      -7.186  13.596  67.591  1.00  0.00    -0.170 C  
HETATM   13  C   UNL     1      -6.805  13.834  69.075  1.00  0.00    -0.111 C  
BRANCH  11  14
HETATM   14  C   UNL     1      -5.959  16.113  68.935  1.00  0.00    -0.123 C  
BRANCH  14  15
HETATM   15  C   UNL     1      -5.538  17.271  69.842  1.00  0.00    -0.230 C  
BRANCH  15  16
HETATM   16  C   UNL     1      -5.364  18.557  69.039  1.00  0.00    -0.198 C  
BRANCH  16  17
HETATM   17  N   UNL     1      -6.615  18.979  68.458  1.00  0.00    -0.243 N  
HETATM   18  N   UNL     1      -7.771  19.116  69.203  1.00  0.00    -0.271 NA 
HETATM   19  C   UNL     1      -8.684  19.329  68.307  1.00  0.00    -0.338 A  
HETATM   20  C   UNL     1     -10.126  19.565  68.532  1.00  0.00    -0.543 A  
HETATM   21  C   UNL     1     -10.904  19.757  67.451  1.00  0.00    -0.440 A  
HETATM   22  C   UNL     1     -10.353  19.724  66.108  1.00  0.00    -0.627 A  
HETATM   23  C   UNL     1      -9.041  19.505  65.926  1.00  0.00    -0.052 A  
HETATM   24  N   UNL     1      -8.244  19.324  67.021  1.00  0.00    -0.259 N  
HETATM   25  C   UNL     1      -6.895  19.068  67.082  1.00  0.00    -0.198 C  
HETATM   26  O   UNL     1      -6.109  18.916  66.154  1.00  0.00    -0.167 OA 
ENDBRANCH  16  17
ENDBRANCH  15  16
ENDBRANCH  14  15
ENDBRANCH  11  14
ENDBRANCH   6   8
TORSDOF 5
ENDMDL
MODEL       66
REMARK 921   NORMALIZED FREE ENERGY PREDICTED BY IDOCK:   -5.71 KCAL/MOL
REMARK 922        TOTAL FREE ENERGY PREDICTED BY IDOCK:   -8.02 KCAL/MOL
REMARK 923 INTER-LIGAND FREE ENERGY PREDICTED BY IDOCK:   -7.36 KCAL/MOL
REMARK 924 INTRA-LIGAND FREE ENERGY PREDICTED BY IDOCK:   -0.66 KCAL/MOL
REMARK 927      BINDING AFFINITY PREDICTED BY RF-SCORE:    0.00 PKD
ROOT
HETATM    1 CL   UNL     1      -7.309   2.731  72.887  1.00  0.00    -0.040 Cl 
HETATM    2  C   UNL     1      -8.824   3.543  72.995  1.00  0.00    -0.092 A  
HETATM    3  C   UNL     1      -9.899   2.914  73.611  1.00  0.00    -0.151 A  
HETATM    4  C   UNL     1     -11.119   3.576  73.688  1.00  0.00    -0.314 A  
HETATM    5  C   UNL     1     -11.257   4.852  73.131  1.00  0.00    -0.403 A  
HETATM    6  C   UNL     1     -10.193   5.497  72.480  1.00  0.00    -0.189 A  
HETATM    7  C   UNL     1      -8.966   4.818  72.443  1.00  0.00    -0.138 A  
ENDROOT
BRANCH   6   8
HETATM    8  N   UNL     1     -10.389   6.704  71.833  1.00  0.00    -0.198 NA 
HETATM    9  C   UNL     1      -9.848   7.954  72.387  1.00  0.00    -0.225 C  
HETATM   10  C   UNL     1      -9.433   8.897  71.235  1.00  0.00    -0.272 C  
HETATM   11  N   UNL     1     -10.501   9.184  70.245  1.00  0.00    -0.204 NA 
HETATM   12  C   UNL     1     -11.446   6.870  70.821  1.00  0.00    -0.335 C  
HETATM   13  C   UNL     1     -10.990   7.876  69.732  1.00  0.00    -0.148 C  
BRANCH  11  14
HETATM   14  C   UNL     1     -11.611   9.971  70.806  1.00  0.00    -0.360 C  
BRANCH  14  15
HETATM   15  C   UNL     1     -12.275  10.889  69.777  1.00  0.00    -0.381 C  
BRANCH  15  16
HETATM   16  C   UNL     1     -11.312  11.981  69.321  1.00  0.00    -0.268 C  
BRANCH  16  17
HETATM   17  N   UNL     1     -11.216  12.023  67.882  1.00  0.00    -0.245 N  
HETATM   18  N   UNL     1     -12.117  12.719  67.098  1.00  0.00    -0.433 NA 
HETATM   19  C   UNL     1     -11.801  12.365  65.891  1.00  0.00    -0.405 A  
HETATM   20  C   UNL     1     -12.427  12.816  64.629  1.00  0.00    -0.525 A  
HETATM   21  C   UNL     1     -11.946  12.315  63.478  1.00  0.00    -0.625 A  
HETATM   22  C   UNL     1     -10.857  11.355  63.469  1.00  0.00    -0.430 A  
HETATM   23  C   UNL     1     -10.304  10.956  64.626  1.00  0.00    -0.338 A  
HETATM   24  N   UNL     1     -10.780  11.474  65.797  1.00  0.00    -0.273 N  
HETATM   25  C   UNL     1     -10.391  11.205  67.088  1.00  0.00    -0.212 C  
HETATM   26  O   UNL     1      -9.543  10.410  67.475  1.00  0.00    -0.154 OA 
ENDBRANCH  16  17
ENDBRANCH  15  16
ENDBRANCH  14  15
ENDBRANCH  11  14
ENDBRANCH   6   8
TORSDOF 5
ENDMDL
MODEL       67
REMARK 921   NORMALIZED FREE ENERGY PREDICTED BY IDOCK:   -5.70 KCAL/MOL
REMARK 922        TOTAL FREE ENERGY PREDICTED BY IDOCK:   -8.00 KCAL/MOL
REMARK 923 INTER-LIGAND FREE ENERGY PREDICTED BY IDOCK:   -7.51 KCAL/MOL
REMARK 924 INTRA-LIGAND FREE ENERGY PREDICTED BY IDOCK:   -0.49 KCAL/MOL
REMARK 927      BINDING AFFINITY PREDICTED BY RF-SCORE:    0.00 PKD
ROOT
HETATM    1 CL   UNL     1     -10.651   4.821  66.145  1.00  0.00    -0.341 Cl 
HETATM    2  C   UNL     1     -10.546   6.063  67.334  1.00  0.00    -0.283 A  
HETATM    3  C   UNL     1     -10.493   5.723  68.680  1.00  0.00    -0.298 A  
HETATM    4  C   UNL     1     -10.414   6.733  69.632  1.00  0.00    -0.243 A  
HETATM    5  C   UNL     1     -10.408   8.073  69.229  1.00  0.00    -0.224 A  
HETATM    6  C   UNL     1     -10.487   8.442  67.877  1.00  0.00    -0.193 A  
HETATM    7  C   UNL     1     -10.536   7.402  66.936  1.00  0.00    -0.379 A  
ENDROOT
BRANCH   6   8
HETATM    8  N   UNL     1     -10.601   9.772  67.513  1.00  0.00    -0.263 NA 
HETATM    9  C   UNL     1     -10.035  10.259  66.246  1.00  0.00    -0.235 C  
HETATM   10  C   UNL     1     -10.931  11.381  65.674  1.00  0.00    -0.190 C  
HETATM   11  N   UNL     1     -11.188  12.512  66.600  1.00  0.00    -0.290 NA 
HETATM   12  C   UNL     1     -10.916  10.815  68.504  1.00  0.00    -0.243 C  
HETATM   13  C   UNL     1     -11.760  11.939  67.848  1.00  0.00    -0.298 C  
BRANCH  11  14
HETATM   14  C   UNL     1      -9.981  13.302  66.895  1.00  0.00    -0.250 C  
BRANCH  14  15
HETATM   15  C   UNL     1      -9.858  14.555  66.026  1.00  0.00    -0.342 C  
BRANCH  15  16
HETATM   16  C   UNL     1     -10.514  15.754  66.705  1.00  0.00    -0.305 C  
BRANCH  16  17
HETATM   17  N   UNL     1      -9.579  16.843  66.854  1.00  0.00    -0.245 N  
HETATM   18  N   UNL     1      -8.562  16.825  67.790  1.00  0.00    -0.196 NA 
HETATM   19  C   UNL     1      -8.075  18.026  67.728  1.00  0.00    -0.237 A  
HETATM   20  C   UNL     1      -6.946  18.578  68.506  1.00  0.00    -0.284 A  
HETATM   21  C   UNL     1      -6.607  19.862  68.290  1.00  0.00    -0.312 A  
HETATM   22  C   UNL     1      -7.328  20.684  67.335  1.00  0.00    -0.384 A  
HETATM   23  C   UNL     1      -8.353  20.163  66.642  1.00  0.00    -0.285 A  
HETATM   24  N   UNL     1      -8.692  18.856  66.847  1.00  0.00    -0.290 N  
HETATM   25  C   UNL     1      -9.703  18.119  66.276  1.00  0.00    -0.276 C  
HETATM   26  O   UNL     1     -10.549  18.489  65.470  1.00  0.00    -0.621 OA 
ENDBRANCH  16  17
ENDBRANCH  15  16
ENDBRANCH  14  15
ENDBRANCH  11  14
ENDBRANCH   6   8
TORSDOF 5
ENDMDL
MODEL       68
REMARK 921   NORMALIZED FREE ENERGY PREDICTED BY IDOCK:   -5.69 KCAL/MOL
REMARK 922        TOTAL FREE ENERGY PREDICTED BY IDOCK:   -7.99 KCAL/MOL
REMARK 923 INTER-LIGAND FREE ENERGY PREDICTED BY IDOCK:   -7.27 KCAL/MOL
REMARK 924 INTRA-LIGAND FREE ENERGY PREDICTED BY IDOCK:   -0.71 KCAL/MOL
REMARK 927      BINDING AFFINITY PREDICTED BY RF-SCORE:    0.00 PKD
ROOT
HETATM    1 CL   UNL     1     -11.773  15.341  68.985  1.00  0.00    -0.355 Cl 
HETATM    2  C   UNL     1     -12.495  14.391  70.227  1.00  0.00    -0.354 A  
HETATM    3  C   UNL     1     -13.233  15.012  71.227  1.00  0.00    -0.502 A  
HETATM    4  C   UNL     1     -13.806  14.237  72.228  1.00  0.00    -0.622 A  
HETATM    5  C   UNL     1     -13.621  12.850  72.230  1.00  0.00    -0.611 A  
HETATM    6  C   UNL     1     -12.858  12.202  71.245  1.00  0.00    -0.250 A  
HETATM    7  C   UNL     1     -12.315  13.005  70.231  1.00  0.00    -0.311 A  
ENDROOT
BRANCH   6   8
HETATM    8  N   UNL     1     -12.590  10.848  71.337  1.00  0.00    -0.402 NA 
HETATM    9  C   UNL     1     -13.406   9.974  72.193  1.00  0.00    -0.368 C  
HETATM   10  C   UNL     1     -13.523   8.575  71.545  1.00  0.00    -0.294 C  
HETATM   11  N   UNL     1     -12.229   7.926  71.218  1.00  0.00    -0.306 NA 
HETATM   12  C   UNL     1     -11.288  10.294  70.932  1.00  0.00    -0.295 C  
HETATM   13  C   UNL     1     -11.470   8.867  70.352  1.00  0.00    -0.157 C  
BRANCH  11  14
HETATM   14  C   UNL     1     -11.445   7.568  72.411  1.00  0.00    -0.315 C  
BRANCH  14  15
HETATM   15  C   UNL     1     -11.344   6.057  72.631  1.00  0.00    -0.320 C  
BRANCH  15  16
HETATM   16  C   UNL     1      -9.985   5.531  72.179  1.00  0.00    -0.178 C  
BRANCH  16  17
HETATM   17  N   UNL     1      -9.750   5.825  70.786  1.00  0.00    -0.170 N  
HETATM   18  N   UNL     1     -10.586   5.373  69.782  1.00  0.00    -0.313 NA 
HETATM   19  C   UNL     1      -9.948   5.686  68.697  1.00  0.00    -0.162 A  
HETATM   20  C   UNL     1     -10.380   5.454  67.302  1.00  0.00    -0.273 A  
HETATM   21  C   UNL     1      -9.556   5.853  66.317  1.00  0.00    -0.148 A  
HETATM   22  C   UNL     1      -8.279   6.482  66.608  1.00  0.00    -0.112 A  
HETATM   23  C   UNL     1      -7.905   6.680  67.883  1.00  0.00    -0.112 A  
HETATM   24  N   UNL     1      -8.745   6.289  68.886  1.00  0.00    -0.125 N  
HETATM   25  C   UNL     1      -8.571   6.370  70.247  1.00  0.00    -0.135 C  
HETATM   26  O   UNL     1      -7.599   6.789  70.864  1.00  0.00    -0.085 OA 
ENDBRANCH  16  17
ENDBRANCH  15  16
ENDBRANCH  14  15
ENDBRANCH  11  14
ENDBRANCH   6   8
TORSDOF 5
ENDMDL
MODEL       69
REMARK 921   NORMALIZED FREE ENERGY PREDICTED BY IDOCK:   -5.69 KCAL/MOL
REMARK 922        TOTAL FREE ENERGY PREDICTED BY IDOCK:   -7.98 KCAL/MOL
REMARK 923 INTER-LIGAND FREE ENERGY PREDICTED BY IDOCK:   -7.45 KCAL/MOL
REMARK 924 INTRA-LIGAND FREE ENERGY PREDICTED BY IDOCK:   -0.53 KCAL/MOL
REMARK 927      BINDING AFFINITY PREDICTED BY RF-SCORE:    0.00 PKD
ROOT
HETATM    1 CL   UNL     1     -10.890   6.875  68.786  1.00  0.00    -0.244 Cl 
HETATM    2  C   UNL     1     -10.240   7.853  67.525  1.00  0.00    -0.242 A  
HETATM    3  C   UNL     1      -9.422   7.278  66.562  1.00  0.00    -0.218 A  
HETATM    4  C   UNL     1      -8.898   8.078  65.552  1.00  0.00    -0.102 A  
HETATM    5  C   UNL     1      -9.183   9.447  65.527  1.00  0.00    -0.292 A  
HETATM    6  C   UNL     1      -9.986  10.056  66.505  1.00  0.00    -0.225 A  
HETATM    7  C   UNL     1     -10.525   9.221  67.495  1.00  0.00    -0.338 A  
ENDROOT
BRANCH   6   8
HETATM    8  N   UNL     1     -10.153  11.429  66.527  1.00  0.00    -0.209 NA 
HETATM    9  C   UNL     1     -11.292  12.062  65.845  1.00  0.00    -0.337 C  
HETATM   10  C   UNL     1     -11.747  13.307  66.641  1.00  0.00    -0.377 C  
HETATM   11  N   UNL     1     -10.680  14.303  66.910  1.00  0.00    -0.288 NA 
HETATM   12  C   UNL     1      -9.040  12.333  66.863  1.00  0.00    -0.208 C  
HETATM   13  C   UNL     1      -9.573  13.588  67.600  1.00  0.00    -0.222 C  
BRANCH  11  14
HETATM   14  C   UNL     1     -10.191  14.969  65.691  1.00  0.00    -0.360 C  
BRANCH  14  15
HETATM   15  C   UNL     1     -10.515  16.463  65.653  1.00  0.00    -0.364 C  
BRANCH  15  16
HETATM   16  C   UNL     1     -10.530  17.053  67.060  1.00  0.00    -0.279 C  
BRANCH  16  17
HETATM   17  N   UNL     1      -9.369  17.877  67.291  1.00  0.00    -0.255 N  
HETATM   18  N   UNL     1      -8.437  17.588  68.270  1.00  0.00    -0.258 NA 
HETATM   19  C   UNL     1      -7.672  18.636  68.275  1.00  0.00    -0.298 A  
HETATM   20  C   UNL     1      -6.484  18.877  69.122  1.00  0.00    -0.313 A  
HETATM   21  C   UNL     1      -5.835  20.045  68.970  1.00  0.00    -0.304 A  
HETATM   22  C   UNL     1      -6.286  21.042  68.016  1.00  0.00    -0.386 A  
HETATM   23  C   UNL     1      -7.369  20.805  67.259  1.00  0.00    -0.343 A  
HETATM   24  N   UNL     1      -8.024  19.614  67.400  1.00  0.00    -0.269 N  
HETATM   25  C   UNL     1      -9.152  19.161  66.757  1.00  0.00    -0.318 C  
HETATM   26  O   UNL     1      -9.840  19.746  65.930  1.00  0.00    -0.401 OA 
ENDBRANCH  16  17
ENDBRANCH  15  16
ENDBRANCH  14  15
ENDBRANCH  11  14
ENDBRANCH   6   8
TORSDOF 5
ENDMDL
MODEL       70
REMARK 921   NORMALIZED FREE ENERGY PREDICTED BY IDOCK:   -5.69 KCAL/MOL
REMARK 922        TOTAL FREE ENERGY PREDICTED BY IDOCK:   -7.98 KCAL/MOL
REMARK 923 INTER-LIGAND FREE ENERGY PREDICTED BY IDOCK:   -7.42 KCAL/MOL
REMARK 924 INTRA-LIGAND FREE ENERGY PREDICTED BY IDOCK:   -0.56 KCAL/MOL
REMARK 927      BINDING AFFINITY PREDICTED BY RF-SCORE:    0.00 PKD
ROOT
HETATM    1 CL   UNL     1     -10.839   5.241  66.312  1.00  0.00    -0.288 Cl 
HETATM    2  C   UNL     1     -10.723   6.336  67.635  1.00  0.00    -0.313 A  
HETATM    3  C   UNL     1     -10.788   5.853  68.936  1.00  0.00    -0.373 A  
HETATM    4  C   UNL     1     -10.699   6.746  69.997  1.00  0.00    -0.287 A  
HETATM    5  C   UNL     1     -10.564   8.116  69.747  1.00  0.00    -0.231 A  
HETATM    6  C   UNL     1     -10.522   8.632  68.442  1.00  0.00    -0.176 A  
HETATM    7  C   UNL     1     -10.585   7.705  67.390  1.00  0.00    -0.356 A  
ENDROOT
BRANCH   6   8
HETATM    8  N   UNL     1     -10.511   9.997  68.222  1.00  0.00    -0.200 NA 
HETATM    9  C   UNL     1     -11.519  10.870  68.843  1.00  0.00    -0.300 C  
HETATM   10  C   UNL     1     -10.884  12.239  69.179  1.00  0.00    -0.099 C  
HETATM   11  N   UNL     1     -10.232  12.926  68.036  1.00  0.00    -0.223 NA 
HETATM   12  C   UNL     1      -9.783  10.586  67.085  1.00  0.00    -0.171 C  
HETATM   13  C   UNL     1      -9.230  11.983  67.470  1.00  0.00    -0.180 C  
BRANCH  11  14
HETATM   14  C   UNL     1     -11.186  13.356  67.001  1.00  0.00    -0.305 C  
BRANCH  14  15
HETATM   15  C   UNL     1     -11.192  14.871  66.785  1.00  0.00    -0.338 C  
BRANCH  15  16
HETATM   16  C   UNL     1     -11.312  15.610  68.115  1.00  0.00    -0.340 C  
BRANCH  16  17
HETATM   17  N   UNL     1     -10.460  16.774  68.141  1.00  0.00    -0.315 N  
HETATM   18  N   UNL     1     -10.705  17.890  67.365  1.00  0.00    -0.343 NA 
HETATM   19  C   UNL     1      -9.643  18.616  67.536  1.00  0.00    -0.294 A  
HETATM   20  C   UNL     1      -9.358  19.944  66.952  1.00  0.00    -0.493 A  
HETATM   21  C   UNL     1      -8.183  20.521  67.257  1.00  0.00    -0.360 A  
HETATM   22  C   UNL     1      -7.219  19.863  68.121  1.00  0.00    -0.330 A  
HETATM   23  C   UNL     1      -7.496  18.656  68.638  1.00  0.00    -0.307 A  
HETATM   24  N   UNL     1      -8.695  18.071  68.343  1.00  0.00    -0.289 N  
HETATM   25  C   UNL     1      -9.186  16.848  68.735  1.00  0.00    -0.260 C  
HETATM   26  O   UNL     1      -8.636  15.994  69.419  1.00  0.00    -0.247 OA 
ENDBRANCH  16  17
ENDBRANCH  15  16
ENDBRANCH  14  15
ENDBRANCH  11  14
ENDBRANCH   6   8
TORSDOF 5
ENDMDL
MODEL       71
REMARK 921   NORMALIZED FREE ENERGY PREDICTED BY IDOCK:   -5.66 KCAL/MOL
REMARK 922        TOTAL FREE ENERGY PREDICTED BY IDOCK:   -7.94 KCAL/MOL
REMARK 923 INTER-LIGAND FREE ENERGY PREDICTED BY IDOCK:   -7.64 KCAL/MOL
REMARK 924 INTRA-LIGAND FREE ENERGY PREDICTED BY IDOCK:   -0.30 KCAL/MOL
REMARK 927      BINDING AFFINITY PREDICTED BY RF-SCORE:    0.00 PKD
ROOT
HETATM    1 CL   UNL     1     -10.951   8.087  69.252  1.00  0.00    -0.058 Cl 
HETATM    2  C   UNL     1     -10.562   8.904  67.786  1.00  0.00    -0.202 A  
HETATM    3  C   UNL     1      -9.877   8.229  66.784  1.00  0.00    -0.333 A  
HETATM    4  C   UNL     1      -9.563   8.899  65.607  1.00  0.00    -0.175 A  
HETATM    5  C   UNL     1      -9.920  10.243  65.453  1.00  0.00    -0.371 A  
HETATM    6  C   UNL     1     -10.589  10.954  66.462  1.00  0.00    -0.237 A  
HETATM    7  C   UNL     1     -10.920  10.245  67.626  1.00  0.00    -0.356 A  
ENDROOT
BRANCH   6   8
HETATM    8  N   UNL     1     -10.823  12.312  66.333  1.00  0.00    -0.255 NA 
HETATM    9  C   UNL     1     -11.532  12.848  65.162  1.00  0.00    -0.313 C  
HETATM   10  C   UNL     1     -12.380  14.070  65.582  1.00  0.00    -0.479 C  
HETATM   11  N   UNL     1     -11.629  15.146  66.275  1.00  0.00    -0.165 NA 
HETATM   12  C   UNL     1     -10.057  13.300  67.111  1.00  0.00    -0.239 C  
HETATM   13  C   UNL     1     -10.947  14.526  67.443  1.00  0.00    -0.303 C  
BRANCH  11  14
HETATM   14  C   UNL     1     -10.655  15.824  65.403  1.00  0.00    -0.421 C  
BRANCH  14  15
HETATM   15  C   UNL     1      -9.492  16.449  66.175  1.00  0.00    -0.363 C  
BRANCH  15  16
HETATM   16  C   UNL     1      -9.845  17.856  66.647  1.00  0.00    -0.342 C  
BRANCH  16  17
HETATM   17  N   UNL     1      -8.696  18.517  67.216  1.00  0.00    -0.263 N  
HETATM   18  N   UNL     1      -8.465  18.563  68.577  1.00  0.00    -0.329 NA 
HETATM   19  C   UNL     1      -7.462  19.379  68.685  1.00  0.00    -0.350 A  
HETATM   20  C   UNL     1      -6.772  19.796  69.925  1.00  0.00    -0.273 A  
HETATM   21  C   UNL     1      -5.752  20.664  69.811  1.00  0.00    -0.385 A  
HETATM   22  C   UNL     1      -5.344  21.186  68.518  1.00  0.00    -0.324 A  
HETATM   23  C   UNL     1      -5.987  20.796  67.405  1.00  0.00    -0.242 A  
HETATM   24  N   UNL     1      -7.014  19.903  67.515  1.00  0.00    -0.231 N  
HETATM   25  C   UNL     1      -7.821  19.381  66.531  1.00  0.00    -0.288 C  
HETATM   26  O   UNL     1      -7.812  19.629  65.332  1.00  0.00    -0.348 OA 
ENDBRANCH  16  17
ENDBRANCH  15  16
ENDBRANCH  14  15
ENDBRANCH  11  14
ENDBRANCH   6   8
TORSDOF 5
ENDMDL
MODEL       72
REMARK 921   NORMALIZED FREE ENERGY PREDICTED BY IDOCK:   -5.64 KCAL/MOL
REMARK 922        TOTAL FREE ENERGY PREDICTED BY IDOCK:   -7.92 KCAL/MOL
REMARK 923 INTER-LIGAND FREE ENERGY PREDICTED BY IDOCK:   -7.23 KCAL/MOL
REMARK 924 INTRA-LIGAND FREE ENERGY PREDICTED BY IDOCK:   -0.69 KCAL/MOL
REMARK 927      BINDING AFFINITY PREDICTED BY RF-SCORE:    0.00 PKD
ROOT
HETATM    1 CL   UNL     1     -10.106  20.014  69.705  1.00  0.00    -0.159 Cl 
HETATM    2  C   UNL     1     -10.243  19.093  68.256  1.00  0.00    -0.401 A  
HETATM    3  C   UNL     1     -10.572  19.729  67.066  1.00  0.00    -0.586 A  
HETATM    4  C   UNL     1     -10.687  18.976  65.903  1.00  0.00    -0.404 A  
HETATM    5  C   UNL     1     -10.488  17.591  65.946  1.00  0.00    -0.251 A  
HETATM    6  C   UNL     1     -10.180  16.922  67.141  1.00  0.00    -0.297 A  
HETATM    7  C   UNL     1     -10.043  17.711  68.293  1.00  0.00    -0.362 A  
ENDROOT
BRANCH   6   8
HETATM    8  N   UNL     1     -10.109  15.541  67.179  1.00  0.00    -0.250 NA 
HETATM    9  C   UNL     1     -10.197  14.816  68.455  1.00  0.00    -0.232 C  
HETATM   10  C   UNL     1     -10.920  13.467  68.238  1.00  0.00    -0.258 C  
HETATM   11  N   UNL     1     -10.331  12.603  67.185  1.00  0.00    -0.231 NA 
HETATM   12  C   UNL     1      -9.557  14.770  66.053  1.00  0.00    -0.301 C  
HETATM   13  C   UNL     1     -10.282  13.404  65.933  1.00  0.00    -0.299 C  
BRANCH  11  14
HETATM   14  C   UNL     1      -8.993  12.098  67.534  1.00  0.00    -0.177 C  
BRANCH  14  15
HETATM   15  C   UNL     1      -8.894  10.573  67.476  1.00  0.00    -0.131 C  
BRANCH  15  16
HETATM   16  C   UNL     1     -10.274   9.943  67.319  1.00  0.00    -0.222 C  
BRANCH  16  17
HETATM   17  N   UNL     1     -10.662   9.236  68.516  1.00  0.00    -0.183 N  
HETATM   18  N   UNL     1     -10.857   9.877  69.725  1.00  0.00    -0.252 NA 
HETATM   19  C   UNL     1     -11.011   8.898  70.563  1.00  0.00    -0.241 A  
HETATM   20  C   UNL     1     -11.270   8.992  72.015  1.00  0.00    -0.379 A  
HETATM   21  C   UNL     1     -11.391   7.842  72.704  1.00  0.00    -0.468 A  
HETATM   22  C   UNL     1     -11.261   6.553  72.050  1.00  0.00    -0.312 A  
HETATM   23  C   UNL     1     -11.022   6.491  70.730  1.00  0.00    -0.276 A  
HETATM   24  N   UNL     1     -10.914   7.655  70.024  1.00  0.00    -0.251 N  
HETATM   25  C   UNL     1     -10.656   7.840  68.686  1.00  0.00    -0.120 C  
HETATM   26  O   UNL     1     -10.435   6.990  67.832  1.00  0.00    -0.185 OA 
ENDBRANCH  16  17
ENDBRANCH  15  16
ENDBRANCH  14  15
ENDBRANCH  11  14
ENDBRANCH   6   8
TORSDOF 5
ENDMDL
MODEL       73
REMARK 921   NORMALIZED FREE ENERGY PREDICTED BY IDOCK:   -5.63 KCAL/MOL
REMARK 922        TOTAL FREE ENERGY PREDICTED BY IDOCK:   -7.92 KCAL/MOL
REMARK 923 INTER-LIGAND FREE ENERGY PREDICTED BY IDOCK:   -7.22 KCAL/MOL
REMARK 924 INTRA-LIGAND FREE ENERGY PREDICTED BY IDOCK:   -0.69 KCAL/MOL
REMARK 927      BINDING AFFINITY PREDICTED BY RF-SCORE:    0.00 PKD
ROOT
HETATM    1 CL   UNL     1     -11.578  14.913  69.023  1.00  0.00    -0.311 Cl 
HETATM    2  C   UNL     1     -12.383  13.991  70.235  1.00  0.00    -0.358 A  
HETATM    3  C   UNL     1     -13.188  14.634  71.166  1.00  0.00    -0.431 A  
HETATM    4  C   UNL     1     -13.828  13.882  72.144  1.00  0.00    -0.636 A  
HETATM    5  C   UNL     1     -13.643  12.495  72.191  1.00  0.00    -0.458 A  
HETATM    6  C   UNL     1     -12.814  11.826  71.277  1.00  0.00    -0.308 A  
HETATM    7  C   UNL     1     -12.203  12.606  70.284  1.00  0.00    -0.347 A  
ENDROOT
BRANCH   6   8
HETATM    8  N   UNL     1     -12.552  10.475  71.419  1.00  0.00    -0.404 NA 
HETATM    9  C   UNL     1     -13.464   9.605  72.177  1.00  0.00    -0.429 C  
HETATM   10  C   UNL     1     -13.490   8.198  71.538  1.00  0.00    -0.286 C  
HETATM   11  N   UNL     1     -12.162   7.554  71.384  1.00  0.00    -0.322 NA 
HETATM   12  C   UNL     1     -11.205   9.926  71.188  1.00  0.00    -0.334 C  
HETATM   13  C   UNL     1     -11.305   8.491  70.608  1.00  0.00    -0.241 C  
BRANCH  11  14
HETATM   14  C   UNL     1     -11.532   7.216  72.671  1.00  0.00    -0.235 C  
BRANCH  14  15
HETATM   15  C   UNL     1     -11.254   5.720  72.827  1.00  0.00    -0.336 C  
BRANCH  15  16
HETATM   16  C   UNL     1      -9.768   5.421  72.650  1.00  0.00    -0.151 C  
BRANCH  16  17
HETATM   17  N   UNL     1      -9.526   4.695  71.427  1.00  0.00    -0.148 N  
HETATM   18  N   UNL     1      -9.560   5.302  70.185  1.00  0.00    -0.166 NA 
HETATM   19  C   UNL     1      -9.476   4.304  69.361  1.00  0.00    -0.186 A  
HETATM   20  C   UNL     1      -9.449   4.359  67.883  1.00  0.00    -0.209 A  
HETATM   21  C   UNL     1      -9.365   3.195  67.216  1.00  0.00    -0.217 A  
HETATM   22  C   UNL     1      -9.312   1.924  67.916  1.00  0.00    -0.206 A  
HETATM   23  C   UNL     1      -9.341   1.897  69.258  1.00  0.00    -0.110 A  
HETATM   24  N   UNL     1      -9.412   3.077  69.941  1.00  0.00    -0.149 N  
HETATM   25  C   UNL     1      -9.472   3.296  71.297  1.00  0.00    -0.152 C  
HETATM   26  O   UNL     1      -9.505   2.466  72.198  1.00  0.00    -0.090 OA 
ENDBRANCH  16  17
ENDBRANCH  15  16
ENDBRANCH  14  15
ENDBRANCH  11  14
ENDBRANCH   6   8
TORSDOF 5
ENDMDL
MODEL       74
REMARK 921   NORMALIZED FREE ENERGY PREDICTED BY IDOCK:   -5.63 KCAL/MOL
REMARK 922        TOTAL FREE ENERGY PREDICTED BY IDOCK:   -7.91 KCAL/MOL
REMARK 923 INTER-LIGAND FREE ENERGY PREDICTED BY IDOCK:   -7.76 KCAL/MOL
REMARK 924 INTRA-LIGAND FREE ENERGY PREDICTED BY IDOCK:   -0.15 KCAL/MOL
REMARK 927      BINDING AFFINITY PREDICTED BY RF-SCORE:    0.00 PKD
ROOT
HETATM    1 CL   UNL     1      -6.804   6.619  64.218  1.00  0.00    -0.047 Cl 
HETATM    2  C   UNL     1      -8.000   7.635  64.927  1.00  0.00    -0.135 A  
HETATM    3  C   UNL     1      -8.351   8.824  64.299  1.00  0.00    -0.158 A  
HETATM    4  C   UNL     1      -9.314   9.640  64.882  1.00  0.00    -0.306 A  
HETATM    5  C   UNL     1      -9.901   9.269  66.097  1.00  0.00    -0.363 A  
HETATM    6  C   UNL     1      -9.544   8.086  66.763  1.00  0.00    -0.216 A  
HETATM    7  C   UNL     1      -8.592   7.267  66.137  1.00  0.00    -0.156 A  
ENDROOT
BRANCH   6   8
HETATM    8  N   UNL     1     -10.050   7.803  68.019  1.00  0.00    -0.178 NA 
HETATM    9  C   UNL     1     -11.096   6.785  68.199  1.00  0.00    -0.144 C  
HETATM   10  C   UNL     1     -10.895   6.067  69.554  1.00  0.00    -0.369 C  
HETATM   11  N   UNL     1     -10.830   6.964  70.735  1.00  0.00    -0.236 NA 
HETATM   12  C   UNL     1      -9.882   8.738  69.144  1.00  0.00    -0.181 C  
HETATM   13  C   UNL     1      -9.751   7.956  70.476  1.00  0.00    -0.174 C  
BRANCH  11  14
HETATM   14  C   UNL     1     -12.106   7.643  71.015  1.00  0.00    -0.258 C  
BRANCH  14  15
HETATM   15  C   UNL     1     -11.925   8.996  71.706  1.00  0.00    -0.438 C  
BRANCH  15  16
HETATM   16  C   UNL     1     -13.235   9.778  71.720  1.00  0.00    -0.436 C  
BRANCH  16  17
HETATM   17  N   UNL     1     -12.993  11.199  71.650  1.00  0.00    -0.462 N  
HETATM   18  N   UNL     1     -13.651  12.104  72.461  1.00  0.00    -0.123 NA 
HETATM   19  C   UNL     1     -13.298  13.255  71.975  1.00  0.00    -0.489 A  
HETATM   20  C   UNL     1     -13.691  14.594  72.462  1.00  0.00    -0.572 A  
HETATM   21  C   UNL     1     -13.214  15.664  71.802  1.00  0.00    -0.548 A  
HETATM   22  C   UNL     1     -12.349  15.514  70.645  1.00  0.00    -0.462 A  
HETATM   23  C   UNL     1     -12.006  14.288  70.218  1.00  0.00    -0.329 A  
HETATM   24  N   UNL     1     -12.477  13.199  70.894  1.00  0.00    -0.359 N  
HETATM   25  C   UNL     1     -12.281  11.863  70.635  1.00  0.00    -0.331 C  
HETATM   26  O   UNL     1     -11.656  11.353  69.713  1.00  0.00    -0.285 OA 
ENDBRANCH  16  17
ENDBRANCH  15  16
ENDBRANCH  14  15
ENDBRANCH  11  14
ENDBRANCH   6   8
TORSDOF 5
ENDMDL
MODEL       75
REMARK 921   NORMALIZED FREE ENERGY PREDICTED BY IDOCK:   -5.62 KCAL/MOL
REMARK 922        TOTAL FREE ENERGY PREDICTED BY IDOCK:   -7.90 KCAL/MOL
REMARK 923 INTER-LIGAND FREE ENERGY PREDICTED BY IDOCK:   -7.38 KCAL/MOL
REMARK 924 INTRA-LIGAND FREE ENERGY PREDICTED BY IDOCK:   -0.52 KCAL/MOL
REMARK 927      BINDING AFFINITY PREDICTED BY RF-SCORE:    0.00 PKD
ROOT
HETATM    1 CL   UNL     1     -10.266   3.167  72.005  1.00  0.00    -0.170 Cl 
HETATM    2  C   UNL     1     -10.232   4.833  72.439  1.00  0.00    -0.194 A  
HETATM    3  C   UNL     1     -10.518   5.210  73.745  1.00  0.00    -0.303 A  
HETATM    4  C   UNL     1     -10.493   6.558  74.084  1.00  0.00    -0.261 A  
HETATM    5  C   UNL     1     -10.200   7.517  73.108  1.00  0.00    -0.382 A  
HETATM    6  C   UNL     1      -9.933   7.163  71.776  1.00  0.00    -0.175 A  
HETATM    7  C   UNL     1      -9.937   5.794  71.469  1.00  0.00    -0.226 A  
ENDROOT
BRANCH   6   8
HETATM    8  N   UNL     1      -9.766   8.136  70.807  1.00  0.00    -0.169 NA 
HETATM    9  C   UNL     1      -8.883   9.289  71.038  1.00  0.00    -0.137 C  
HETATM   10  C   UNL     1      -8.210   9.703  69.710  1.00  0.00    -0.161 C  
HETATM   11  N   UNL     1      -9.147   9.980  68.592  1.00  0.00    -0.134 NA 
HETATM   12  C   UNL     1     -10.728   8.293  69.702  1.00  0.00    -0.194 C  
HETATM   13  C   UNL     1      -9.997   8.771  68.421  1.00  0.00    -0.179 C  
BRANCH  11  14
HETATM   14  C   UNL     1      -9.977  11.174  68.818  1.00  0.00    -0.198 C  
BRANCH  14  15
HETATM   15  C   UNL     1     -11.232  11.205  67.943  1.00  0.00    -0.365 C  
BRANCH  15  16
HETATM   16  C   UNL     1     -11.767  12.628  67.809  1.00  0.00    -0.356 C  
BRANCH  16  17
HETATM   17  N   UNL     1     -11.815  13.288  69.091  1.00  0.00    -0.321 N  
HETATM   18  N   UNL     1     -12.641  12.862  70.114  1.00  0.00    -0.032 NA 
HETATM   19  C   UNL     1     -12.526  13.800  71.003  1.00  0.00    -0.380 A  
HETATM   20  C   UNL     1     -13.181  13.867  72.327  1.00  0.00    -0.568 A  
HETATM   21  C   UNL     1     -12.928  14.942  73.096  1.00  0.00    -0.627 A  
HETATM   22  C   UNL     1     -12.050  16.006  72.642  1.00  0.00    -0.640 A  
HETATM   23  C   UNL     1     -11.468  15.926  71.435  1.00  0.00    -0.417 A  
HETATM   24  N   UNL     1     -11.711  14.830  70.656  1.00  0.00    -0.287 N  
HETATM   25  C   UNL     1     -11.249  14.540  69.394  1.00  0.00    -0.280 C  
HETATM   26  O   UNL     1     -10.534  15.225  68.672  1.00  0.00    -0.225 OA 
ENDBRANCH  16  17
ENDBRANCH  15  16
ENDBRANCH  14  15
ENDBRANCH  11  14
ENDBRANCH   6   8
TORSDOF 5
ENDMDL
MODEL       76
REMARK 921   NORMALIZED FREE ENERGY PREDICTED BY IDOCK:   -5.59 KCAL/MOL
REMARK 922        TOTAL FREE ENERGY PREDICTED BY IDOCK:   -7.86 KCAL/MOL
REMARK 923 INTER-LIGAND FREE ENERGY PREDICTED BY IDOCK:   -7.69 KCAL/MOL
REMARK 924 INTRA-LIGAND FREE ENERGY PREDICTED BY IDOCK:   -0.17 KCAL/MOL
REMARK 927      BINDING AFFINITY PREDICTED BY RF-SCORE:    0.00 PKD
ROOT
HETATM    1 CL   UNL     1     -11.409  14.488  65.579  1.00  0.00    -0.328 Cl 
HETATM    2  C   UNL     1     -10.802  12.943  65.119  1.00  0.00    -0.296 A  
HETATM    3  C   UNL     1     -10.772  12.589  63.776  1.00  0.00    -0.483 A  
HETATM    4  C   UNL     1     -10.285  11.337  63.416  1.00  0.00    -0.454 A  
HETATM    5  C   UNL     1      -9.851  10.446  64.404  1.00  0.00    -0.395 A  
HETATM    6  C   UNL     1      -9.897  10.772  65.769  1.00  0.00    -0.240 A  
HETATM    7  C   UNL     1     -10.365  12.052  66.102  1.00  0.00    -0.257 A  
ENDROOT
BRANCH   6   8
HETATM    8  N   UNL     1      -9.576   9.830  66.730  1.00  0.00    -0.169 NA 
HETATM    9  C   UNL     1     -10.402   8.627  66.913  1.00  0.00    -0.285 C  
HETATM   10  C   UNL     1      -9.504   7.438  67.324  1.00  0.00    -0.146 C  
HETATM   11  N   UNL     1      -8.657   7.676  68.519  1.00  0.00    -0.129 NA 
HETATM   12  C   UNL     1      -8.676  10.152  67.850  1.00  0.00    -0.122 C  
HETATM   13  C   UNL     1      -7.854   8.900  68.253  1.00  0.00    -0.101 C  
BRANCH  11  14
HETATM   14  C   UNL     1      -9.436   7.822  69.759  1.00  0.00    -0.160 C  
BRANCH  14  15
HETATM   15  C   UNL     1     -10.856   7.266  69.644  1.00  0.00    -0.238 C  
BRANCH  15  16
HETATM   16  C   UNL     1     -11.694   7.655  70.858  1.00  0.00    -0.271 C  
BRANCH  16  17
HETATM   17  N   UNL     1     -12.052   9.052  70.816  1.00  0.00    -0.191 N  
HETATM   18  N   UNL     1     -11.437   9.950  69.964  1.00  0.00    -0.239 NA 
HETATM   19  C   UNL     1     -11.900  11.098  70.352  1.00  0.00    -0.369 A  
HETATM   20  C   UNL     1     -11.596  12.428  69.783  1.00  0.00    -0.302 A  
HETATM   21  C   UNL     1     -12.184  13.499  70.347  1.00  0.00    -0.426 A  
HETATM   22  C   UNL     1     -13.079  13.359  71.482  1.00  0.00    -0.427 A  
HETATM   23  C   UNL     1     -13.339  12.142  71.985  1.00  0.00    -0.365 A  
HETATM   24  N   UNL     1     -12.756  11.050  71.407  1.00  0.00    -0.423 N  
HETATM   25  C   UNL     1     -12.855   9.724  71.755  1.00  0.00    -0.434 C  
HETATM   26  O   UNL     1     -13.473   9.230  72.691  1.00  0.00    -0.444 OA 
ENDBRANCH  16  17
ENDBRANCH  15  16
ENDBRANCH  14  15
ENDBRANCH  11  14
ENDBRANCH   6   8
TORSDOF 5
ENDMDL
MODEL       77
REMARK 921   NORMALIZED FREE ENERGY PREDICTED BY IDOCK:   -5.56 KCAL/MOL
REMARK 922        TOTAL FREE ENERGY PREDICTED BY IDOCK:   -7.82 KCAL/MOL
REMARK 923 INTER-LIGAND FREE ENERGY PREDICTED BY IDOCK:   -7.12 KCAL/MOL
REMARK 924 INTRA-LIGAND FREE ENERGY PREDICTED BY IDOCK:   -0.70 KCAL/MOL
REMARK 927      BINDING AFFINITY PREDICTED BY RF-SCORE:    0.00 PKD
ROOT
HETATM    1 CL   UNL     1      -9.739  18.049  66.421  1.00  0.00    -0.326 Cl 
HETATM    2  C   UNL     1     -10.370  16.662  67.224  1.00  0.00    -0.298 A  
HETATM    3  C   UNL     1     -11.058  16.814  68.421  1.00  0.00    -0.266 A  
HETATM    4  C   UNL     1     -11.559  15.688  69.064  1.00  0.00    -0.396 A  
HETATM    5  C   UNL     1     -11.349  14.419  68.513  1.00  0.00    -0.307 A  
HETATM    6  C   UNL     1     -10.635  14.237  67.319  1.00  0.00    -0.278 A  
HETATM    7  C   UNL     1     -10.166  15.393  66.676  1.00  0.00    -0.281 A  
ENDROOT
BRANCH   6   8
HETATM    8  N   UNL     1     -10.338  12.966  66.860  1.00  0.00    -0.242 NA 
HETATM    9  C   UNL     1     -11.345  12.167  66.147  1.00  0.00    -0.361 C  
HETATM   10  C   UNL     1     -10.653  11.298  65.071  1.00  0.00    -0.289 C  
HETATM   11  N   UNL     1      -9.559  10.431  65.575  1.00  0.00    -0.215 NA 
HETATM   12  C   UNL     1      -9.191  12.208  67.387  1.00  0.00    -0.182 C  
HETATM   13  C   UNL     1      -8.586  11.310  66.277  1.00  0.00    -0.172 C  
BRANCH  11  14
HETATM   14  C   UNL     1     -10.035   9.363  66.470  1.00  0.00    -0.269 C  
BRANCH  14  15
HETATM   15  C   UNL     1      -8.918   8.427  66.934  1.00  0.00    -0.168 C  
BRANCH  15  16
HETATM   16  C   UNL     1      -8.648   8.598  68.426  1.00  0.00    -0.135 C  
BRANCH  16  17
HETATM   17  N   UNL     1      -9.877   8.597  69.180  1.00  0.00    -0.180 N  
HETATM   18  N   UNL     1     -10.397   9.741  69.754  1.00  0.00    -0.227 NA 
HETATM   19  C   UNL     1     -11.381   9.297  70.474  1.00  0.00    -0.258 A  
HETATM   20  C   UNL     1     -12.313  10.087  71.307  1.00  0.00    -0.496 A  
HETATM   21  C   UNL     1     -13.264   9.419  71.984  1.00  0.00    -0.529 A  
HETATM   22  C   UNL     1     -13.370   7.973  71.911  1.00  0.00    -0.336 A  
HETATM   23  C   UNL     1     -12.511   7.275  71.151  1.00  0.00    -0.336 A  
HETATM   24  N   UNL     1     -11.552   7.949  70.450  1.00  0.00    -0.153 N  
HETATM   25  C   UNL     1     -10.563   7.455  69.633  1.00  0.00    -0.236 C  
HETATM   26  O   UNL     1     -10.307   6.285  69.375  1.00  0.00    -0.184 OA 
ENDBRANCH  16  17
ENDBRANCH  15  16
ENDBRANCH  14  15
ENDBRANCH  11  14
ENDBRANCH   6   8
TORSDOF 5
ENDMDL
MODEL       78
REMARK 921   NORMALIZED FREE ENERGY PREDICTED BY IDOCK:   -5.56 KCAL/MOL
REMARK 922        TOTAL FREE ENERGY PREDICTED BY IDOCK:   -7.81 KCAL/MOL
REMARK 923 INTER-LIGAND FREE ENERGY PREDICTED BY IDOCK:   -7.24 KCAL/MOL
REMARK 924 INTRA-LIGAND FREE ENERGY PREDICTED BY IDOCK:   -0.57 KCAL/MOL
REMARK 927      BINDING AFFINITY PREDICTED BY RF-SCORE:    0.00 PKD
ROOT
HETATM    1 CL   UNL     1      -8.422   4.083  66.726  1.00  0.00    -0.104 Cl 
HETATM    2  C   UNL     1      -9.184   5.260  67.725  1.00  0.00    -0.112 A  
HETATM    3  C   UNL     1      -9.897   4.853  68.845  1.00  0.00    -0.241 A  
HETATM    4  C   UNL     1     -10.513   5.811  69.643  1.00  0.00    -0.363 A  
HETATM    5  C   UNL     1     -10.425   7.165  69.301  1.00  0.00    -0.220 A  
HETATM    6  C   UNL     1      -9.732   7.599  68.160  1.00  0.00    -0.153 A  
HETATM    7  C   UNL     1      -9.095   6.614  67.390  1.00  0.00    -0.120 A  
ENDROOT
BRANCH   6   8
HETATM    8  N   UNL     1      -9.761   8.929  67.779  1.00  0.00    -0.155 NA 
HETATM    9  C   UNL     1     -10.727   9.863  68.376  1.00  0.00    -0.232 C  
HETATM   10  C   UNL     1     -10.089  11.267  68.491  1.00  0.00    -0.204 C  
HETATM   11  N   UNL     1      -9.547  11.815  67.222  1.00  0.00    -0.175 NA 
HETATM   12  C   UNL     1      -9.142   9.381  66.522  1.00  0.00    -0.153 C  
HETATM   13  C   UNL     1      -8.581  10.818  66.688  1.00  0.00    -0.143 C  
BRANCH  11  14
HETATM   14  C   UNL     1     -10.592  12.112  66.229  1.00  0.00    -0.250 C  
BRANCH  14  15
HETATM   15  C   UNL     1     -11.733  12.961  66.795  1.00  0.00    -0.445 C  
BRANCH  15  16
HETATM   16  C   UNL     1     -11.216  14.311  67.283  1.00  0.00    -0.318 C  
BRANCH  16  17
HETATM   17  N   UNL     1     -11.487  14.495  68.688  1.00  0.00    -0.277 N  
HETATM   18  N   UNL     1     -12.404  13.722  69.374  1.00  0.00    -0.262 NA 
HETATM   19  C   UNL     1     -12.484  14.305  70.530  1.00  0.00    -0.361 A  
HETATM   20  C   UNL     1     -13.311  13.898  71.686  1.00  0.00    -0.437 A  
HETATM   21  C   UNL     1     -13.249  14.655  72.796  1.00  0.00    -0.591 A  
HETATM   22  C   UNL     1     -12.408  15.837  72.859  1.00  0.00    -0.570 A  
HETATM   23  C   UNL     1     -11.666  16.189  71.797  1.00  0.00    -0.488 A  
HETATM   24  N   UNL     1     -11.715  15.416  70.672  1.00  0.00    -0.306 N  
HETATM   25  C   UNL     1     -11.069  15.587  69.470  1.00  0.00    -0.286 C  
HETATM   26  O   UNL     1     -10.322  16.498  69.134  1.00  0.00    -0.276 OA 
ENDBRANCH  16  17
ENDBRANCH  15  16
ENDBRANCH  14  15
ENDBRANCH  11  14
ENDBRANCH   6   8
TORSDOF 5
ENDMDL
MODEL       79
REMARK 921   NORMALIZED FREE ENERGY PREDICTED BY IDOCK:   -5.54 KCAL/MOL
REMARK 922        TOTAL FREE ENERGY PREDICTED BY IDOCK:   -7.80 KCAL/MOL
REMARK 923 INTER-LIGAND FREE ENERGY PREDICTED BY IDOCK:   -7.12 KCAL/MOL
REMARK 924 INTRA-LIGAND FREE ENERGY PREDICTED BY IDOCK:   -0.68 KCAL/MOL
REMARK 927      BINDING AFFINITY PREDICTED BY RF-SCORE:    0.00 PKD
ROOT
HETATM    1 CL   UNL     1      -7.453   4.259  65.811  1.00  0.00    -0.080 Cl 
HETATM    2  C   UNL     1      -8.575   5.317  66.577  1.00  0.00    -0.112 A  
HETATM    3  C   UNL     1      -9.385   4.837  67.598  1.00  0.00    -0.161 A  
HETATM    4  C   UNL     1     -10.292   5.698  68.207  1.00  0.00    -0.253 A  
HETATM    5  C   UNL     1     -10.392   7.025  67.775  1.00  0.00    -0.255 A  
HETATM    6  C   UNL     1      -9.602   7.527  66.728  1.00  0.00    -0.206 A  
HETATM    7  C   UNL     1      -8.676   6.644  66.152  1.00  0.00    -0.154 A  
ENDROOT
BRANCH   6   8
HETATM    8  N   UNL     1      -9.806   8.805  66.240  1.00  0.00    -0.281 NA 
HETATM    9  C   UNL     1     -10.974   9.595  66.656  1.00  0.00     0.217 C  
HETATM   10  C   UNL     1     -10.593  11.091  66.723  1.00  0.00    -0.266 C  
HETATM   11  N   UNL     1     -10.005  11.645  65.479  1.00  0.00    -0.234 NA 
HETATM   12  C   UNL     1      -9.127   9.279  65.022  1.00  0.00    -0.188 C  
HETATM   13  C   UNL     1      -8.833  10.798  65.130  1.00  0.00    -0.186 C  
BRANCH  11  14
HETATM   14  C   UNL     1     -10.962  11.696  64.361  1.00  0.00    -0.337 C  
BRANCH  14  15
HETATM   15  C   UNL     1     -12.238  12.470  64.700  1.00  0.00    -0.524 C  
BRANCH  15  16
HETATM   16  C   UNL     1     -12.050  13.964  64.455  1.00  0.00    -0.443 C  
BRANCH  16  17
HETATM   17  N   UNL     1     -11.564  14.628  65.641  1.00  0.00    -0.345 N  
HETATM   18  N   UNL     1     -11.949  14.250  66.913  1.00  0.00    -0.433 NA 
HETATM   19  C   UNL     1     -11.451  15.181  67.667  1.00  0.00    -0.309 A  
HETATM   20  C   UNL     1     -11.538  15.287  69.139  1.00  0.00    -0.349 A  
HETATM   21  C   UNL     1     -10.952  16.346  69.725  1.00  0.00    -0.341 A  
HETATM   22  C   UNL     1     -10.267  17.360  68.943  1.00  0.00    -0.352 A  
HETATM   23  C   UNL     1     -10.203  17.246  67.606  1.00  0.00    -0.333 A  
HETATM   24  N   UNL     1     -10.784  16.164  67.008  1.00  0.00    -0.293 N  
HETATM   25  C   UNL     1     -10.863  15.847  65.672  1.00  0.00    -0.284 C  
HETATM   26  O   UNL     1     -10.451  16.490  64.715  1.00  0.00    -0.617 OA 
ENDBRANCH  16  17
ENDBRANCH  15  16
ENDBRANCH  14  15
ENDBRANCH  11  14
ENDBRANCH   6   8
TORSDOF 5
ENDMDL
MODEL       80
REMARK 921   NORMALIZED FREE ENERGY PREDICTED BY IDOCK:   -5.53 KCAL/MOL
REMARK 922        TOTAL FREE ENERGY PREDICTED BY IDOCK:   -7.79 KCAL/MOL
REMARK 923 INTER-LIGAND FREE ENERGY PREDICTED BY IDOCK:   -7.54 KCAL/MOL
REMARK 924 INTRA-LIGAND FREE ENERGY PREDICTED BY IDOCK:   -0.25 KCAL/MOL
REMARK 927      BINDING AFFINITY PREDICTED BY RF-SCORE:    0.00 PKD
ROOT
HETATM    1 CL   UNL     1     -10.721   3.698  63.780  1.00  0.00    -0.284 Cl 
HETATM    2  C   UNL     1      -9.835   3.596  65.253  1.00  0.00    -0.106 A  
HETATM    3  C   UNL     1      -8.941   2.550  65.447  1.00  0.00    -0.131 A  
HETATM    4  C   UNL     1      -8.235   2.473  66.642  1.00  0.00    -0.086 A  
HETATM    5  C   UNL     1      -8.443   3.434  67.638  1.00  0.00    -0.108 A  
HETATM    6  C   UNL     1      -9.359   4.485  67.476  1.00  0.00    -0.147 A  
HETATM    7  C   UNL     1     -10.037   4.554  66.250  1.00  0.00    -0.280 A  
ENDROOT
BRANCH   6   8
HETATM    8  N   UNL     1      -9.635   5.348  68.521  1.00  0.00    -0.123 NA 
HETATM    9  C   UNL     1     -10.712   6.344  68.414  1.00  0.00    -0.286 C  
HETATM   10  C   UNL     1     -11.372   6.548  69.797  1.00  0.00    -0.393 C  
HETATM   11  N   UNL     1     -10.436   6.907  70.891  1.00  0.00    -0.210 NA 
HETATM   12  C   UNL     1      -8.656   5.594  69.593  1.00  0.00    -0.110 C  
HETATM   13  C   UNL     1      -9.386   5.854  70.936  1.00  0.00    -0.161 C  
BRANCH  11  14
HETATM   14  C   UNL     1      -9.832   8.239  70.720  1.00  0.00    -0.179 C  
BRANCH  14  15
HETATM   15  C   UNL     1     -10.745   9.375  71.186  1.00  0.00    -0.417 C  
BRANCH  15  16
HETATM   16  C   UNL     1     -11.437  10.039  69.999  1.00  0.00    -0.248 C  
BRANCH  16  17
HETATM   17  N   UNL     1     -12.065  11.277  70.390  1.00  0.00    -0.360 N  
HETATM   18  N   UNL     1     -11.663  12.502  69.891  1.00  0.00    -0.289 NA 
HETATM   19  C   UNL     1     -12.333  13.352  70.606  1.00  0.00    -0.348 A  
HETATM   20  C   UNL     1     -12.313  14.827  70.501  1.00  0.00    -0.398 A  
HETATM   21  C   UNL     1     -13.085  15.525  71.353  1.00  0.00    -0.580 A  
HETATM   22  C   UNL     1     -13.904  14.859  72.351  1.00  0.00    -0.587 A  
HETATM   23  C   UNL     1     -13.905  13.518  72.431  1.00  0.00    -0.586 A  
HETATM   24  N   UNL     1     -13.133  12.804  71.558  1.00  0.00    -0.344 N  
HETATM   25  C   UNL     1     -12.959  11.444  71.463  1.00  0.00    -0.399 C  
HETATM   26  O   UNL     1     -13.442  10.567  72.169  1.00  0.00    -0.382 OA 
ENDBRANCH  16  17
ENDBRANCH  15  16
ENDBRANCH  14  15
ENDBRANCH  11  14
ENDBRANCH   6   8
TORSDOF 5
ENDMDL
MODEL       81
REMARK 921   NORMALIZED FREE ENERGY PREDICTED BY IDOCK:   -5.51 KCAL/MOL
REMARK 922        TOTAL FREE ENERGY PREDICTED BY IDOCK:   -7.76 KCAL/MOL
REMARK 923 INTER-LIGAND FREE ENERGY PREDICTED BY IDOCK:   -7.25 KCAL/MOL
REMARK 924 INTRA-LIGAND FREE ENERGY PREDICTED BY IDOCK:   -0.50 KCAL/MOL
REMARK 927      BINDING AFFINITY PREDICTED BY RF-SCORE:    0.00 PKD
ROOT
HETATM    1 CL   UNL     1      -7.013  21.214  67.104  1.00  0.00    -0.407 Cl 
HETATM    2  C   UNL     1      -8.378  20.166  67.176  1.00  0.00    -0.337 A  
HETATM    3  C   UNL     1      -9.658  20.698  67.084  1.00  0.00    -0.534 A  
HETATM    4  C   UNL     1     -10.753  19.844  67.148  1.00  0.00    -0.469 A  
HETATM    5  C   UNL     1     -10.557  18.470  67.322  1.00  0.00    -0.453 A  
HETATM    6  C   UNL     1      -9.275  17.912  67.444  1.00  0.00    -0.253 A  
HETATM    7  C   UNL     1      -8.187  18.793  67.346  1.00  0.00    -0.278 A  
ENDROOT
BRANCH   6   8
HETATM    8  N   UNL     1      -9.114  16.569  67.736  1.00  0.00    -0.203 NA 
HETATM    9  C   UNL     1      -8.832  15.594  66.672  1.00  0.00    -0.292 C  
HETATM   10  C   UNL     1      -7.908  14.481  67.219  1.00  0.00    -0.173 C  
HETATM   11  N   UNL     1      -8.407  13.795  68.437  1.00  0.00    -0.157 NA 
HETATM   12  C   UNL     1      -9.597  15.996  69.003  1.00  0.00    -0.247 C  
HETATM   13  C   UNL     1      -8.663  14.845  69.460  1.00  0.00     0.022 C  
BRANCH  11  14
HETATM   14  C   UNL     1      -9.620  12.997  68.195  1.00  0.00    -0.227 C  
BRANCH  14  15
HETATM   15  C   UNL     1      -9.316  11.555  67.783  1.00  0.00    -0.168 C  
BRANCH  15  16
HETATM   16  C   UNL     1      -8.427  10.870  68.816  1.00  0.00    -0.150 C  
BRANCH  16  17
HETATM   17  N   UNL     1      -9.207  10.047  69.709  1.00  0.00    -0.219 N  
HETATM   18  N   UNL     1     -10.589  10.045  69.698  1.00  0.00    -0.234 NA 
HETATM   19  C   UNL     1     -10.896   9.335  70.739  1.00  0.00    -0.284 A  
HETATM   20  C   UNL     1     -12.250   8.981  71.217  1.00  0.00    -0.373 A  
HETATM   21  C   UNL     1     -12.344   8.236  72.333  1.00  0.00    -0.385 A  
HETATM   22  C   UNL     1     -11.161   7.799  73.052  1.00  0.00    -0.419 A  
HETATM   23  C   UNL     1      -9.941   8.134  72.602  1.00  0.00    -0.301 A  
HETATM   24  N   UNL     1      -9.840   8.879  71.461  1.00  0.00    -0.294 N  
HETATM   25  C   UNL     1      -8.715   9.353  70.829  1.00  0.00    -0.157 C  
HETATM   26  O   UNL     1      -7.545   9.233  71.172  1.00  0.00    -0.261 OA 
ENDBRANCH  16  17
ENDBRANCH  15  16
ENDBRANCH  14  15
ENDBRANCH  11  14
ENDBRANCH   6   8
TORSDOF 5
ENDMDL
MODEL       82
REMARK 921   NORMALIZED FREE ENERGY PREDICTED BY IDOCK:   -5.50 KCAL/MOL
REMARK 922        TOTAL FREE ENERGY PREDICTED BY IDOCK:   -7.75 KCAL/MOL
REMARK 923 INTER-LIGAND FREE ENERGY PREDICTED BY IDOCK:   -7.14 KCAL/MOL
REMARK 924 INTRA-LIGAND FREE ENERGY PREDICTED BY IDOCK:   -0.61 KCAL/MOL
REMARK 927      BINDING AFFINITY PREDICTED BY RF-SCORE:    0.00 PKD
ROOT
HETATM    1 CL   UNL     1     -10.094  20.341  66.306  1.00  0.00    -0.521 Cl 
HETATM    2  C   UNL     1      -9.370  19.089  67.242  1.00  0.00    -0.304 A  
HETATM    3  C   UNL     1      -8.100  19.274  67.773  1.00  0.00    -0.321 A  
HETATM    4  C   UNL     1      -7.522  18.256  68.523  1.00  0.00    -0.300 A  
HETATM    5  C   UNL     1      -8.213  17.055  68.717  1.00  0.00    -0.245 A  
HETATM    6  C   UNL     1      -9.486  16.834  68.169  1.00  0.00    -0.234 A  
HETATM    7  C   UNL     1     -10.057  17.889  67.442  1.00  0.00    -0.341 A  
ENDROOT
BRANCH   6   8
HETATM    8  N   UNL     1     -10.095  15.596  68.274  1.00  0.00    -0.216 NA 
HETATM    9  C   UNL     1     -11.560  15.476  68.318  1.00  0.00    -0.334 C  
HETATM   10  C   UNL     1     -11.997  14.174  67.608  1.00  0.00    -0.370 C  
HETATM   11  N   UNL     1     -11.357  12.937  68.119  1.00  0.00    -0.268 NA 
HETATM   12  C   UNL     1      -9.353  14.412  68.741  1.00  0.00    -0.150 C  
HETATM   13  C   UNL     1      -9.885  13.136  68.038  1.00  0.00    -0.231 C  
BRANCH  11  14
HETATM   14  C   UNL     1     -11.763  12.603  69.494  1.00  0.00    -0.308 C  
BRANCH  14  15
HETATM   15  C   UNL     1     -12.284  11.171  69.634  1.00  0.00    -0.360 C  
BRANCH  15  16
HETATM   16  C   UNL     1     -11.347  10.333  70.498  1.00  0.00    -0.341 C  
BRANCH  16  17
HETATM   17  N   UNL     1     -10.910   9.151  69.795  1.00  0.00    -0.227 N  
HETATM   18  N   UNL     1     -10.590   9.163  68.451  1.00  0.00    -0.201 NA 
HETATM   19  C   UNL     1     -10.427   7.907  68.169  1.00  0.00    -0.173 A  
HETATM   20  C   UNL     1     -10.055   7.320  66.864  1.00  0.00    -0.317 A  
HETATM   21  C   UNL     1      -9.946   5.982  66.789  1.00  0.00    -0.215 A  
HETATM   22  C   UNL     1     -10.195   5.137  67.944  1.00  0.00    -0.180 A  
HETATM   23  C   UNL     1     -10.534   5.691  69.119  1.00  0.00    -0.269 A  
HETATM   24  N   UNL     1     -10.632   7.051  69.204  1.00  0.00    -0.214 N  
HETATM   25  C   UNL     1     -10.979   7.832  70.281  1.00  0.00    -0.247 C  
HETATM   26  O   UNL     1     -11.309   7.472  71.404  1.00  0.00    -0.250 OA 
ENDBRANCH  16  17
ENDBRANCH  15  16
ENDBRANCH  14  15
ENDBRANCH  11  14
ENDBRANCH   6   8
TORSDOF 5
ENDMDL
MODEL       83
REMARK 921   NORMALIZED FREE ENERGY PREDICTED BY IDOCK:   -5.49 KCAL/MOL
REMARK 922        TOTAL FREE ENERGY PREDICTED BY IDOCK:   -7.72 KCAL/MOL
REMARK 923 INTER-LIGAND FREE ENERGY PREDICTED BY IDOCK:   -7.14 KCAL/MOL
REMARK 924 INTRA-LIGAND FREE ENERGY PREDICTED BY IDOCK:   -0.58 KCAL/MOL
REMARK 927      BINDING AFFINITY PREDICTED BY RF-SCORE:    0.00 PKD
ROOT
HETATM    1 CL   UNL     1     -10.422  16.812  65.767  1.00  0.00    -0.350 Cl 
HETATM    2  C   UNL     1     -10.990  15.209  65.499  1.00  0.00    -0.365 A  
HETATM    3  C   UNL     1     -11.717  14.920  64.351  1.00  0.00    -0.338 A  
HETATM    4  C   UNL     1     -12.176  13.623  64.146  1.00  0.00    -0.450 A  
HETATM    5  C   UNL     1     -11.920  12.634  65.102  1.00  0.00    -0.474 A  
HETATM    6  C   UNL     1     -11.211  12.907  66.282  1.00  0.00    -0.301 A  
HETATM    7  C   UNL     1     -10.734  14.216  66.448  1.00  0.00    -0.288 A  
ENDROOT
BRANCH   6   8
HETATM    8  N   UNL     1     -11.077  11.943  67.265  1.00  0.00    -0.270 NA 
HETATM    9  C   UNL     1     -11.499  12.210  68.648  1.00  0.00    -0.296 C  
HETATM   10  C   UNL     1     -12.048  10.911  69.283  1.00  0.00    -0.261 C  
HETATM   11  N   UNL     1     -11.124   9.751  69.234  1.00  0.00    -0.192 NA 
HETATM   12  C   UNL     1     -10.171  10.794  67.094  1.00  0.00    -0.213 C  
HETATM   13  C   UNL     1     -10.749   9.545  67.810  1.00  0.00    -0.242 C  
BRANCH  11  14
HETATM   14  C   UNL     1      -9.925   9.933  70.068  1.00  0.00    -0.254 C  
BRANCH  14  15
HETATM   15  C   UNL     1      -9.940   9.074  71.335  1.00  0.00    -0.388 C  
BRANCH  15  16
HETATM   16  C   UNL     1     -11.244   8.290  71.446  1.00  0.00    -0.255 C  
BRANCH  16  17
HETATM   17  N   UNL     1     -10.993   6.871  71.507  1.00  0.00    -0.234 N  
HETATM   18  N   UNL     1     -11.047   6.159  72.691  1.00  0.00    -0.260 NA 
HETATM   19  C   UNL     1     -10.595   4.989  72.358  1.00  0.00    -0.215 A  
HETATM   20  C   UNL     1     -10.441   3.804  73.230  1.00  0.00    -0.258 A  
HETATM   21  C   UNL     1      -9.942   2.684  72.679  1.00  0.00    -0.219 A  
HETATM   22  C   UNL     1      -9.556   2.636  71.280  1.00  0.00    -0.226 A  
HETATM   23  C   UNL     1      -9.702   3.724  70.507  1.00  0.00    -0.160 A  
HETATM   24  N   UNL     1     -10.222   4.861  71.058  1.00  0.00    -0.213 N  
HETATM   25  C   UNL     1     -10.443   6.087  70.477  1.00  0.00    -0.242 C  
HETATM   26  O   UNL     1     -10.190   6.439  69.331  1.00  0.00    -0.174 OA 
ENDBRANCH  16  17
ENDBRANCH  15  16
ENDBRANCH  14  15
ENDBRANCH  11  14
ENDBRANCH   6   8
TORSDOF 5
ENDMDL
MODEL       84
REMARK 921   NORMALIZED FREE ENERGY PREDICTED BY IDOCK:   -5.44 KCAL/MOL
REMARK 922        TOTAL FREE ENERGY PREDICTED BY IDOCK:   -7.66 KCAL/MOL
REMARK 923 INTER-LIGAND FREE ENERGY PREDICTED BY IDOCK:   -6.72 KCAL/MOL
REMARK 924 INTRA-LIGAND FREE ENERGY PREDICTED BY IDOCK:   -0.94 KCAL/MOL
REMARK 927      BINDING AFFINITY PREDICTED BY RF-SCORE:    0.00 PKD
ROOT
HETATM    1 CL   UNL     1     -11.233  16.525  68.263  1.00  0.00    -0.328 Cl 
HETATM    2  C   UNL     1     -11.560  14.995  68.984  1.00  0.00    -0.319 A  
HETATM    3  C   UNL     1     -12.224  14.938  70.203  1.00  0.00    -0.387 A  
HETATM    4  C   UNL     1     -12.477  13.698  70.780  1.00  0.00    -0.432 A  
HETATM    5  C   UNL     1     -12.048  12.530  70.140  1.00  0.00    -0.368 A  
HETATM    6  C   UNL     1     -11.352  12.564  68.921  1.00  0.00    -0.297 A  
HETATM    7  C   UNL     1     -11.135  13.826  68.348  1.00  0.00    -0.287 A  
ENDROOT
BRANCH   6   8
HETATM    8  N   UNL     1     -10.833  11.405  68.372  1.00  0.00    -0.193 NA 
HETATM    9  C   UNL     1     -10.849  11.186  66.918  1.00  0.00    -0.279 C  
HETATM   10  C   UNL     1      -9.590  10.393  66.498  1.00  0.00    -0.179 C  
HETATM   11  N   UNL     1      -9.389   9.110  67.217  1.00  0.00    -0.133 NA 
HETATM   12  C   UNL     1     -10.618  10.198  69.188  1.00  0.00    -0.224 C  
HETATM   13  C   UNL     1      -9.381   9.417  68.673  1.00  0.00    -0.142 C  
BRANCH  11  14
HETATM   14  C   UNL     1     -10.417   8.105  66.902  1.00  0.00    -0.309 C  
BRANCH  14  15
HETATM   15  C   UNL     1      -9.845   6.695  66.737  1.00  0.00    -0.227 C  
BRANCH  15  16
HETATM   16  C   UNL     1     -10.658   5.681  67.536  1.00  0.00    -0.221 C  
BRANCH  16  17
HETATM   17  N   UNL     1     -10.605   5.970  68.949  1.00  0.00    -0.257 N  
HETATM   18  N   UNL     1     -11.596   6.681  69.599  1.00  0.00    -0.296 NA 
HETATM   19  C   UNL     1     -11.099   6.877  70.781  1.00  0.00    -0.275 A  
HETATM   20  C   UNL     1     -11.734   7.578  71.917  1.00  0.00    -0.320 A  
HETATM   21  C   UNL     1     -11.034   7.676  73.062  1.00  0.00    -0.457 A  
HETATM   22  C   UNL     1      -9.697   7.123  73.179  1.00  0.00    -0.232 A  
HETATM   23  C   UNL     1      -9.138   6.493  72.134  1.00  0.00    -0.139 A  
HETATM   24  N   UNL     1      -9.850   6.378  70.974  1.00  0.00    -0.179 N  
HETATM   25  C   UNL     1      -9.483   5.801  69.781  1.00  0.00    -0.148 C  
HETATM   26  O   UNL     1      -8.413   5.283  69.487  1.00  0.00    -0.093 OA 
ENDBRANCH  16  17
ENDBRANCH  15  16
ENDBRANCH  14  15
ENDBRANCH  11  14
ENDBRANCH   6   8
TORSDOF 5
ENDMDL
MODEL       85
REMARK 921   NORMALIZED FREE ENERGY PREDICTED BY IDOCK:   -5.40 KCAL/MOL
REMARK 922        TOTAL FREE ENERGY PREDICTED BY IDOCK:   -7.61 KCAL/MOL
REMARK 923 INTER-LIGAND FREE ENERGY PREDICTED BY IDOCK:   -6.70 KCAL/MOL
REMARK 924 INTRA-LIGAND FREE ENERGY PREDICTED BY IDOCK:   -0.92 KCAL/MOL
REMARK 927      BINDING AFFINITY PREDICTED BY RF-SCORE:    0.00 PKD
ROOT
HETATM    1 CL   UNL     1     -14.400  15.444  72.292  1.00  0.00    -0.638 Cl 
HETATM    2  C   UNL     1     -13.387  14.404  71.364  1.00  0.00    -0.349 A  
HETATM    3  C   UNL     1     -12.702  14.911  70.267  1.00  0.00    -0.317 A  
HETATM    4  C   UNL     1     -11.891  14.062  69.522  1.00  0.00    -0.378 A  
HETATM    5  C   UNL     1     -11.790  12.711  69.870  1.00  0.00    -0.364 A  
HETATM    6  C   UNL     1     -12.492  12.169  70.958  1.00  0.00    -0.269 A  
HETATM    7  C   UNL     1     -13.280  13.054  71.710  1.00  0.00    -0.486 A  
ENDROOT
BRANCH   6   8
HETATM    8  N   UNL     1     -12.470  10.809  71.207  1.00  0.00    -0.389 NA 
HETATM    9  C   UNL     1     -13.390  10.204  72.181  1.00  0.00    -0.328 C  
HETATM   10  C   UNL     1     -13.787   8.786  71.710  1.00  0.00    -0.423 C  
HETATM   11  N   UNL     1     -12.649   7.876  71.433  1.00  0.00    -0.316 NA 
HETATM   12  C   UNL     1     -11.309   9.980  70.840  1.00  0.00    -0.361 C  
HETATM   13  C   UNL     1     -11.772   8.555  70.441  1.00  0.00     0.001 C  
BRANCH  11  14
HETATM   14  C   UNL     1     -11.888   7.518  72.641  1.00  0.00    -0.174 C  
BRANCH  14  15
HETATM   15  C   UNL     1     -11.363   6.081  72.615  1.00  0.00    -0.320 C  
BRANCH  15  16
HETATM   16  C   UNL     1      -9.845   6.054  72.767  1.00  0.00    -0.163 C  
BRANCH  16  17
HETATM   17  N   UNL     1      -9.208   6.878  71.769  1.00  0.00    -0.143 N  
HETATM   18  N   UNL     1      -9.031   6.459  70.464  1.00  0.00    -0.150 NA 
HETATM   19  C   UNL     1      -8.280   7.384  69.950  1.00  0.00    -0.132 A  
HETATM   20  C   UNL     1      -7.780   7.466  68.561  1.00  0.00    -0.120 A  
HETATM   21  C   UNL     1      -7.003   8.516  68.238  1.00  0.00    -0.070 A  
HETATM   22  C   UNL     1      -6.655   9.529  69.218  1.00  0.00    -0.048 A  
HETATM   23  C   UNL     1      -7.118   9.433  70.475  1.00  0.00    -0.112 A  
HETATM   24  N   UNL     1      -7.919   8.377  70.804  1.00  0.00    -0.097 N  
HETATM   25  C   UNL     1      -8.487   8.061  72.016  1.00  0.00    -0.144 C  
HETATM   26  O   UNL     1      -8.372   8.650  73.084  1.00  0.00    -0.405 OA 
ENDBRANCH  16  17
ENDBRANCH  15  16
ENDBRANCH  14  15
ENDBRANCH  11  14
ENDBRANCH   6   8
TORSDOF 5
ENDMDL
MODEL       86
REMARK 921   NORMALIZED FREE ENERGY PREDICTED BY IDOCK:   -5.40 KCAL/MOL
REMARK 922        TOTAL FREE ENERGY PREDICTED BY IDOCK:   -7.61 KCAL/MOL
REMARK 923 INTER-LIGAND FREE ENERGY PREDICTED BY IDOCK:   -7.01 KCAL/MOL
REMARK 924 INTRA-LIGAND FREE ENERGY PREDICTED BY IDOCK:   -0.60 KCAL/MOL
REMARK 927      BINDING AFFINITY PREDICTED BY RF-SCORE:    0.00 PKD
ROOT
HETATM    1 CL   UNL     1      -7.072  20.169  65.564  1.00  0.00    -0.331 Cl 
HETATM    2  C   UNL     1      -8.464  19.529  66.350  1.00  0.00    -0.352 A  
HETATM    3  C   UNL     1      -9.269  20.367  67.112  1.00  0.00    -0.511 A  
HETATM    4  C   UNL     1     -10.387  19.840  67.748  1.00  0.00    -0.573 A  
HETATM    5  C   UNL     1     -10.679  18.476  67.630  1.00  0.00    -0.405 A  
HETATM    6  C   UNL     1      -9.867  17.605  66.888  1.00  0.00    -0.306 A  
HETATM    7  C   UNL     1      -8.761  18.169  66.233  1.00  0.00    -0.195 A  
ENDROOT
BRANCH   6   8
HETATM    8  N   UNL     1     -10.108  16.243  66.887  1.00  0.00    -0.271 NA 
HETATM    9  C   UNL     1     -10.788  15.596  68.020  1.00  0.00    -0.308 C  
HETATM   10  C   UNL     1     -11.659  14.427  67.504  1.00  0.00    -0.373 C  
HETATM   11  N   UNL     1     -10.938  13.422  66.685  1.00  0.00    -0.285 NA 
HETATM   12  C   UNL     1      -9.375  15.333  65.991  1.00  0.00    -0.311 C  
HETATM   13  C   UNL     1     -10.285  14.152  65.565  1.00  0.00    -0.351 C  
BRANCH  11  14
HETATM   14  C   UNL     1      -9.946  12.654  67.456  1.00  0.00    -0.205 C  
BRANCH  14  15
HETATM   15  C   UNL     1     -10.575  11.794  68.553  1.00  0.00    -0.242 C  
BRANCH  15  16
HETATM   16  C   UNL     1     -11.352  10.627  67.951  1.00  0.00    -0.268 C  
BRANCH  16  17
HETATM   17  N   UNL     1     -10.683   9.373  68.201  1.00  0.00    -0.209 N  
HETATM   18  N   UNL     1     -10.505   8.868  69.475  1.00  0.00    -0.223 NA 
HETATM   19  C   UNL     1      -9.724   7.849  69.288  1.00  0.00    -0.159 A  
HETATM   20  C   UNL     1      -9.209   6.912  70.310  1.00  0.00    -0.156 A  
HETATM   21  C   UNL     1      -8.400   5.920  69.898  1.00  0.00    -0.121 A  
HETATM   22  C   UNL     1      -8.034   5.775  68.500  1.00  0.00    -0.101 A  
HETATM   23  C   UNL     1      -8.510   6.639  67.589  1.00  0.00    -0.121 A  
HETATM   24  N   UNL     1      -9.344   7.639  68.001  1.00  0.00    -0.140 N  
HETATM   25  C   UNL     1      -9.932   8.640  67.264  1.00  0.00    -0.219 C  
HETATM   26  O   UNL     1      -9.811   8.871  66.067  1.00  0.00    -0.272 OA 
ENDBRANCH  16  17
ENDBRANCH  15  16
ENDBRANCH  14  15
ENDBRANCH  11  14
ENDBRANCH   6   8
TORSDOF 5
ENDMDL
MODEL       87
REMARK 921   NORMALIZED FREE ENERGY PREDICTED BY IDOCK:   -5.39 KCAL/MOL
REMARK 922        TOTAL FREE ENERGY PREDICTED BY IDOCK:   -7.61 KCAL/MOL
REMARK 923 INTER-LIGAND FREE ENERGY PREDICTED BY IDOCK:   -6.28 KCAL/MOL
REMARK 924 INTRA-LIGAND FREE ENERGY PREDICTED BY IDOCK:   -1.32 KCAL/MOL
REMARK 927      BINDING AFFINITY PREDICTED BY RF-SCORE:    0.00 PKD
ROOT
HETATM    1 CL   UNL     1     -11.167  13.150  68.902  1.00  0.00    -0.305 Cl 
HETATM    2  C   UNL     1     -11.850  12.082  70.068  1.00  0.00    -0.314 A  
HETATM    3  C   UNL     1     -12.777  12.564  70.982  1.00  0.00    -0.316 A  
HETATM    4  C   UNL     1     -13.318  11.695  71.923  1.00  0.00    -0.403 A  
HETATM    5  C   UNL     1     -12.912  10.356  71.951  1.00  0.00    -0.555 A  
HETATM    6  C   UNL     1     -11.957   9.851  71.054  1.00  0.00    -0.365 A  
HETATM    7  C   UNL     1     -11.450  10.743  70.097  1.00  0.00    -0.415 A  
ENDROOT
BRANCH   6   8
HETATM    8  N   UNL     1     -11.485   8.557  71.181  1.00  0.00    -0.269 NA 
HETATM    9  C   UNL     1     -10.068   8.244  70.939  1.00  0.00    -0.190 C  
HETATM   10  C   UNL     1      -9.618   7.108  71.885  1.00  0.00    -0.149 C  
HETATM   11  N   UNL     1     -10.444   5.876  71.823  1.00  0.00    -0.219 NA 
HETATM   12  C   UNL     1     -12.397   7.401  71.163  1.00  0.00    -0.314 C  
HETATM   13  C   UNL     1     -11.853   6.276  72.081  1.00  0.00    -0.315 C  
BRANCH  11  14
HETATM   14  C   UNL     1     -10.330   5.170  70.536  1.00  0.00    -0.243 C  
BRANCH  14  15
HETATM   15  C   UNL     1      -8.887   4.806  70.178  1.00  0.00    -0.130 C  
BRANCH  15  16
HETATM   16  C   UNL     1      -8.701   4.743  68.665  1.00  0.00    -0.097 C  
BRANCH  16  17
HETATM   17  N   UNL     1      -8.732   6.063  68.082  1.00  0.00    -0.114 N  
HETATM   18  N   UNL     1      -7.774   7.019  68.360  1.00  0.00    -0.117 NA 
HETATM   19  C   UNL     1      -8.248   8.090  67.801  1.00  0.00    -0.129 A  
HETATM   20  C   UNL     1      -7.629   9.433  67.765  1.00  0.00    -0.088 A  
HETATM   21  C   UNL     1      -8.299  10.413  67.133  1.00  0.00    -0.126 A  
HETATM   22  C   UNL     1      -9.591  10.169  66.516  1.00  0.00    -0.236 A  
HETATM   23  C   UNL     1     -10.136   8.943  66.564  1.00  0.00    -0.286 A  
HETATM   24  N   UNL     1      -9.453   7.940  67.192  1.00  0.00    -0.150 N  
HETATM   25  C   UNL     1      -9.814   6.628  67.382  1.00  0.00    -0.131 C  
HETATM   26  O   UNL     1     -10.855   6.072  67.051  1.00  0.00    -0.308 OA 
ENDBRANCH  16  17
ENDBRANCH  15  16
ENDBRANCH  14  15
ENDBRANCH  11  14
ENDBRANCH   6   8
TORSDOF 5
ENDMDL
MODEL       88
REMARK 921   NORMALIZED FREE ENERGY PREDICTED BY IDOCK:   -5.39 KCAL/MOL
REMARK 922        TOTAL FREE ENERGY PREDICTED BY IDOCK:   -7.60 KCAL/MOL
REMARK 923 INTER-LIGAND FREE ENERGY PREDICTED BY IDOCK:   -6.90 KCAL/MOL
REMARK 924 INTRA-LIGAND FREE ENERGY PREDICTED BY IDOCK:   -0.70 KCAL/MOL
REMARK 927      BINDING AFFINITY PREDICTED BY RF-SCORE:    0.00 PKD
ROOT
HETATM    1 CL   UNL     1     -11.490  14.244  65.083  1.00  0.00    -0.337 Cl 
HETATM    2  C   UNL     1     -11.609  14.205  66.801  1.00  0.00    -0.391 A  
HETATM    3  C   UNL     1     -11.631  15.396  67.515  1.00  0.00    -0.176 A  
HETATM    4  C   UNL     1     -11.721  15.353  68.902  1.00  0.00    -0.377 A  
HETATM    5  C   UNL     1     -11.770  14.119  69.561  1.00  0.00    -0.364 A  
HETATM    6  C   UNL     1     -11.723  12.903  68.862  1.00  0.00    -0.327 A  
HETATM    7  C   UNL     1     -11.661  12.975  67.462  1.00  0.00    -0.421 A  
ENDROOT
BRANCH   6   8
HETATM    8  N   UNL     1     -11.650  11.700  69.543  1.00  0.00    -0.305 NA 
HETATM    9  C   UNL     1     -12.397  11.494  70.792  1.00  0.00    -0.375 C  
HETATM   10  C   UNL     1     -12.855  10.020  70.887  1.00  0.00    -0.324 C  
HETATM   11  N   UNL     1     -11.769   9.017  70.756  1.00  0.00    -0.270 NA 
HETATM   12  C   UNL     1     -10.557  10.744  69.298  1.00  0.00    -0.229 C  
HETATM   13  C   UNL     1     -11.068   9.291  69.472  1.00  0.00    -0.080 C  
BRANCH  11  14
HETATM   14  C   UNL     1     -10.821   9.042  71.882  1.00  0.00    -0.343 C  
BRANCH  14  15
HETATM   15  C   UNL     1     -10.891   7.785  72.752  1.00  0.00    -0.438 C  
BRANCH  15  16
HETATM   16  C   UNL     1     -11.718   6.698  72.072  1.00  0.00    -0.313 C  
BRANCH  16  17
HETATM   17  N   UNL     1     -10.870   5.673  71.513  1.00  0.00    -0.250 N  
HETATM   18  N   UNL     1     -10.576   5.606  70.164  1.00  0.00    -0.296 NA 
HETATM   19  C   UNL     1      -9.955   4.473  70.047  1.00  0.00    -0.210 A  
HETATM   20  C   UNL     1      -9.390   3.882  68.816  1.00  0.00    -0.231 A  
HETATM   21  C   UNL     1      -8.789   2.683  68.917  1.00  0.00    -0.151 A  
HETATM   22  C   UNL     1      -8.705   1.984  70.187  1.00  0.00    -0.110 A  
HETATM   23  C   UNL     1      -9.228   2.538  71.293  1.00  0.00    -0.121 A  
HETATM   24  N   UNL     1      -9.827   3.762  71.198  1.00  0.00    -0.172 N  
HETATM   25  C   UNL     1     -10.442   4.508  72.176  1.00  0.00    -0.122 C  
HETATM   26  O   UNL     1     -10.614   4.219  73.354  1.00  0.00    -0.170 OA 
ENDBRANCH  16  17
ENDBRANCH  15  16
ENDBRANCH  14  15
ENDBRANCH  11  14
ENDBRANCH   6   8
TORSDOF 5
ENDMDL
MODEL       89
REMARK 921   NORMALIZED FREE ENERGY PREDICTED BY IDOCK:   -5.39 KCAL/MOL
REMARK 922        TOTAL FREE ENERGY PREDICTED BY IDOCK:   -7.60 KCAL/MOL
REMARK 923 INTER-LIGAND FREE ENERGY PREDICTED BY IDOCK:   -6.68 KCAL/MOL
REMARK 924 INTRA-LIGAND FREE ENERGY PREDICTED BY IDOCK:   -0.92 KCAL/MOL
REMARK 927      BINDING AFFINITY PREDICTED BY RF-SCORE:    0.00 PKD
ROOT
HETATM    1 CL   UNL     1     -11.731  15.602  69.063  1.00  0.00    -0.394 Cl 
HETATM    2  C   UNL     1     -12.481  14.636  70.277  1.00  0.00    -0.346 A  
HETATM    3  C   UNL     1     -13.249  15.244  71.262  1.00  0.00    -0.563 A  
HETATM    4  C   UNL     1     -13.844  14.456  72.241  1.00  0.00    -0.589 A  
HETATM    5  C   UNL     1     -13.650  13.070  72.234  1.00  0.00    -0.643 A  
HETATM    6  C   UNL     1     -12.858  12.436  71.265  1.00  0.00    -0.240 A  
HETATM    7  C   UNL     1     -12.293  13.252  70.273  1.00  0.00    -0.334 A  
ENDROOT
BRANCH   6   8
HETATM    8  N   UNL     1     -12.584  11.083  71.352  1.00  0.00    -0.399 NA 
HETATM    9  C   UNL     1     -13.358  10.212  72.249  1.00  0.00    -0.238 C  
HETATM   10  C   UNL     1     -13.503   8.810  71.615  1.00  0.00    -0.369 C  
HETATM   11  N   UNL     1     -12.224   8.160  71.232  1.00  0.00    -0.297 NA 
HETATM   12  C   UNL     1     -11.300  10.528  70.890  1.00  0.00    -0.115 C  
HETATM   13  C   UNL     1     -11.507   9.098  70.327  1.00  0.00    -0.146 C  
BRANCH  11  14
HETATM   14  C   UNL     1     -11.386   7.809  72.390  1.00  0.00    -0.346 C  
BRANCH  14  15
HETATM   15  C   UNL     1     -10.396   6.681  72.093  1.00  0.00    -0.222 C  
BRANCH  15  16
HETATM   16  C   UNL     1      -8.973   7.096  72.453  1.00  0.00    -0.127 C  
BRANCH  16  17
HETATM   17  N   UNL     1      -8.330   7.762  71.346  1.00  0.00    -0.108 N  
HETATM   18  N   UNL     1      -8.024   9.109  71.367  1.00  0.00    -0.338 NA 
HETATM   19  C   UNL     1      -7.636   9.349  70.152  1.00  0.00    -0.130 A  
HETATM   20  C   UNL     1      -7.169  10.636  69.596  1.00  0.00    -0.139 A  
HETATM   21  C   UNL     1      -6.818  10.666  68.298  1.00  0.00    -0.068 A  
HETATM   22  C   UNL     1      -6.902   9.479  67.465  1.00  0.00    -0.083 A  
HETATM   23  C   UNL     1      -7.332   8.321  67.990  1.00  0.00    -0.096 A  
HETATM   24  N   UNL     1      -7.676   8.282  69.312  1.00  0.00    -0.101 N  
HETATM   25  C   UNL     1      -8.156   7.230  70.055  1.00  0.00    -0.130 C  
HETATM   26  O   UNL     1      -8.409   6.091  69.682  1.00  0.00    -0.115 OA 
ENDBRANCH  16  17
ENDBRANCH  15  16
ENDBRANCH  14  15
ENDBRANCH  11  14
ENDBRANCH   6   8
TORSDOF 5
ENDMDL
MODEL       90
REMARK 921   NORMALIZED FREE ENERGY PREDICTED BY IDOCK:   -5.37 KCAL/MOL
REMARK 922        TOTAL FREE ENERGY PREDICTED BY IDOCK:   -7.57 KCAL/MOL
REMARK 923 INTER-LIGAND FREE ENERGY PREDICTED BY IDOCK:   -6.19 KCAL/MOL
REMARK 924 INTRA-LIGAND FREE ENERGY PREDICTED BY IDOCK:   -1.38 KCAL/MOL
REMARK 927      BINDING AFFINITY PREDICTED BY RF-SCORE:    0.00 PKD
ROOT
HETATM    1 CL   UNL     1     -11.605  12.499  63.460  1.00  0.00    -0.561 Cl 
HETATM    2  C   UNL     1     -10.296  11.397  63.661  1.00  0.00    -0.410 A  
HETATM    3  C   UNL     1      -9.313  11.311  62.684  1.00  0.00    -0.313 A  
HETATM    4  C   UNL     1      -8.264  10.414  62.853  1.00  0.00    -0.162 A  
HETATM    5  C   UNL     1      -8.219   9.599  63.989  1.00  0.00    -0.159 A  
HETATM    6  C   UNL     1      -9.214   9.649  64.978  1.00  0.00    -0.250 A  
HETATM    7  C   UNL     1     -10.245  10.583  64.796  1.00  0.00    -0.373 A  
ENDROOT
BRANCH   6   8
HETATM    8  N   UNL     1      -9.211   8.749  66.029  1.00  0.00    -0.208 NA 
HETATM    9  C   UNL     1     -10.406   8.560  66.865  1.00  0.00    -0.297 C  
HETATM   10  C   UNL     1     -10.495   7.084  67.317  1.00  0.00    -0.293 C  
HETATM   11  N   UNL     1      -9.288   6.567  68.008  1.00  0.00    -0.111 NA 
HETATM   12  C   UNL     1      -7.953   8.251  66.609  1.00  0.00    -0.098 C  
HETATM   13  C   UNL     1      -8.131   6.791  67.101  1.00  0.00    -0.117 C  
BRANCH  11  14
HETATM   14  C   UNL     1      -9.056   7.201  69.316  1.00  0.00    -0.137 C  
BRANCH  14  15
HETATM   15  C   UNL     1     -10.338   7.728  69.963  1.00  0.00    -0.221 C  
BRANCH  15  16
HETATM   16  C   UNL     1     -10.059   8.987  70.779  1.00  0.00    -0.241 C  
BRANCH  16  17
HETATM   17  N   UNL     1     -10.081  10.163  69.944  1.00  0.00    -0.242 N  
HETATM   18  N   UNL     1     -11.258  10.726  69.487  1.00  0.00    -0.259 NA 
HETATM   19  C   UNL     1     -10.854  11.627  68.646  1.00  0.00    -0.213 A  
HETATM   20  C   UNL     1     -11.688  12.559  67.858  1.00  0.00    -0.416 A  
HETATM   21  C   UNL     1     -11.060  13.415  67.033  1.00  0.00    -0.310 A  
HETATM   22  C   UNL     1      -9.613  13.422  66.909  1.00  0.00    -0.257 A  
HETATM   23  C   UNL     1      -8.875  12.565  67.632  1.00  0.00    -0.179 A  
HETATM   24  N   UNL     1      -9.507  11.703  68.482  1.00  0.00    -0.193 N  
HETATM   25  C   UNL     1      -8.970  10.735  69.298  1.00  0.00    -0.030 C  
HETATM   26  O   UNL     1      -7.795  10.412  69.419  1.00  0.00    -0.139 OA 
ENDBRANCH  16  17
ENDBRANCH  15  16
ENDBRANCH  14  15
ENDBRANCH  11  14
ENDBRANCH   6   8
TORSDOF 5
ENDMDL
MODEL       91
REMARK 921   NORMALIZED FREE ENERGY PREDICTED BY IDOCK:   -5.27 KCAL/MOL
REMARK 922        TOTAL FREE ENERGY PREDICTED BY IDOCK:   -7.45 KCAL/MOL
REMARK 923 INTER-LIGAND FREE ENERGY PREDICTED BY IDOCK:   -6.88 KCAL/MOL
REMARK 924 INTRA-LIGAND FREE ENERGY PREDICTED BY IDOCK:   -0.57 KCAL/MOL
REMARK 927      BINDING AFFINITY PREDICTED BY RF-SCORE:    0.00 PKD
ROOT
HETATM    1 CL   UNL     1      -7.442   5.807  62.762  1.00  0.00    -0.054 Cl 
HETATM    2  C   UNL     1      -7.906   6.422  64.303  1.00  0.00    -0.114 A  
HETATM    3  C   UNL     1      -7.811   5.609  65.425  1.00  0.00    -0.102 A  
HETATM    4  C   UNL     1      -8.194   6.113  66.663  1.00  0.00    -0.110 A  
HETATM    5  C   UNL     1      -8.684   7.420  66.762  1.00  0.00    -0.136 A  
HETATM    6  C   UNL     1      -8.814   8.252  65.639  1.00  0.00    -0.132 A  
HETATM    7  C   UNL     1      -8.393   7.727  64.408  1.00  0.00     0.028 A  
ENDROOT
BRANCH   6   8
HETATM    8  N   UNL     1      -9.414   9.494  65.746  1.00  0.00    -0.231 NA 
HETATM    9  C   UNL     1      -9.567  10.362  64.569  1.00  0.00    -0.309 C  
HETATM   10  C   UNL     1     -10.880  11.169  64.685  1.00  0.00    -0.225 C  
HETATM   11  N   UNL     1     -11.024  11.955  65.936  1.00  0.00    -0.298 NA 
HETATM   12  C   UNL     1      -9.559  10.167  67.047  1.00  0.00    -0.171 C  
HETATM   13  C   UNL     1     -10.861  11.009  67.072  1.00  0.00    -0.279 C  
BRANCH  11  14
HETATM   14  C   UNL     1     -10.058  13.061  66.036  1.00  0.00    -0.284 C  
BRANCH  14  15
HETATM   15  C   UNL     1     -10.201  13.866  67.330  1.00  0.00    -0.249 C  
BRANCH  15  16
HETATM   16  C   UNL     1     -11.317  14.899  67.208  1.00  0.00    -0.349 C  
BRANCH  16  17
HETATM   17  N   UNL     1     -10.793  16.241  67.270  1.00  0.00    -0.267 N  
HETATM   18  N   UNL     1     -10.680  16.939  68.458  1.00  0.00    -0.357 NA 
HETATM   19  C   UNL     1     -10.348  18.133  68.075  1.00  0.00    -0.391 A  
HETATM   20  C   UNL     1     -10.076  19.308  68.931  1.00  0.00    -0.434 A  
HETATM   21  C   UNL     1      -9.753  20.463  68.323  1.00  0.00    -0.205 A  
HETATM   22  C   UNL     1      -9.682  20.561  66.876  1.00  0.00    -0.516 A  
HETATM   23  C   UNL     1      -9.936  19.483  66.117  1.00  0.00    -0.444 A  
HETATM   24  N   UNL     1     -10.250  18.303  66.731  1.00  0.00    -0.359 N  
HETATM   25  C   UNL     1     -10.565  17.088  66.170  1.00  0.00    -0.194 C  
HETATM   26  O   UNL     1     -10.660  16.803  64.983  1.00  0.00    -0.695 OA 
ENDBRANCH  16  17
ENDBRANCH  15  16
ENDBRANCH  14  15
ENDBRANCH  11  14
ENDBRANCH   6   8
TORSDOF 5
ENDMDL
MODEL       92
REMARK 921   NORMALIZED FREE ENERGY PREDICTED BY IDOCK:   -5.27 KCAL/MOL
REMARK 922        TOTAL FREE ENERGY PREDICTED BY IDOCK:   -7.45 KCAL/MOL
REMARK 923 INTER-LIGAND FREE ENERGY PREDICTED BY IDOCK:   -6.76 KCAL/MOL
REMARK 924 INTRA-LIGAND FREE ENERGY PREDICTED BY IDOCK:   -0.69 KCAL/MOL
REMARK 927      BINDING AFFINITY PREDICTED BY RF-SCORE:    0.00 PKD
ROOT
HETATM    1 CL   UNL     1     -12.638  13.604  65.788  1.00  0.00    -0.521 Cl 
HETATM    2  C   UNL     1     -11.537  12.511  65.041  1.00  0.00    -0.349 A  
HETATM    3  C   UNL     1     -11.255  12.637  63.687  1.00  0.00    -0.525 A  
HETATM    4  C   UNL     1     -10.369  11.746  63.092  1.00  0.00    -0.364 A  
HETATM    5  C   UNL     1      -9.789  10.726  63.854  1.00  0.00    -0.389 A  
HETATM    6  C   UNL     1     -10.078  10.562  65.218  1.00  0.00    -0.300 A  
HETATM    7  C   UNL     1     -10.953  11.493  65.799  1.00  0.00    -0.305 A  
ENDROOT
BRANCH   6   8
HETATM    8  N   UNL     1      -9.586   9.475  65.918  1.00  0.00    -0.242 NA 
HETATM    9  C   UNL     1      -8.540   8.616  65.342  1.00  0.00    -0.181 C  
HETATM   10  C   UNL     1      -7.613   8.102  66.467  1.00  0.00    -0.092 C  
HETATM   11  N   UNL     1      -8.304   7.406  67.581  1.00  0.00    -0.117 NA 
HETATM   12  C   UNL     1     -10.327   8.892  67.050  1.00  0.00    -0.269 C  
HETATM   13  C   UNL     1      -9.338   8.338  68.108  1.00  0.00    -0.133 C  
BRANCH  11  14
HETATM   14  C   UNL     1      -8.913   6.129  67.175  1.00  0.00    -0.111 C  
BRANCH  14  15
HETATM   15  C   UNL     1      -8.251   4.915  67.830  1.00  0.00    -0.100 C  
BRANCH  15  16
HETATM   16  C   UNL     1      -9.270   4.103  68.625  1.00  0.00    -0.145 C  
BRANCH  16  17
HETATM   17  N   UNL     1      -9.827   4.882  69.704  1.00  0.00    -0.200 N  
HETATM   18  N   UNL     1     -10.995   5.608  69.569  1.00  0.00    -0.294 NA 
HETATM   19  C   UNL     1     -11.054   6.292  70.670  1.00  0.00    -0.327 A  
HETATM   20  C   UNL     1     -12.111   7.240  71.083  1.00  0.00    -0.376 A  
HETATM   21  C   UNL     1     -11.971   7.852  72.273  1.00  0.00    -0.387 A  
HETATM   22  C   UNL     1     -10.819   7.601  73.121  1.00  0.00    -0.440 A  
HETATM   23  C   UNL     1      -9.870   6.738  72.725  1.00  0.00    -0.166 A  
HETATM   24  N   UNL     1     -10.014   6.103  71.524  1.00  0.00    -0.181 N  
HETATM   25  C   UNL     1      -9.175   5.206  70.908  1.00  0.00    -0.146 C  
HETATM   26  O   UNL     1      -8.086   4.797  71.294  1.00  0.00    -0.096 OA 
ENDBRANCH  16  17
ENDBRANCH  15  16
ENDBRANCH  14  15
ENDBRANCH  11  14
ENDBRANCH   6   8
TORSDOF 5
ENDMDL
MODEL       93
REMARK 921   NORMALIZED FREE ENERGY PREDICTED BY IDOCK:   -5.27 KCAL/MOL
REMARK 922        TOTAL FREE ENERGY PREDICTED BY IDOCK:   -7.44 KCAL/MOL
REMARK 923 INTER-LIGAND FREE ENERGY PREDICTED BY IDOCK:   -6.76 KCAL/MOL
REMARK 924 INTRA-LIGAND FREE ENERGY PREDICTED BY IDOCK:   -0.68 KCAL/MOL
REMARK 927      BINDING AFFINITY PREDICTED BY RF-SCORE:    0.00 PKD
ROOT
HETATM    1 CL   UNL     1     -11.017  16.487  64.678  1.00  0.00    -0.280 Cl 
HETATM    2  C   UNL     1     -11.352  14.807  64.858  1.00  0.00    -0.410 A  
HETATM    3  C   UNL     1     -11.693  14.051  63.743  1.00  0.00    -0.062 A  
HETATM    4  C   UNL     1     -11.968  12.697  63.900  1.00  0.00    -0.558 A  
HETATM    5  C   UNL     1     -11.915  12.117  65.172  1.00  0.00    -0.324 A  
HETATM    6  C   UNL     1     -11.598  12.865  66.317  1.00  0.00    -0.372 A  
HETATM    7  C   UNL     1     -11.298  14.223  66.126  1.00  0.00    -0.342 A  
ENDROOT
BRANCH   6   8
HETATM    8  N   UNL     1     -11.672  12.296  67.575  1.00  0.00    -0.459 NA 
HETATM    9  C   UNL     1     -11.532  10.843  67.756  1.00  0.00    -0.243 C  
HETATM   10  C   UNL     1     -10.823  10.553  69.099  1.00  0.00    -0.237 C  
HETATM   11  N   UNL     1     -11.459  11.168  70.290  1.00  0.00    -0.279 NA 
HETATM   12  C   UNL     1     -12.275  13.016  68.710  1.00  0.00    -0.011 C  
HETATM   13  C   UNL     1     -11.559  12.630  70.030  1.00  0.00    -0.123 C  
BRANCH  11  14
HETATM   14  C   UNL     1     -12.782  10.601  70.595  1.00  0.00    -0.359 C  
BRANCH  14  15
HETATM   15  C   UNL     1     -13.109  10.614  72.090  1.00  0.00    -0.382 C  
BRANCH  15  16
HETATM   16  C   UNL     1     -13.471   9.215  72.580  1.00  0.00    -0.331 C  
BRANCH  16  17
HETATM   17  N   UNL     1     -12.379   8.294  72.376  1.00  0.00    -0.350 N  
HETATM   18  N   UNL     1     -11.090   8.567  72.795  1.00  0.00    -0.147 NA 
HETATM   19  C   UNL     1     -10.395   7.602  72.277  1.00  0.00    -0.224 A  
HETATM   20  C   UNL     1      -8.940   7.373  72.408  1.00  0.00    -0.161 A  
HETATM   21  C   UNL     1      -8.417   6.306  71.778  1.00  0.00    -0.129 A  
HETATM   22  C   UNL     1      -9.245   5.415  70.985  1.00  0.00    -0.179 A  
HETATM   23  C   UNL     1     -10.563   5.644  70.877  1.00  0.00    -0.258 A  
HETATM   24  N   UNL     1     -11.102   6.717  71.527  1.00  0.00    -0.243 N  
HETATM   25  C   UNL     1     -12.404   7.158  71.547  1.00  0.00    -0.370 C  
HETATM   26  O   UNL     1     -13.371   6.694  70.954  1.00  0.00     0.071 OA 
ENDBRANCH  16  17
ENDBRANCH  15  16
ENDBRANCH  14  15
ENDBRANCH  11  14
ENDBRANCH   6   8
TORSDOF 5
ENDMDL
MODEL       94
REMARK 921   NORMALIZED FREE ENERGY PREDICTED BY IDOCK:   -5.26 KCAL/MOL
REMARK 922        TOTAL FREE ENERGY PREDICTED BY IDOCK:   -7.43 KCAL/MOL
REMARK 923 INTER-LIGAND FREE ENERGY PREDICTED BY IDOCK:   -6.97 KCAL/MOL
REMARK 924 INTRA-LIGAND FREE ENERGY PREDICTED BY IDOCK:   -0.46 KCAL/MOL
REMARK 927      BINDING AFFINITY PREDICTED BY RF-SCORE:    0.00 PKD
ROOT
HETATM    1 CL   UNL     1     -12.111   7.036  71.669  1.00  0.00    -0.362 Cl 
HETATM    2  C   UNL     1     -11.450   7.214  70.088  1.00  0.00    -0.205 A  
HETATM    3  C   UNL     1     -11.278   6.094  69.285  1.00  0.00    -0.438 A  
HETATM    4  C   UNL     1     -10.738   6.248  68.013  1.00  0.00    -0.369 A  
HETATM    5  C   UNL     1     -10.359   7.518  67.565  1.00  0.00    -0.321 A  
HETATM    6  C   UNL     1     -10.498   8.660  68.368  1.00  0.00    -0.176 A  
HETATM    7  C   UNL     1     -11.072   8.480  69.636  1.00  0.00    -0.018 A  
ENDROOT
BRANCH   6   8
HETATM    8  N   UNL     1     -10.004   9.883  67.949  1.00  0.00    -0.154 NA 
HETATM    9  C   UNL     1      -9.173  10.707  68.839  1.00  0.00    -0.183 C  
HETATM   10  C   UNL     1      -8.117  11.469  68.007  1.00  0.00    -0.136 C  
HETATM   11  N   UNL     1      -8.666  12.289  66.898  1.00  0.00    -0.201 NA 
HETATM   12  C   UNL     1     -10.586  10.592  66.797  1.00  0.00    -0.222 C  
HETATM   13  C   UNL     1      -9.486  11.387  66.046  1.00  0.00    -0.223 C  
BRANCH  11  14
HETATM   14  C   UNL     1      -9.466  13.432  67.367  1.00  0.00    -0.222 C  
BRANCH  14  15
HETATM   15  C   UNL     1      -9.449  14.615  66.396  1.00  0.00    -0.325 C  
BRANCH  15  16
HETATM   16  C   UNL     1     -10.212  15.803  66.972  1.00  0.00    -0.280 C  
BRANCH  16  17
HETATM   17  N   UNL     1      -9.464  17.027  66.816  1.00  0.00    -0.248 N  
HETATM   18  N   UNL     1      -8.416  17.146  65.922  1.00  0.00    -0.533 NA 
HETATM   19  C   UNL     1      -7.908  18.305  66.209  1.00  0.00    -0.245 A  
HETATM   20  C   UNL     1      -6.760  18.969  65.555  1.00  0.00    -0.295 A  
HETATM   21  C   UNL     1      -6.389  20.176  66.018  1.00  0.00    -0.226 A  
HETATM   22  C   UNL     1      -7.082  20.806  67.127  1.00  0.00    -0.404 A  
HETATM   23  C   UNL     1      -8.121  20.184  67.709  1.00  0.00    -0.261 A  
HETATM   24  N   UNL     1      -8.510  18.964  67.233  1.00  0.00    -0.274 N  
HETATM   25  C   UNL     1      -9.518  18.140  67.674  1.00  0.00    -0.264 C  
HETATM   26  O   UNL     1     -10.278  18.310  68.620  1.00  0.00    -0.380 OA 
ENDBRANCH  16  17
ENDBRANCH  15  16
ENDBRANCH  14  15
ENDBRANCH  11  14
ENDBRANCH   6   8
TORSDOF 5
ENDMDL
MODEL       95
REMARK 921   NORMALIZED FREE ENERGY PREDICTED BY IDOCK:   -5.25 KCAL/MOL
REMARK 922        TOTAL FREE ENERGY PREDICTED BY IDOCK:   -7.42 KCAL/MOL
REMARK 923 INTER-LIGAND FREE ENERGY PREDICTED BY IDOCK:   -6.70 KCAL/MOL
REMARK 924 INTRA-LIGAND FREE ENERGY PREDICTED BY IDOCK:   -0.71 KCAL/MOL
REMARK 927      BINDING AFFINITY PREDICTED BY RF-SCORE:    0.00 PKD
ROOT
HETATM    1 CL   UNL     1      -9.897  17.564  66.242  1.00  0.00    -0.305 Cl 
HETATM    2  C   UNL     1     -10.629  16.063  65.820  1.00  0.00    -0.353 A  
HETATM    3  C   UNL     1     -11.326  15.950  64.624  1.00  0.00    -0.328 A  
HETATM    4  C   UNL     1     -11.918  14.736  64.295  1.00  0.00    -0.387 A  
HETATM    5  C   UNL     1     -11.823  13.653  65.176  1.00  0.00    -0.364 A  
HETATM    6  C   UNL     1     -11.147  13.750  66.402  1.00  0.00    -0.308 A  
HETATM    7  C   UNL     1     -10.534  14.977  66.694  1.00  0.00    -0.284 A  
ENDROOT
BRANCH   6   8
HETATM    8  N   UNL     1     -11.171  12.703  67.306  1.00  0.00    -0.282 NA 
HETATM    9  C   UNL     1     -11.516  12.932  68.717  1.00  0.00    -0.303 C  
HETATM   10  C   UNL     1     -12.277  11.706  69.272  1.00  0.00    -0.164 C  
HETATM   11  N   UNL     1     -11.577  10.408  69.110  1.00  0.00    -0.205 NA 
HETATM   12  C   UNL     1     -10.488  11.429  67.025  1.00  0.00    -0.236 C  
HETATM   13  C   UNL     1     -11.268  10.251  67.663  1.00  0.00    -0.158 C  
BRANCH  11  14
HETATM   14  C   UNL     1     -10.351  10.309  69.919  1.00  0.00    -0.233 C  
BRANCH  14  15
HETATM   15  C   UNL     1     -10.525   9.442  71.167  1.00  0.00    -0.392 C  
BRANCH  15  16
HETATM   16  C   UNL     1     -11.520   8.314  70.913  1.00  0.00    -0.274 C  
BRANCH  16  17
HETATM   17  N   UNL     1     -10.860   7.152  70.368  1.00  0.00    -0.239 N  
HETATM   18  N   UNL     1     -10.845   6.875  69.014  1.00  0.00    -0.226 NA 
HETATM   19  C   UNL     1     -10.326   5.687  68.957  1.00  0.00    -0.243 A  
HETATM   20  C   UNL     1     -10.051   4.885  67.746  1.00  0.00    -0.158 A  
HETATM   21  C   UNL     1      -9.512   3.664  67.914  1.00  0.00    -0.224 A  
HETATM   22  C   UNL     1      -9.217   3.144  69.237  1.00  0.00    -0.218 A  
HETATM   23  C   UNL     1      -9.478   3.888  70.324  1.00  0.00    -0.185 A  
HETATM   24  N   UNL     1     -10.012   5.134  70.157  1.00  0.00    -0.231 N  
HETATM   25  C   UNL     1     -10.377   6.058  71.108  1.00  0.00    -0.214 C  
HETATM   26  O   UNL     1     -10.328   5.951  72.328  1.00  0.00    -0.190 OA 
ENDBRANCH  16  17
ENDBRANCH  15  16
ENDBRANCH  14  15
ENDBRANCH  11  14
ENDBRANCH   6   8
TORSDOF 5
ENDMDL
MODEL       96
REMARK 921   NORMALIZED FREE ENERGY PREDICTED BY IDOCK:   -5.22 KCAL/MOL
REMARK 922        TOTAL FREE ENERGY PREDICTED BY IDOCK:   -7.38 KCAL/MOL
REMARK 923 INTER-LIGAND FREE ENERGY PREDICTED BY IDOCK:   -6.95 KCAL/MOL
REMARK 924 INTRA-LIGAND FREE ENERGY PREDICTED BY IDOCK:   -0.44 KCAL/MOL
REMARK 927      BINDING AFFINITY PREDICTED BY RF-SCORE:    0.00 PKD
ROOT
HETATM    1 CL   UNL     1     -10.607  20.242  65.213  1.00  0.00    -0.158 Cl 
HETATM    2  C   UNL     1     -10.238  19.296  66.603  1.00  0.00    -0.421 A  
HETATM    3  C   UNL     1      -9.403  19.813  67.585  1.00  0.00    -0.445 A  
HETATM    4  C   UNL     1      -9.106  19.039  68.701  1.00  0.00    -0.401 A  
HETATM    5  C   UNL     1      -9.632  17.747  68.814  1.00  0.00    -0.290 A  
HETATM    6  C   UNL     1     -10.457  17.193  67.823  1.00  0.00    -0.362 A  
HETATM    7  C   UNL     1     -10.763  18.007  66.722  1.00  0.00    -0.185 A  
ENDROOT
BRANCH   6   8
HETATM    8  N   UNL     1     -10.864  15.873  67.901  1.00  0.00    -0.318 NA 
HETATM    9  C   UNL     1     -10.849  15.153  69.183  1.00  0.00    -0.251 C  
HETATM   10  C   UNL     1     -12.028  14.153  69.231  1.00  0.00    -0.340 C  
HETATM   11  N   UNL     1     -12.087  13.198  68.096  1.00  0.00    -0.269 NA 
HETATM   12  C   UNL     1     -10.943  15.021  66.702  1.00  0.00    -0.325 C  
HETATM   13  C   UNL     1     -12.103  14.002  66.844  1.00  0.00    -0.430 C  
BRANCH  11  14
HETATM   14  C   UNL     1     -10.968  12.242  68.088  1.00  0.00    -0.231 C  
BRANCH  14  15
HETATM   15  C   UNL     1     -11.241  10.992  68.927  1.00  0.00    -0.326 C  
BRANCH  15  16
HETATM   16  C   UNL     1      -9.940  10.278  69.279  1.00  0.00    -0.227 C  
BRANCH  16  17
HETATM   17  N   UNL     1     -10.090   8.846  69.182  1.00  0.00    -0.191 N  
HETATM   18  N   UNL     1      -9.895   8.005  70.261  1.00  0.00    -0.183 NA 
HETATM   19  C   UNL     1      -9.945   6.821  69.733  1.00  0.00    -0.177 A  
HETATM   20  C   UNL     1      -9.813   5.522  70.426  1.00  0.00    -0.259 A  
HETATM   21  C   UNL     1      -9.889   4.405  69.680  1.00  0.00    -0.272 A  
HETATM   22  C   UNL     1     -10.083   4.468  68.242  1.00  0.00    -0.030 A  
HETATM   23  C   UNL     1     -10.197   5.659  67.633  1.00  0.00    -0.199 A  
HETATM   24  N   UNL     1     -10.135   6.796  68.388  1.00  0.00    -0.155 N  
HETATM   25  C   UNL     1     -10.206   8.109  67.989  1.00  0.00    -0.212 C  
HETATM   26  O   UNL     1     -10.312   8.552  66.852  1.00  0.00    -0.287 OA 
ENDBRANCH  16  17
ENDBRANCH  15  16
ENDBRANCH  14  15
ENDBRANCH  11  14
ENDBRANCH   6   8
TORSDOF 5
ENDMDL
MODEL       97
REMARK 921   NORMALIZED FREE ENERGY PREDICTED BY IDOCK:   -5.22 KCAL/MOL
REMARK 922        TOTAL FREE ENERGY PREDICTED BY IDOCK:   -7.38 KCAL/MOL
REMARK 923 INTER-LIGAND FREE ENERGY PREDICTED BY IDOCK:   -7.11 KCAL/MOL
REMARK 924 INTRA-LIGAND FREE ENERGY PREDICTED BY IDOCK:   -0.26 KCAL/MOL
REMARK 927      BINDING AFFINITY PREDICTED BY RF-SCORE:    0.00 PKD
ROOT
HETATM    1 CL   UNL     1     -11.400   2.706  73.640  1.00  0.00    -0.323 Cl 
HETATM    2  C   UNL     1     -10.775   4.275  73.302  1.00  0.00    -0.220 A  
HETATM    3  C   UNL     1     -10.470   5.134  74.351  1.00  0.00    -0.294 A  
HETATM    4  C   UNL     1      -9.971   6.400  74.068  1.00  0.00    -0.301 A  
HETATM    5  C   UNL     1      -9.801   6.802  72.738  1.00  0.00    -0.183 A  
HETATM    6  C   UNL     1     -10.127   5.963  71.662  1.00  0.00    -0.190 A  
HETATM    7  C   UNL     1     -10.600   4.680  71.977  1.00  0.00    -0.139 A  
ENDROOT
BRANCH   6   8
HETATM    8  N   UNL     1     -10.064   6.427  70.360  1.00  0.00    -0.183 NA 
HETATM    9  C   UNL     1      -9.068   7.434  69.965  1.00  0.00    -0.148 C  
HETATM   10  C   UNL     1      -8.616   7.175  68.509  1.00  0.00    -0.124 C  
HETATM   11  N   UNL     1      -9.715   7.110  67.514  1.00  0.00    -0.137 NA 
HETATM   12  C   UNL     1     -11.194   6.261  69.430  1.00  0.00    -0.420 C  
HETATM   13  C   UNL     1     -10.672   6.071  67.982  1.00  0.00    -0.282 C  
BRANCH  11  14
HETATM   14  C   UNL     1     -10.398   8.400  67.323  1.00  0.00    -0.299 C  
BRANCH  14  15
HETATM   15  C   UNL     1      -9.557   9.596  67.774  1.00  0.00    -0.161 C  
BRANCH  15  16
HETATM   16  C   UNL     1     -10.406  10.594  68.555  1.00  0.00    -0.183 C  
BRANCH  16  17
HETATM   17  N   UNL     1     -10.731  11.744  67.747  1.00  0.00    -0.198 N  
HETATM   18  N   UNL     1     -11.902  11.830  67.018  1.00  0.00    -0.607 NA 
HETATM   19  C   UNL     1     -11.736  12.903  66.307  1.00  0.00    -0.399 A  
HETATM   20  C   UNL     1     -12.686  13.498  65.343  1.00  0.00    -0.495 A  
HETATM   21  C   UNL     1     -12.307  14.619  64.703  1.00  0.00    -0.390 A  
HETATM   22  C   UNL     1     -11.007  15.221  64.939  1.00  0.00    -0.445 A  
HETATM   23  C   UNL     1     -10.158  14.662  65.816  1.00  0.00    -0.340 A  
HETATM   24  N   UNL     1     -10.544  13.532  66.480  1.00  0.00    -0.279 N  
HETATM   25  C   UNL     1      -9.848  12.781  67.397  1.00  0.00    -0.210 C  
HETATM   26  O   UNL     1      -8.703  12.948  67.802  1.00  0.00    -0.166 OA 
ENDBRANCH  16  17
ENDBRANCH  15  16
ENDBRANCH  14  15
ENDBRANCH  11  14
ENDBRANCH   6   8
TORSDOF 5
ENDMDL
MODEL       98
REMARK 921   NORMALIZED FREE ENERGY PREDICTED BY IDOCK:   -5.21 KCAL/MOL
REMARK 922        TOTAL FREE ENERGY PREDICTED BY IDOCK:   -7.37 KCAL/MOL
REMARK 923 INTER-LIGAND FREE ENERGY PREDICTED BY IDOCK:   -6.41 KCAL/MOL
REMARK 924 INTRA-LIGAND FREE ENERGY PREDICTED BY IDOCK:   -0.96 KCAL/MOL
REMARK 927      BINDING AFFINITY PREDICTED BY RF-SCORE:    0.00 PKD
ROOT
HETATM    1 CL   UNL     1     -12.675  15.474  70.495  1.00  0.00    -0.468 Cl 
HETATM    2  C   UNL     1     -12.252  14.012  69.689  1.00  0.00    -0.332 A  
HETATM    3  C   UNL     1     -12.001  14.028  68.323  1.00  0.00    -0.384 A  
HETATM    4  C   UNL     1     -11.666  12.841  67.680  1.00  0.00    -0.422 A  
HETATM    5  C   UNL     1     -11.603  11.647  68.408  1.00  0.00    -0.376 A  
HETATM    6  C   UNL     1     -11.878  11.601  69.784  1.00  0.00    -0.357 A  
HETATM    7  C   UNL     1     -12.185  12.818  70.412  1.00  0.00    -0.371 A  
ENDROOT
BRANCH   6   8
HETATM    8  N   UNL     1     -11.927  10.392  70.454  1.00  0.00    -0.297 NA 
HETATM    9  C   UNL     1     -12.745  10.233  71.666  1.00  0.00    -0.456 C  
HETATM   10  C   UNL     1     -13.316   8.798  71.723  1.00  0.00    -0.378 C  
HETATM   11  N   UNL     1     -12.304   7.717  71.631  1.00  0.00    -0.314 NA 
HETATM   12  C   UNL     1     -10.899   9.357  70.248  1.00  0.00    -0.258 C  
HETATM   13  C   UNL     1     -11.526   7.945  70.384  1.00  0.00    -0.145 C  
BRANCH  11  14
HETATM   14  C   UNL     1     -11.410   7.661  72.800  1.00  0.00    -0.367 C  
BRANCH  14  15
HETATM   15  C   UNL     1     -10.998   6.236  73.172  1.00  0.00    -0.251 C  
BRANCH  15  16
HETATM   16  C   UNL     1      -9.482   6.127  73.314  1.00  0.00    -0.142 C  
BRANCH  16  17
HETATM   17  N   UNL     1      -8.828   6.290  72.039  1.00  0.00    -0.138 N  
HETATM   18  N   UNL     1      -8.146   7.443  71.698  1.00  0.00    -0.098 NA 
HETATM   19  C   UNL     1      -7.869   7.268  70.442  1.00  0.00    -0.099 A  
HETATM   20  C   UNL     1      -7.129   8.185  69.550  1.00  0.00    -0.051 A  
HETATM   21  C   UNL     1      -6.959   7.809  68.269  1.00  0.00    -0.079 A  
HETATM   22  C   UNL     1      -7.491   6.552  67.774  1.00  0.00    -0.097 A  
HETATM   23  C   UNL     1      -8.163   5.736  68.601  1.00  0.00    -0.105 A  
HETATM   24  N   UNL     1      -8.326   6.107  69.906  1.00  0.00    -0.126 N  
HETATM   25  C   UNL     1      -8.986   5.453  70.920  1.00  0.00    -0.138 C  
HETATM   26  O   UNL     1      -9.604   4.397  70.865  1.00  0.00    -0.156 OA 
ENDBRANCH  16  17
ENDBRANCH  15  16
ENDBRANCH  14  15
ENDBRANCH  11  14
ENDBRANCH   6   8
TORSDOF 5
ENDMDL
MODEL       99
REMARK 921   NORMALIZED FREE ENERGY PREDICTED BY IDOCK:   -5.21 KCAL/MOL
REMARK 922        TOTAL FREE ENERGY PREDICTED BY IDOCK:   -7.37 KCAL/MOL
REMARK 923 INTER-LIGAND FREE ENERGY PREDICTED BY IDOCK:   -6.41 KCAL/MOL
REMARK 924 INTRA-LIGAND FREE ENERGY PREDICTED BY IDOCK:   -0.96 KCAL/MOL
REMARK 927      BINDING AFFINITY PREDICTED BY RF-SCORE:    0.00 PKD
ROOT
HETATM    1 CL   UNL     1      -9.291   5.180  73.714  1.00  0.00    -0.132 Cl 
HETATM    2  C   UNL     1      -9.937   6.436  72.728  1.00  0.00    -0.172 A  
HETATM    3  C   UNL     1     -10.853   7.330  73.267  1.00  0.00    -0.404 A  
HETATM    4  C   UNL     1     -11.373   8.337  72.461  1.00  0.00    -0.455 A  
HETATM    5  C   UNL     1     -10.985   8.428  71.120  1.00  0.00    -0.292 A  
HETATM    6  C   UNL     1     -10.081   7.520  70.546  1.00  0.00    -0.188 A  
HETATM    7  C   UNL     1      -9.550   6.532  71.389  1.00  0.00    -0.174 A  
ENDROOT
BRANCH   6   8
HETATM    8  N   UNL     1      -9.808   7.558  69.190  1.00  0.00    -0.167 NA 
HETATM    9  C   UNL     1      -8.945   6.544  68.566  1.00  0.00    -0.126 C  
HETATM   10  C   UNL     1      -9.437   6.257  67.128  1.00  0.00    -0.124 C  
HETATM   11  N   UNL     1      -9.554   7.451  66.256  1.00  0.00    -0.108 NA 
HETATM   12  C   UNL     1     -10.012   8.783  68.399  1.00  0.00    -0.179 C  
HETATM   13  C   UNL     1     -10.441   8.422  66.953  1.00  0.00    -0.289 C  
BRANCH  11  14
HETATM   14  C   UNL     1      -8.254   8.066  65.941  1.00  0.00    -0.127 C  
BRANCH  14  15
HETATM   15  C   UNL     1      -8.215   8.707  64.553  1.00  0.00    -0.166 C  
BRANCH  15  16
HETATM   16  C   UNL     1      -7.886  10.194  64.649  1.00  0.00    -0.144 C  
BRANCH  16  17
HETATM   17  N   UNL     1      -9.028  10.951  65.102  1.00  0.00    -0.197 N  
HETATM   18  N   UNL     1     -10.177  11.084  64.346  1.00  0.00    -0.322 NA 
HETATM   19  C   UNL     1     -10.870  11.961  65.004  1.00  0.00    -0.300 A  
HETATM   20  C   UNL     1     -12.211  12.484  64.665  1.00  0.00    -0.524 A  
HETATM   21  C   UNL     1     -12.749  13.403  65.487  1.00  0.00    -0.469 A  
HETATM   22  C   UNL     1     -12.039  13.875  66.662  1.00  0.00    -0.485 A  
HETATM   23  C   UNL     1     -10.821  13.389  66.949  1.00  0.00    -0.277 A  
HETATM   24  N   UNL     1     -10.275  12.445  66.125  1.00  0.00    -0.237 N  
HETATM   25  C   UNL     1      -9.051  11.824  66.204  1.00  0.00    -0.185 C  
HETATM   26  O   UNL     1      -8.160  12.007  67.025  1.00  0.00    -0.164 OA 
ENDBRANCH  16  17
ENDBRANCH  15  16
ENDBRANCH  14  15
ENDBRANCH  11  14
ENDBRANCH   6   8
TORSDOF 5
ENDMDL
MODEL      100
REMARK 921   NORMALIZED FREE ENERGY PREDICTED BY IDOCK:   -5.21 KCAL/MOL
REMARK 922        TOTAL FREE ENERGY PREDICTED BY IDOCK:   -7.37 KCAL/MOL
REMARK 923 INTER-LIGAND FREE ENERGY PREDICTED BY IDOCK:   -6.47 KCAL/MOL
REMARK 924 INTRA-LIGAND FREE ENERGY PREDICTED BY IDOCK:   -0.89 KCAL/MOL
REMARK 927      BINDING AFFINITY PREDICTED BY RF-SCORE:    0.00 PKD
ROOT
HETATM    1 CL   UNL     1     -10.755  20.267  65.113  1.00  0.00    -0.036 Cl 
HETATM    2  C   UNL     1     -10.496  19.529  66.647  1.00  0.00    -0.488 A  
HETATM    3  C   UNL     1      -9.889  20.254  67.665  1.00  0.00    -0.563 A  
HETATM    4  C   UNL     1      -9.679  19.647  68.898  1.00  0.00    -0.458 A  
HETATM    5  C   UNL     1     -10.061  18.315  69.095  1.00  0.00    -0.186 A  
HETATM    6  C   UNL     1     -10.652  17.554  68.074  1.00  0.00    -0.384 A  
HETATM    7  C   UNL     1     -10.878  18.200  66.849  1.00  0.00    -0.115 A  
ENDROOT
BRANCH   6   8
HETATM    8  N   UNL     1     -10.908  16.207  68.256  1.00  0.00    -0.312 NA 
HETATM    9  C   UNL     1     -10.788  15.588  69.585  1.00  0.00    -0.283 C  
HETATM   10  C   UNL     1     -11.847  14.472  69.736  1.00  0.00    -0.315 C  
HETATM   11  N   UNL     1     -11.822  13.436  68.674  1.00  0.00    -0.348 NA 
HETATM   12  C   UNL     1     -10.916  15.267  67.123  1.00  0.00    -0.331 C  
HETATM   13  C   UNL     1     -11.952  14.139  67.369  1.00  0.00    -0.404 C  
BRANCH  11  14
HETATM   14  C   UNL     1     -10.604  12.611  68.702  1.00  0.00    -0.222 C  
BRANCH  14  15
HETATM   15  C   UNL     1      -9.733  12.784  67.456  1.00  0.00    -0.201 C  
BRANCH  15  16
HETATM   16  C   UNL     1      -8.264  12.942  67.835  1.00  0.00    -0.165 C  
BRANCH  16  17
HETATM   17  N   UNL     1      -7.908  14.334  67.968  1.00  0.00    -0.129 N  
HETATM   18  N   UNL     1      -7.872  15.196  66.889  1.00  0.00    -0.156 NA 
HETATM   19  C   UNL     1      -7.346  16.274  67.383  1.00  0.00    -0.163 A  
HETATM   20  C   UNL     1      -7.078  17.547  66.679  1.00  0.00    -0.268 A  
HETATM   21  C   UNL     1      -6.515  18.544  67.384  1.00  0.00    -0.199 A  
HETATM   22  C   UNL     1      -6.170  18.379  68.785  1.00  0.00    -0.215 A  
HETATM   23  C   UNL     1      -6.420  17.214  69.404  1.00  0.00    -0.233 A  
HETATM   24  N   UNL     1      -7.005  16.202  68.696  1.00  0.00    -0.134 N  
HETATM   25  C   UNL     1      -7.333  14.931  69.104  1.00  0.00    -0.158 C  
HETATM   26  O   UNL     1      -7.143  14.414  70.198  1.00  0.00    -0.010 OA 
ENDBRANCH  16  17
ENDBRANCH  15  16
ENDBRANCH  14  15
ENDBRANCH  11  14
ENDBRANCH   6   8
TORSDOF 5
ENDMDL
MODEL      101
REMARK 921   NORMALIZED FREE ENERGY PREDICTED BY IDOCK:   -5.20 KCAL/MOL
REMARK 922        TOTAL FREE ENERGY PREDICTED BY IDOCK:   -7.35 KCAL/MOL
REMARK 923 INTER-LIGAND FREE ENERGY PREDICTED BY IDOCK:   -6.63 KCAL/MOL
REMARK 924 INTRA-LIGAND FREE ENERGY PREDICTED BY IDOCK:   -0.72 KCAL/MOL
REMARK 927      BINDING AFFINITY PREDICTED BY RF-SCORE:    0.00 PKD
ROOT
HETATM    1 CL   UNL     1     -11.058  13.984  67.101  1.00  0.00    -0.303 Cl 
HETATM    2  C   UNL     1     -11.684  13.632  68.667  1.00  0.00    -0.354 A  
HETATM    3  C   UNL     1     -12.094  14.672  69.492  1.00  0.00    -0.335 A  
HETATM    4  C   UNL     1     -12.592  14.378  70.757  1.00  0.00    -0.426 A  
HETATM    5  C   UNL     1     -12.659  13.049  71.189  1.00  0.00    -0.388 A  
HETATM    6  C   UNL     1     -12.227  11.983  70.383  1.00  0.00    -0.294 A  
HETATM    7  C   UNL     1     -11.756  12.307  69.101  1.00  0.00    -0.377 A  
ENDROOT
BRANCH   6   8
HETATM    8  N   UNL     1     -12.190  10.693  70.879  1.00  0.00    -0.360 NA 
HETATM    9  C   UNL     1     -11.065   9.797  70.572  1.00  0.00    -0.321 C  
HETATM   10  C   UNL     1     -10.791   8.873  71.780  1.00  0.00    -0.365 C  
HETATM   11  N   UNL     1     -11.964   8.094  72.251  1.00  0.00    -0.358 NA 
HETATM   12  C   UNL     1     -13.406  10.027  71.377  1.00  0.00    -0.347 C  
HETATM   13  C   UNL     1     -13.051   9.067  72.543  1.00  0.00    -0.385 C  
BRANCH  11  14
HETATM   14  C   UNL     1     -12.414   7.085  71.280  1.00  0.00    -0.386 C  
BRANCH  14  15
HETATM   15  C   UNL     1     -11.283   6.181  70.786  1.00  0.00    -0.373 C  
BRANCH  15  16
HETATM   16  C   UNL     1     -11.263   6.117  69.262  1.00  0.00    -0.367 C  
BRANCH  16  17
HETATM   17  N   UNL     1      -9.976   5.680  68.777  1.00  0.00    -0.155 N  
HETATM   18  N   UNL     1      -9.639   4.344  68.666  1.00  0.00    -0.157 NA 
HETATM   19  C   UNL     1      -8.375   4.376  68.377  1.00  0.00    -0.089 A  
HETATM   20  C   UNL     1      -7.482   3.224  68.128  1.00  0.00    -0.053 A  
HETATM   21  C   UNL     1      -6.192   3.483  67.849  1.00  0.00    -0.032 A  
HETATM   22  C   UNL     1      -5.686   4.843  67.804  1.00  0.00    -0.017 A  
HETATM   23  C   UNL     1      -6.514   5.874  68.037  1.00  0.00    -0.043 A  
HETATM   24  N   UNL     1      -7.828   5.617  68.306  1.00  0.00    -0.095 N  
HETATM   25  C   UNL     1      -8.846   6.497  68.592  1.00  0.00    -0.121 C  
HETATM   26  O   UNL     1      -8.786   7.716  68.698  1.00  0.00    -0.128 OA 
ENDBRANCH  16  17
ENDBRANCH  15  16
ENDBRANCH  14  15
ENDBRANCH  11  14
ENDBRANCH   6   8
TORSDOF 5
ENDMDL
MODEL      102
REMARK 921   NORMALIZED FREE ENERGY PREDICTED BY IDOCK:   -5.19 KCAL/MOL
REMARK 922        TOTAL FREE ENERGY PREDICTED BY IDOCK:   -7.34 KCAL/MOL
REMARK 923 INTER-LIGAND FREE ENERGY PREDICTED BY IDOCK:   -6.20 KCAL/MOL
REMARK 924 INTRA-LIGAND FREE ENERGY PREDICTED BY IDOCK:   -1.14 KCAL/MOL
REMARK 927      BINDING AFFINITY PREDICTED BY RF-SCORE:    0.00 PKD
ROOT
HETATM    1 CL   UNL     1     -12.161  14.565  68.306  1.00  0.00    -0.290 Cl 
HETATM    2  C   UNL     1     -11.691  12.915  68.149  1.00  0.00    -0.352 A  
HETATM    3  C   UNL     1     -11.329  12.419  66.903  1.00  0.00    -0.392 A  
HETATM    4  C   UNL     1     -10.957  11.084  66.786  1.00  0.00    -0.279 A  
HETATM    5  C   UNL     1     -10.969  10.255  67.913  1.00  0.00    -0.350 A  
HETATM    6  C   UNL     1     -11.356  10.727  69.178  1.00  0.00    -0.282 A  
HETATM    7  C   UNL     1     -11.699  12.084  69.272  1.00  0.00    -0.389 A  
ENDROOT
BRANCH   6   8
HETATM    8  N   UNL     1     -11.476   9.859  70.249  1.00  0.00    -0.273 NA 
HETATM    9  C   UNL     1     -10.350   9.006  70.658  1.00  0.00    -0.229 C  
HETATM   10  C   UNL     1     -10.367   8.826  72.194  1.00  0.00    -0.308 C  
HETATM   11  N   UNL     1     -11.642   8.310  72.750  1.00  0.00    -0.354 NA 
HETATM   12  C   UNL     1     -12.794   9.452  70.763  1.00  0.00     0.020 C  
HETATM   13  C   UNL     1     -12.724   9.225  72.296  1.00  0.00    -0.363 C  
BRANCH  11  14
HETATM   14  C   UNL     1     -11.929   6.924  72.347  1.00  0.00    -0.130 C  
BRANCH  14  15
HETATM   15  C   UNL     1     -10.820   5.944  72.736  1.00  0.00    -0.289 C  
BRANCH  15  16
HETATM   16  C   UNL     1     -10.587   4.918  71.631  1.00  0.00    -0.073 C  
BRANCH  16  17
HETATM   17  N   UNL     1     -10.175   5.559  70.406  1.00  0.00    -0.231 N  
HETATM   18  N   UNL     1     -11.061   5.846  69.385  1.00  0.00    -0.357 NA 
HETATM   19  C   UNL     1     -10.289   6.239  68.419  1.00  0.00    -0.200 A  
HETATM   20  C   UNL     1     -10.696   6.691  67.071  1.00  0.00    -0.437 A  
HETATM   21  C   UNL     1      -9.725   7.050  66.213  1.00  0.00    -0.053 A  
HETATM   22  C   UNL     1      -8.324   6.987  66.588  1.00  0.00    -0.118 A  
HETATM   23  C   UNL     1      -7.976   6.570  67.816  1.00  0.00    -0.115 A  
HETATM   24  N   UNL     1      -8.959   6.218  68.696  1.00  0.00    -0.128 N  
HETATM   25  C   UNL     1      -8.847   5.749  69.983  1.00  0.00    -0.135 C  
HETATM   26  O   UNL     1      -7.826   5.514  70.618  1.00  0.00    -0.090 OA 
ENDBRANCH  16  17
ENDBRANCH  15  16
ENDBRANCH  14  15
ENDBRANCH  11  14
ENDBRANCH   6   8
TORSDOF 5
ENDMDL
MODEL      103
REMARK 921   NORMALIZED FREE ENERGY PREDICTED BY IDOCK:   -5.18 KCAL/MOL
REMARK 922        TOTAL FREE ENERGY PREDICTED BY IDOCK:   -7.33 KCAL/MOL
REMARK 923 INTER-LIGAND FREE ENERGY PREDICTED BY IDOCK:   -6.82 KCAL/MOL
REMARK 924 INTRA-LIGAND FREE ENERGY PREDICTED BY IDOCK:   -0.51 KCAL/MOL
REMARK 927      BINDING AFFINITY PREDICTED BY RF-SCORE:    0.00 PKD
ROOT
HETATM    1 CL   UNL     1     -10.489   2.806  72.490  1.00  0.00    -0.192 Cl 
HETATM    2  C   UNL     1     -10.370   4.477  72.892  1.00  0.00    -0.184 A  
HETATM    3  C   UNL     1     -10.351   4.863  74.226  1.00  0.00    -0.317 A  
HETATM    4  C   UNL     1     -10.261   6.214  74.541  1.00  0.00    -0.318 A  
HETATM    5  C   UNL     1     -10.207   7.166  73.516  1.00  0.00    -0.394 A  
HETATM    6  C   UNL     1     -10.250   6.803  72.161  1.00  0.00    -0.193 A  
HETATM    7  C   UNL     1     -10.313   5.431  71.873  1.00  0.00    -0.270 A  
ENDROOT
BRANCH   6   8
HETATM    8  N   UNL     1     -10.318   7.768  71.173  1.00  0.00    -0.200 NA 
HETATM    9  C   UNL     1     -10.018   9.176  71.471  1.00  0.00    -0.287 C  
HETATM   10  C   UNL     1      -9.346   9.835  70.245  1.00  0.00    -0.182 C  
HETATM   11  N   UNL     1     -10.108   9.722  68.976  1.00  0.00    -0.178 NA 
HETATM   12  C   UNL     1     -11.057   7.534  69.920  1.00  0.00    -0.171 C  
HETATM   13  C   UNL     1     -10.367   8.275  68.746  1.00  0.00    -0.205 C  
BRANCH  11  14
HETATM   14  C   UNL     1     -11.369  10.481  68.990  1.00  0.00    -0.257 C  
BRANCH  14  15
HETATM   15  C   UNL     1     -11.434  11.555  67.902  1.00  0.00    -0.372 C  
BRANCH  15  16
HETATM   16  C   UNL     1     -10.036  12.049  67.542  1.00  0.00    -0.195 C  
BRANCH  16  17
HETATM   17  N   UNL     1     -10.024  13.480  67.353  1.00  0.00    -0.231 N  
HETATM   18  N   UNL     1     -10.034  14.368  68.411  1.00  0.00    -0.235 NA 
HETATM   19  C   UNL     1     -10.198  15.519  67.837  1.00  0.00    -0.238 A  
HETATM   20  C   UNL     1     -10.269  16.846  68.486  1.00  0.00    -0.310 A  
HETATM   21  C   UNL     1     -10.453  17.919  67.697  1.00  0.00    -0.406 A  
HETATM   22  C   UNL     1     -10.587  17.785  66.257  1.00  0.00    -0.220 A  
HETATM   23  C   UNL     1     -10.522  16.570  65.688  1.00  0.00    -0.324 A  
HETATM   24  N   UNL     1     -10.321  15.478  66.484  1.00  0.00    -0.280 N  
HETATM   25  C   UNL     1     -10.241  14.151  66.136  1.00  0.00    -0.304 C  
HETATM   26  O   UNL     1     -10.363  13.650  65.024  1.00  0.00    -0.353 OA 
ENDBRANCH  16  17
ENDBRANCH  15  16
ENDBRANCH  14  15
ENDBRANCH  11  14
ENDBRANCH   6   8
TORSDOF 5
ENDMDL
MODEL      104
REMARK 921   NORMALIZED FREE ENERGY PREDICTED BY IDOCK:   -5.18 KCAL/MOL
REMARK 922        TOTAL FREE ENERGY PREDICTED BY IDOCK:   -7.32 KCAL/MOL
REMARK 923 INTER-LIGAND FREE ENERGY PREDICTED BY IDOCK:   -6.62 KCAL/MOL
REMARK 924 INTRA-LIGAND FREE ENERGY PREDICTED BY IDOCK:   -0.70 KCAL/MOL
REMARK 927      BINDING AFFINITY PREDICTED BY RF-SCORE:    0.00 PKD
ROOT
HETATM    1 CL   UNL     1     -11.313  12.203  65.627  1.00  0.00    -0.384 Cl 
HETATM    2  C   UNL     1     -10.250  10.880  65.336  1.00  0.00    -0.277 A  
HETATM    3  C   UNL     1      -9.464  10.868  64.191  1.00  0.00    -0.295 A  
HETATM    4  C   UNL     1      -8.614   9.792  63.962  1.00  0.00    -0.208 A  
HETATM    5  C   UNL     1      -8.572   8.730  64.872  1.00  0.00    -0.177 A  
HETATM    6  C   UNL     1      -9.376   8.707  66.023  1.00  0.00    -0.218 A  
HETATM    7  C   UNL     1     -10.203   9.819  66.243  1.00  0.00    -0.282 A  
ENDROOT
BRANCH   6   8
HETATM    8  N   UNL     1      -9.404   7.592  66.842  1.00  0.00    -0.149 NA 
HETATM    9  C   UNL     1     -10.622   6.776  66.963  1.00  0.00    -0.335 C  
HETATM   10  C   UNL     1     -10.235   5.292  67.158  1.00  0.00    -0.220 C  
HETATM   11  N   UNL     1      -9.314   5.027  68.291  1.00  0.00    -0.120 NA 
HETATM   12  C   UNL     1      -8.406   7.395  67.906  1.00  0.00    -0.119 C  
HETATM   13  C   UNL     1      -8.114   5.883  68.092  1.00  0.00    -0.109 C  
BRANCH  11  14
HETATM   14  C   UNL     1      -9.927   5.286  69.605  1.00  0.00    -0.232 C  
BRANCH  14  15
HETATM   15  C   UNL     1      -9.015   4.911  70.775  1.00  0.00    -0.167 C  
BRANCH  15  16
HETATM   16  C   UNL     1      -8.903   6.064  71.768  1.00  0.00    -0.138 C  
BRANCH  16  17
HETATM   17  N   UNL     1     -10.015   6.973  71.637  1.00  0.00    -0.179 N  
HETATM   18  N   UNL     1      -9.872   8.253  71.134  1.00  0.00    -0.169 NA 
HETATM   19  C   UNL     1     -11.034   8.790  71.345  1.00  0.00    -0.289 A  
HETATM   20  C   UNL     1     -11.468  10.160  70.993  1.00  0.00    -0.436 A  
HETATM   21  C   UNL     1     -12.724  10.519  71.313  1.00  0.00    -0.532 A  
HETATM   22  C   UNL     1     -13.624   9.601  71.989  1.00  0.00    -0.467 A  
HETATM   23  C   UNL     1     -13.208   8.363  72.302  1.00  0.00    -0.273 A  
HETATM   24  N   UNL     1     -11.938   7.989  71.967  1.00  0.00    -0.309 N  
HETATM   25  C   UNL     1     -11.293   6.797  72.199  1.00  0.00    -0.271 C  
HETATM   26  O   UNL     1     -11.713   5.810  72.790  1.00  0.00    -0.264 OA 
ENDBRANCH  16  17
ENDBRANCH  15  16
ENDBRANCH  14  15
ENDBRANCH  11  14
ENDBRANCH   6   8
TORSDOF 5
ENDMDL
MODEL      105
REMARK 921   NORMALIZED FREE ENERGY PREDICTED BY IDOCK:   -5.16 KCAL/MOL
REMARK 922        TOTAL FREE ENERGY PREDICTED BY IDOCK:   -7.31 KCAL/MOL
REMARK 923 INTER-LIGAND FREE ENERGY PREDICTED BY IDOCK:   -6.81 KCAL/MOL
REMARK 924 INTRA-LIGAND FREE ENERGY PREDICTED BY IDOCK:   -0.50 KCAL/MOL
REMARK 927      BINDING AFFINITY PREDICTED BY RF-SCORE:    0.00 PKD
ROOT
HETATM    1 CL   UNL     1      -6.312   2.980  71.178  1.00  0.00    -0.018 Cl 
HETATM    2  C   UNL     1      -7.291   3.884  72.270  1.00  0.00    -0.057 A  
HETATM    3  C   UNL     1      -7.333   3.527  73.611  1.00  0.00    -0.060 A  
HETATM    4  C   UNL     1      -8.130   4.260  74.483  1.00  0.00    -0.087 A  
HETATM    5  C   UNL     1      -8.892   5.330  74.001  1.00  0.00    -0.117 A  
HETATM    6  C   UNL     1      -8.886   5.693  72.645  1.00  0.00    -0.123 A  
HETATM    7  C   UNL     1      -8.050   4.955  71.793  1.00  0.00    -0.113 A  
ENDROOT
BRANCH   6   8
HETATM    8  N   UNL     1      -9.738   6.676  72.173  1.00  0.00    -0.154 NA 
HETATM    9  C   UNL     1      -9.681   7.115  70.771  1.00  0.00    -0.171 C  
HETATM   10  C   UNL     1     -11.101   7.484  70.284  1.00  0.00    -0.248 C  
HETATM   11  N   UNL     1     -11.808   8.489  71.117  1.00  0.00    -0.287 NA 
HETATM   12  C   UNL     1     -10.438   7.590  73.091  1.00  0.00    -0.364 C  
HETATM   13  C   UNL     1     -11.826   7.971  72.512  1.00  0.00    -0.361 C  
BRANCH  11  14
HETATM   14  C   UNL     1     -11.187   9.822  71.065  1.00  0.00    -0.381 C  
BRANCH  14  15
HETATM   15  C   UNL     1     -11.692  10.673  69.898  1.00  0.00    -0.395 C  
BRANCH  15  16
HETATM   16  C   UNL     1     -10.627  10.796  68.813  1.00  0.00    -0.200 C  
BRANCH  16  17
HETATM   17  N   UNL     1     -10.912  11.899  67.927  1.00  0.00    -0.209 N  
HETATM   18  N   UNL     1     -11.898  11.838  66.960  1.00  0.00    -0.607 NA 
HETATM   19  C   UNL     1     -11.719  12.927  66.278  1.00  0.00    -0.399 A  
HETATM   20  C   UNL     1     -12.504  13.400  65.118  1.00  0.00    -0.509 A  
HETATM   21  C   UNL     1     -12.140  14.563  64.550  1.00  0.00    -0.501 A  
HETATM   22  C   UNL     1     -11.010  15.327  65.047  1.00  0.00    -0.450 A  
HETATM   23  C   UNL     1     -10.308  14.877  66.100  1.00  0.00    -0.301 A  
HETATM   24  N   UNL     1     -10.683  13.703  66.690  1.00  0.00    -0.279 N  
HETATM   25  C   UNL     1     -10.113  13.043  67.753  1.00  0.00    -0.229 C  
HETATM   26  O   UNL     1      -9.115  13.354  68.392  1.00  0.00    -0.189 OA 
ENDBRANCH  16  17
ENDBRANCH  15  16
ENDBRANCH  14  15
ENDBRANCH  11  14
ENDBRANCH   6   8
TORSDOF 5
ENDMDL
MODEL      106
REMARK 921   NORMALIZED FREE ENERGY PREDICTED BY IDOCK:   -5.16 KCAL/MOL
REMARK 922        TOTAL FREE ENERGY PREDICTED BY IDOCK:   -7.30 KCAL/MOL
REMARK 923 INTER-LIGAND FREE ENERGY PREDICTED BY IDOCK:   -6.85 KCAL/MOL
REMARK 924 INTRA-LIGAND FREE ENERGY PREDICTED BY IDOCK:   -0.46 KCAL/MOL
REMARK 927      BINDING AFFINITY PREDICTED BY RF-SCORE:    0.00 PKD
ROOT
HETATM    1 CL   UNL     1      -9.859   3.018  63.865  1.00  0.00    -0.146 Cl 
HETATM    2  C   UNL     1      -9.395   2.924  65.522  1.00  0.00    -0.084 A  
HETATM    3  C   UNL     1      -8.841   1.750  66.015  1.00  0.00    -0.117 A  
HETATM    4  C   UNL     1      -8.476   1.683  67.355  1.00  0.00    -0.093 A  
HETATM    5  C   UNL     1      -8.686   2.785  68.192  1.00  0.00    -0.134 A  
HETATM    6  C   UNL     1      -9.268   3.973  67.722  1.00  0.00    -0.159 A  
HETATM    7  C   UNL     1      -9.600   4.023  66.360  1.00  0.00    -0.217 A  
ENDROOT
BRANCH   6   8
HETATM    8  N   UNL     1      -9.576   5.001  68.595  1.00  0.00    -0.139 NA 
HETATM    9  C   UNL     1     -10.714   5.896  68.337  1.00  0.00    -0.250 C  
HETATM   10  C   UNL     1     -11.357   6.319  69.678  1.00  0.00    -0.422 C  
HETATM   11  N   UNL     1     -10.423   6.932  70.655  1.00  0.00    -0.208 NA 
HETATM   12  C   UNL     1      -8.592   5.502  69.570  1.00  0.00    -0.105 C  
HETATM   13  C   UNL     1      -9.309   5.969  70.863  1.00  0.00    -0.161 C  
BRANCH  11  14
HETATM   14  C   UNL     1      -9.908   8.239  70.218  1.00  0.00    -0.184 C  
BRANCH  14  15
HETATM   15  C   UNL     1     -10.652   9.418  70.848  1.00  0.00    -0.390 C  
BRANCH  15  16
HETATM   16  C   UNL     1     -11.384  10.231  69.785  1.00  0.00    -0.273 C  
BRANCH  16  17
HETATM   17  N   UNL     1     -11.891  11.466  70.332  1.00  0.00    -0.348 N  
HETATM   18  N   UNL     1     -12.808  11.498  71.366  1.00  0.00    -0.418 NA 
HETATM   19  C   UNL     1     -13.135  12.752  71.438  1.00  0.00    -0.227 A  
HETATM   20  C   UNL     1     -14.081  13.379  72.386  1.00  0.00    -0.517 A  
HETATM   21  C   UNL     1     -14.282  14.705  72.282  1.00  0.00    -0.555 A  
HETATM   22  C   UNL     1     -13.605  15.495  71.269  1.00  0.00    -0.520 A  
HETATM   23  C   UNL     1     -12.752  14.904  70.417  1.00  0.00    -0.321 A  
HETATM   24  N   UNL     1     -12.533  13.560  70.528  1.00  0.00    -0.325 N  
HETATM   25  C   UNL     1     -11.731  12.744  69.766  1.00  0.00    -0.282 C  
HETATM   26  O   UNL     1     -11.052  13.044  68.791  1.00  0.00    -0.249 OA 
ENDBRANCH  16  17
ENDBRANCH  15  16
ENDBRANCH  14  15
ENDBRANCH  11  14
ENDBRANCH   6   8
TORSDOF 5
ENDMDL
MODEL      107
REMARK 921   NORMALIZED FREE ENERGY PREDICTED BY IDOCK:   -5.16 KCAL/MOL
REMARK 922        TOTAL FREE ENERGY PREDICTED BY IDOCK:   -7.30 KCAL/MOL
REMARK 923 INTER-LIGAND FREE ENERGY PREDICTED BY IDOCK:   -6.78 KCAL/MOL
REMARK 924 INTRA-LIGAND FREE ENERGY PREDICTED BY IDOCK:   -0.52 KCAL/MOL
REMARK 927      BINDING AFFINITY PREDICTED BY RF-SCORE:    0.00 PKD
ROOT
HETATM    1 CL   UNL     1     -10.559  20.437  65.088  1.00  0.00     0.078 Cl 
HETATM    2  C   UNL     1     -10.353  19.441  66.478  1.00  0.00    -0.469 A  
HETATM    3  C   UNL     1      -9.744  19.962  67.613  1.00  0.00    -0.511 A  
HETATM    4  C   UNL     1      -9.576  19.147  68.727  1.00  0.00    -0.474 A  
HETATM    5  C   UNL     1     -10.003  17.815  68.689  1.00  0.00    -0.379 A  
HETATM    6  C   UNL     1     -10.597  17.259  67.545  1.00  0.00    -0.329 A  
HETATM    7  C   UNL     1     -10.780  18.111  66.445  1.00  0.00    -0.163 A  
ENDROOT
BRANCH   6   8
HETATM    8  N   UNL     1     -10.899  15.910  67.491  1.00  0.00    -0.318 NA 
HETATM    9  C   UNL     1     -10.911  15.090  68.712  1.00  0.00    -0.255 C  
HETATM   10  C   UNL     1     -12.004  14.002  68.596  1.00  0.00    -0.354 C  
HETATM   11  N   UNL     1     -11.907  13.142  67.391  1.00  0.00    -0.367 NA 
HETATM   12  C   UNL     1     -10.826  15.156  66.228  1.00  0.00    -0.333 C  
HETATM   13  C   UNL     1     -11.905  14.042  66.206  1.00  0.00    -0.411 C  
BRANCH  11  14
HETATM   14  C   UNL     1     -10.715  12.279  67.392  1.00  0.00    -0.230 C  
BRANCH  14  15
HETATM   15  C   UNL     1     -10.803  11.138  68.407  1.00  0.00    -0.248 C  
BRANCH  15  16
HETATM   16  C   UNL     1      -9.493  10.357  68.464  1.00  0.00    -0.159 C  
BRANCH  16  17
HETATM   17  N   UNL     1      -9.563   9.165  67.655  1.00  0.00    -0.146 N  
HETATM   18  N   UNL     1     -10.508   8.178  67.869  1.00  0.00    -0.217 NA 
HETATM   19  C   UNL     1     -10.130   7.223  67.076  1.00  0.00    -0.246 A  
HETATM   20  C   UNL     1     -10.783   5.912  66.874  1.00  0.00    -0.395 A  
HETATM   21  C   UNL     1     -10.216   5.059  66.003  1.00  0.00    -0.253 A  
HETATM   22  C   UNL     1      -8.998   5.404  65.291  1.00  0.00    -0.104 A  
HETATM   23  C   UNL     1      -8.419   6.599  65.492  1.00  0.00    -0.131 A  
HETATM   24  N   UNL     1      -9.000   7.475  66.365  1.00  0.00    -0.161 N  
HETATM   25  C   UNL     1      -8.585   8.730  66.743  1.00  0.00    -0.115 C  
HETATM   26  O   UNL     1      -7.576   9.331  66.395  1.00  0.00    -0.092 OA 
ENDBRANCH  16  17
ENDBRANCH  15  16
ENDBRANCH  14  15
ENDBRANCH  11  14
ENDBRANCH   6   8
TORSDOF 5
ENDMDL
MODEL      108
REMARK 921   NORMALIZED FREE ENERGY PREDICTED BY IDOCK:   -5.14 KCAL/MOL
REMARK 922        TOTAL FREE ENERGY PREDICTED BY IDOCK:   -7.28 KCAL/MOL
REMARK 923 INTER-LIGAND FREE ENERGY PREDICTED BY IDOCK:   -6.70 KCAL/MOL
REMARK 924 INTRA-LIGAND FREE ENERGY PREDICTED BY IDOCK:   -0.57 KCAL/MOL
REMARK 927      BINDING AFFINITY PREDICTED BY RF-SCORE:    0.00 PKD
ROOT
HETATM    1 CL   UNL     1     -10.403  19.271  65.955  1.00  0.00    -0.545 Cl 
HETATM    2  C   UNL     1     -10.492  18.017  67.133  1.00  0.00    -0.367 A  
HETATM    3  C   UNL     1     -10.326  18.324  68.478  1.00  0.00    -0.341 A  
HETATM    4  C   UNL     1     -10.394  17.304  69.420  1.00  0.00    -0.158 A  
HETATM    5  C   UNL     1     -10.610  15.985  69.006  1.00  0.00    -0.257 A  
HETATM    6  C   UNL     1     -10.755  15.646  67.652  1.00  0.00    -0.302 A  
HETATM    7  C   UNL     1     -10.711  16.699  66.725  1.00  0.00    -0.133 A  
ENDROOT
BRANCH   6   8
HETATM    8  N   UNL     1     -10.846  14.323  67.261  1.00  0.00    -0.280 NA 
HETATM    9  C   UNL     1     -10.086  13.275  67.959  1.00  0.00    -0.235 C  
HETATM   10  C   UNL     1     -10.904  11.964  67.978  1.00  0.00    -0.216 C  
HETATM   11  N   UNL     1     -11.351  11.485  66.646  1.00  0.00    -0.397 NA 
HETATM   12  C   UNL     1     -11.358  13.948  65.932  1.00  0.00    -0.313 C  
HETATM   13  C   UNL     1     -12.111  12.594  66.011  1.00  0.00    -0.364 C  
BRANCH  11  14
HETATM   14  C   UNL     1     -10.238  11.055  65.785  1.00  0.00    -0.260 C  
BRANCH  14  15
HETATM   15  C   UNL     1      -9.160  10.277  66.542  1.00  0.00    -0.169 C  
BRANCH  15  16
HETATM   16  C   UNL     1      -9.378   8.773  66.406  1.00  0.00    -0.204 C  
BRANCH  16  17
HETATM   17  N   UNL     1      -9.724   8.181  67.676  1.00  0.00    -0.152 N  
HETATM   18  N   UNL     1      -9.064   8.500  68.847  1.00  0.00    -0.146 NA 
HETATM   19  C   UNL     1      -9.538   7.646  69.702  1.00  0.00    -0.160 A  
HETATM   20  C   UNL     1      -9.198   7.527  71.136  1.00  0.00    -0.151 A  
HETATM   21  C   UNL     1      -9.806   6.558  71.844  1.00  0.00    -0.168 A  
HETATM   22  C   UNL     1     -10.756   5.652  71.224  1.00  0.00    -0.312 A  
HETATM   23  C   UNL     1     -11.048   5.776  69.919  1.00  0.00    -0.257 A  
HETATM   24  N   UNL     1     -10.444   6.767  69.199  1.00  0.00    -0.203 N  
HETATM   25  C   UNL     1     -10.568   7.072  67.864  1.00  0.00    -0.218 C  
HETATM   26  O   UNL     1     -11.235   6.494  67.013  1.00  0.00    -0.397 OA 
ENDBRANCH  16  17
ENDBRANCH  15  16
ENDBRANCH  14  15
ENDBRANCH  11  14
ENDBRANCH   6   8
TORSDOF 5
ENDMDL
MODEL      109
REMARK 921   NORMALIZED FREE ENERGY PREDICTED BY IDOCK:   -5.12 KCAL/MOL
REMARK 922        TOTAL FREE ENERGY PREDICTED BY IDOCK:   -7.25 KCAL/MOL
REMARK 923 INTER-LIGAND FREE ENERGY PREDICTED BY IDOCK:   -7.03 KCAL/MOL
REMARK 924 INTRA-LIGAND FREE ENERGY PREDICTED BY IDOCK:   -0.22 KCAL/MOL
REMARK 927      BINDING AFFINITY PREDICTED BY RF-SCORE:    0.00 PKD
ROOT
HETATM    1 CL   UNL     1     -12.400  16.645  73.636  1.00  0.00    -0.471 Cl 
HETATM    2  C   UNL     1     -12.581  15.286  72.593  1.00  0.00    -0.378 A  
HETATM    3  C   UNL     1     -13.272  14.166  73.037  1.00  0.00    -0.436 A  
HETATM    4  C   UNL     1     -13.408  13.072  72.190  1.00  0.00    -0.622 A  
HETATM    5  C   UNL     1     -12.834  13.103  70.914  1.00  0.00    -0.237 A  
HETATM    6  C   UNL     1     -12.109  14.213  70.452  1.00  0.00    -0.346 A  
HETATM    7  C   UNL     1     -12.013  15.313  71.317  1.00  0.00    -0.409 A  
ENDROOT
BRANCH   6   8
HETATM    8  N   UNL     1     -11.451  14.170  69.236  1.00  0.00    -0.275 NA 
HETATM    9  C   UNL     1     -12.159  13.778  68.008  1.00  0.00    -0.280 C  
HETATM   10  C   UNL     1     -11.589  14.566  66.806  1.00  0.00    -0.376 C  
HETATM   11  N   UNL     1     -10.121  14.452  66.621  1.00  0.00    -0.267 NA 
HETATM   12  C   UNL     1      -9.981  14.116  69.160  1.00  0.00     0.028 C  
HETATM   13  C   UNL     1      -9.483  14.868  67.899  1.00  0.00    -0.200 C  
BRANCH  11  14
HETATM   14  C   UNL     1      -9.690  13.097  66.240  1.00  0.00    -0.265 C  
BRANCH  14  15
HETATM   15  C   UNL     1      -8.522  12.581  67.082  1.00  0.00    -0.186 C  
BRANCH  15  16
HETATM   16  C   UNL     1      -8.026  11.237  66.559  1.00  0.00    -0.145 C  
BRANCH  16  17
HETATM   17  N   UNL     1      -8.865  10.158  67.020  1.00  0.00    -0.135 N  
HETATM   18  N   UNL     1      -9.096   9.919  68.362  1.00  0.00    -0.123 NA 
HETATM   19  C   UNL     1      -9.731   8.788  68.361  1.00  0.00    -0.162 A  
HETATM   20  C   UNL     1     -10.249   8.048  69.531  1.00  0.00    -0.209 A  
HETATM   21  C   UNL     1     -10.877   6.880  69.305  1.00  0.00    -0.270 A  
HETATM   22  C   UNL     1     -11.034   6.355  67.960  1.00  0.00    -0.400 A  
HETATM   23  C   UNL     1     -10.553   7.042  66.911  1.00  0.00    -0.301 A  
HETATM   24  N   UNL     1      -9.928   8.235  67.135  1.00  0.00    -0.213 N  
HETATM   25  C   UNL     1      -9.346   9.095  66.234  1.00  0.00    -0.216 C  
HETATM   26  O   UNL     1      -9.235   8.960  65.021  1.00  0.00    -0.130 OA 
ENDBRANCH  16  17
ENDBRANCH  15  16
ENDBRANCH  14  15
ENDBRANCH  11  14
ENDBRANCH   6   8
TORSDOF 5
ENDMDL
MODEL      110
REMARK 921   NORMALIZED FREE ENERGY PREDICTED BY IDOCK:   -5.11 KCAL/MOL
REMARK 922        TOTAL FREE ENERGY PREDICTED BY IDOCK:   -7.24 KCAL/MOL
REMARK 923 INTER-LIGAND FREE ENERGY PREDICTED BY IDOCK:   -6.72 KCAL/MOL
REMARK 924 INTRA-LIGAND FREE ENERGY PREDICTED BY IDOCK:   -0.53 KCAL/MOL
REMARK 927      BINDING AFFINITY PREDICTED BY RF-SCORE:    0.00 PKD
ROOT
HETATM    1 CL   UNL     1      -7.545   4.946  63.009  1.00  0.00    -0.060 Cl 
HETATM    2  C   UNL     1      -8.002   5.612  64.531  1.00  0.00    -0.124 A  
HETATM    3  C   UNL     1      -8.069   4.790  65.649  1.00  0.00    -0.111 A  
HETATM    4  C   UNL     1      -8.445   5.336  66.871  1.00  0.00    -0.106 A  
HETATM    5  C   UNL     1      -8.766   6.695  66.958  1.00  0.00    -0.113 A  
HETATM    6  C   UNL     1      -8.731   7.540  65.838  1.00  0.00    -0.147 A  
HETATM    7  C   UNL     1      -8.321   6.969  64.624  1.00  0.00     0.051 A  
ENDROOT
BRANCH   6   8
HETATM    8  N   UNL     1      -9.170   8.849  65.927  1.00  0.00    -0.217 NA 
HETATM    9  C   UNL     1      -8.978   9.787  64.811  1.00  0.00    -0.225 C  
HETATM   10  C   UNL     1     -10.170  10.769  64.746  1.00  0.00    -0.334 C  
HETATM   11  N   UNL     1     -10.445  11.505  66.005  1.00  0.00    -0.244 NA 
HETATM   12  C   UNL     1      -9.470   9.472  67.227  1.00  0.00    -0.136 C  
HETATM   13  C   UNL     1     -10.630  10.491  67.077  1.00  0.00    -0.253 C  
BRANCH  11  14
HETATM   14  C   UNL     1      -9.377  12.454  66.363  1.00  0.00    -0.219 C  
BRANCH  14  15
HETATM   15  C   UNL     1      -9.561  13.065  67.754  1.00  0.00    -0.208 C  
BRANCH  15  16
HETATM   16  C   UNL     1     -10.696  14.085  67.755  1.00  0.00    -0.243 C  
BRANCH  16  17
HETATM   17  N   UNL     1     -11.175  14.328  69.094  1.00  0.00    -0.260 N  
HETATM   18  N   UNL     1     -12.097  13.506  69.713  1.00  0.00    -0.328 NA 
HETATM   19  C   UNL     1     -12.393  14.150  70.800  1.00  0.00    -0.369 A  
HETATM   20  C   UNL     1     -13.328  13.732  71.866  1.00  0.00    -0.499 A  
HETATM   21  C   UNL     1     -13.495  14.561  72.911  1.00  0.00    -0.525 A  
HETATM   22  C   UNL     1     -12.792  15.829  72.990  1.00  0.00    -0.608 A  
HETATM   23  C   UNL     1     -11.950  16.191  72.009  1.00  0.00    -0.526 A  
HETATM   24  N   UNL     1     -11.766  15.346  70.952  1.00  0.00    -0.318 N  
HETATM   25  C   UNL     1     -10.980  15.508  69.836  1.00  0.00    -0.307 C  
HETATM   26  O   UNL     1     -10.288  16.471  69.529  1.00  0.00    -0.287 OA 
ENDBRANCH  16  17
ENDBRANCH  15  16
ENDBRANCH  14  15
ENDBRANCH  11  14
ENDBRANCH   6   8
TORSDOF 5
ENDMDL
MODEL      111
REMARK 921   NORMALIZED FREE ENERGY PREDICTED BY IDOCK:   -5.08 KCAL/MOL
REMARK 922        TOTAL FREE ENERGY PREDICTED BY IDOCK:   -7.20 KCAL/MOL
REMARK 923 INTER-LIGAND FREE ENERGY PREDICTED BY IDOCK:   -6.79 KCAL/MOL
REMARK 924 INTRA-LIGAND FREE ENERGY PREDICTED BY IDOCK:   -0.41 KCAL/MOL
REMARK 927      BINDING AFFINITY PREDICTED BY RF-SCORE:    0.00 PKD
ROOT
HETATM    1 CL   UNL     1      -8.951   1.718  71.048  1.00  0.00    -0.119 Cl 
HETATM    2  C   UNL     1      -9.667   3.002  71.946  1.00  0.00    -0.164 A  
HETATM    3  C   UNL     1     -10.188   2.751  73.209  1.00  0.00    -0.209 A  
HETATM    4  C   UNL     1     -10.769   3.793  73.922  1.00  0.00    -0.305 A  
HETATM    5  C   UNL     1     -10.839   5.072  73.358  1.00  0.00    -0.360 A  
HETATM    6  C   UNL     1     -10.343   5.344  72.073  1.00  0.00    -0.213 A  
HETATM    7  C   UNL     1      -9.737   4.281  71.387  1.00  0.00    -0.252 A  
ENDROOT
BRANCH   6   8
HETATM    8  N   UNL     1     -10.534   6.585  71.491  1.00  0.00    -0.212 NA 
HETATM    9  C   UNL     1     -11.585   6.792  70.484  1.00  0.00    -0.372 C  
HETATM   10  C   UNL     1     -12.160   8.221  70.619  1.00  0.00     0.042 C  
HETATM   11  N   UNL     1     -11.154   9.310  70.556  1.00  0.00    -0.252 NA 
HETATM   12  C   UNL     1      -9.489   7.621  71.532  1.00  0.00    -0.143 C  
HETATM   13  C   UNL     1     -10.134   9.030  71.602  1.00  0.00    -0.335 C  
BRANCH  11  14
HETATM   14  C   UNL     1     -10.522   9.435  69.232  1.00  0.00    -0.218 C  
BRANCH  14  15
HETATM   15  C   UNL     1     -10.307  10.889  68.806  1.00  0.00    -0.215 C  
BRANCH  15  16
HETATM   16  C   UNL     1     -11.422  11.352  67.872  1.00  0.00    -0.291 C  
BRANCH  16  17
HETATM   17  N   UNL     1     -11.281  12.751  67.549  1.00  0.00    -0.273 N  
HETATM   18  N   UNL     1     -10.702  13.186  66.373  1.00  0.00    -0.282 NA 
HETATM   19  C   UNL     1     -10.603  14.469  66.542  1.00  0.00    -0.297 A  
HETATM   20  C   UNL     1     -10.064  15.462  65.589  1.00  0.00    -0.406 A  
HETATM   21  C   UNL     1     -10.048  16.751  65.973  1.00  0.00    -0.350 A  
HETATM   22  C   UNL     1     -10.532  17.157  67.280  1.00  0.00    -0.313 A  
HETATM   23  C   UNL     1     -11.014  16.238  68.132  1.00  0.00    -0.343 A  
HETATM   24  N   UNL     1     -11.047  14.929  67.741  1.00  0.00    -0.297 N  
HETATM   25  C   UNL     1     -11.472  13.824  68.439  1.00  0.00    -0.316 C  
HETATM   26  O   UNL     1     -11.893  13.768  69.588  1.00  0.00    -0.293 OA 
ENDBRANCH  16  17
ENDBRANCH  15  16
ENDBRANCH  14  15
ENDBRANCH  11  14
ENDBRANCH   6   8
TORSDOF 5
ENDMDL
MODEL      112
REMARK 921   NORMALIZED FREE ENERGY PREDICTED BY IDOCK:   -5.08 KCAL/MOL
REMARK 922        TOTAL FREE ENERGY PREDICTED BY IDOCK:   -7.19 KCAL/MOL
REMARK 923 INTER-LIGAND FREE ENERGY PREDICTED BY IDOCK:   -6.22 KCAL/MOL
REMARK 924 INTRA-LIGAND FREE ENERGY PREDICTED BY IDOCK:   -0.97 KCAL/MOL
REMARK 927      BINDING AFFINITY PREDICTED BY RF-SCORE:    0.00 PKD
ROOT
HETATM    1 CL   UNL     1     -12.393  13.625  65.859  1.00  0.00    -0.500 Cl 
HETATM    2  C   UNL     1     -11.521  12.174  66.176  1.00  0.00    -0.371 A  
HETATM    3  C   UNL     1     -10.831  11.547  65.145  1.00  0.00    -0.326 A  
HETATM    4  C   UNL     1     -10.135  10.373  65.410  1.00  0.00    -0.354 A  
HETATM    5  C   UNL     1     -10.151   9.828  66.699  1.00  0.00    -0.303 A  
HETATM    6  C   UNL     1     -10.862  10.428  67.750  1.00  0.00    -0.297 A  
HETATM    7  C   UNL     1     -11.531  11.627  67.462  1.00  0.00    -0.360 A  
ENDROOT
BRANCH   6   8
HETATM    8  N   UNL     1     -10.961   9.806  68.981  1.00  0.00    -0.198 NA 
HETATM    9  C   UNL     1     -11.281  10.575  70.193  1.00  0.00    -0.315 C  
HETATM   10  C   UNL     1     -12.131   9.708  71.150  1.00  0.00    -0.362 C  
HETATM   11  N   UNL     1     -11.532   8.398  71.507  1.00  0.00    -0.264 NA 
HETATM   12  C   UNL     1     -10.378   8.474  69.218  1.00  0.00    -0.221 C  
HETATM   13  C   UNL     1     -11.243   7.684  70.235  1.00  0.00    -0.216 C  
BRANCH  11  14
HETATM   14  C   UNL     1     -10.313   8.524  72.323  1.00  0.00    -0.332 C  
BRANCH  14  15
HETATM   15  C   UNL     1     -10.188   7.432  73.387  1.00  0.00    -0.402 C  
BRANCH  15  16
HETATM   16  C   UNL     1      -8.821   6.758  73.318  1.00  0.00    -0.123 C  
BRANCH  16  17
HETATM   17  N   UNL     1      -8.697   5.956  72.126  1.00  0.00    -0.136 N  
HETATM   18  N   UNL     1      -7.926   6.345  71.047  1.00  0.00    -0.114 NA 
HETATM   19  C   UNL     1      -8.217   5.467  70.137  1.00  0.00    -0.100 A  
HETATM   20  C   UNL     1      -7.670   5.379  68.766  1.00  0.00    -0.083 A  
HETATM   21  C   UNL     1      -8.117   4.386  67.977  1.00  0.00    -0.090 A  
HETATM   22  C   UNL     1      -9.110   3.436  68.448  1.00  0.00    -0.206 A  
HETATM   23  C   UNL     1      -9.595   3.536  69.696  1.00  0.00    -0.114 A  
HETATM   24  N   UNL     1      -9.134   4.534  70.505  1.00  0.00    -0.108 N  
HETATM   25  C   UNL     1      -9.492   4.843  71.796  1.00  0.00    -0.151 C  
HETATM   26  O   UNL     1     -10.336   4.300  72.499  1.00  0.00    -0.177 OA 
ENDBRANCH  16  17
ENDBRANCH  15  16
ENDBRANCH  14  15
ENDBRANCH  11  14
ENDBRANCH   6   8
TORSDOF 5
ENDMDL
MODEL      113
REMARK 921   NORMALIZED FREE ENERGY PREDICTED BY IDOCK:   -5.06 KCAL/MOL
REMARK 922        TOTAL FREE ENERGY PREDICTED BY IDOCK:   -7.18 KCAL/MOL
REMARK 923 INTER-LIGAND FREE ENERGY PREDICTED BY IDOCK:   -6.49 KCAL/MOL
REMARK 924 INTRA-LIGAND FREE ENERGY PREDICTED BY IDOCK:   -0.69 KCAL/MOL
REMARK 927      BINDING AFFINITY PREDICTED BY RF-SCORE:    0.00 PKD
ROOT
HETATM    1 CL   UNL     1     -14.353  14.262  72.264  1.00  0.00    -0.588 Cl 
HETATM    2  C   UNL     1     -13.018  14.541  71.213  1.00  0.00    -0.333 A  
HETATM    3  C   UNL     1     -12.527  15.831  71.053  1.00  0.00    -0.473 A  
HETATM    4  C   UNL     1     -11.452  16.047  70.198  1.00  0.00    -0.350 A  
HETATM    5  C   UNL     1     -10.891  14.974  69.497  1.00  0.00    -0.272 A  
HETATM    6  C   UNL     1     -11.386  13.666  69.622  1.00  0.00    -0.161 A  
HETATM    7  C   UNL     1     -12.452  13.472  70.513  1.00  0.00    -0.373 A  
ENDROOT
BRANCH   6   8
HETATM    8  N   UNL     1     -10.894  12.646  68.828  1.00  0.00    -0.241 NA 
HETATM    9  C   UNL     1     -11.115  11.237  69.186  1.00  0.00    -0.253 C  
HETATM   10  C   UNL     1     -11.275  10.393  67.900  1.00  0.00    -0.263 C  
HETATM   11  N   UNL     1     -10.161  10.516  66.927  1.00  0.00    -0.208 NA 
HETATM   12  C   UNL     1      -9.821  12.886  67.848  1.00  0.00    -0.227 C  
HETATM   13  C   UNL     1     -10.005  11.962  66.616  1.00  0.00    -0.199 C  
BRANCH  11  14
HETATM   14  C   UNL     1      -8.895   9.951  67.424  1.00  0.00    -0.132 C  
BRANCH  14  15
HETATM   15  C   UNL     1      -9.062   8.563  68.045  1.00  0.00    -0.144 C  
BRANCH  15  16
HETATM   16  C   UNL     1      -8.084   8.361  69.199  1.00  0.00    -0.119 C  
BRANCH  16  17
HETATM   17  N   UNL     1      -8.659   7.529  70.228  1.00  0.00    -0.142 N  
HETATM   18  N   UNL     1      -8.616   6.148  70.175  1.00  0.00    -0.132 NA 
HETATM   19  C   UNL     1      -9.378   5.786  71.161  1.00  0.00    -0.153 A  
HETATM   20  C   UNL     1      -9.692   4.408  71.594  1.00  0.00    -0.238 A  
HETATM   21  C   UNL     1     -10.517   4.256  72.645  1.00  0.00    -0.241 A  
HETATM   22  C   UNL     1     -11.091   5.402  73.327  1.00  0.00    -0.352 A  
HETATM   23  C   UNL     1     -10.795   6.645  72.915  1.00  0.00    -0.262 A  
HETATM   24  N   UNL     1      -9.946   6.805  71.858  1.00  0.00    -0.177 N  
HETATM   25  C   UNL     1      -9.518   7.963  71.253  1.00  0.00    -0.157 C  
HETATM   26  O   UNL     1      -9.833   9.118  71.518  1.00  0.00    -0.304 OA 
ENDBRANCH  16  17
ENDBRANCH  15  16
ENDBRANCH  14  15
ENDBRANCH  11  14
ENDBRANCH   6   8
TORSDOF 5
ENDMDL
MODEL      114
REMARK 921   NORMALIZED FREE ENERGY PREDICTED BY IDOCK:   -5.06 KCAL/MOL
REMARK 922        TOTAL FREE ENERGY PREDICTED BY IDOCK:   -7.18 KCAL/MOL
REMARK 923 INTER-LIGAND FREE ENERGY PREDICTED BY IDOCK:   -6.41 KCAL/MOL
REMARK 924 INTRA-LIGAND FREE ENERGY PREDICTED BY IDOCK:   -0.77 KCAL/MOL
REMARK 927      BINDING AFFINITY PREDICTED BY RF-SCORE:    0.00 PKD
ROOT
HETATM    1 CL   UNL     1      -9.218   4.387  64.753  1.00  0.00    -0.154 Cl 
HETATM    2  C   UNL     1      -9.435   5.282  66.209  1.00  0.00    -0.156 A  
HETATM    3  C   UNL     1      -9.683   4.609  67.399  1.00  0.00    -0.215 A  
HETATM    4  C   UNL     1      -9.863   5.340  68.567  1.00  0.00    -0.210 A  
HETATM    5  C   UNL     1      -9.812   6.738  68.530  1.00  0.00    -0.141 A  
HETATM    6  C   UNL     1      -9.589   7.442  67.336  1.00  0.00    -0.148 A  
HETATM    7  C   UNL     1      -9.382   6.677  66.178  1.00  0.00    -0.097 A  
ENDROOT
BRANCH   6   8
HETATM    8  N   UNL     1      -9.663   8.822  67.306  1.00  0.00    -0.171 NA 
HETATM    9  C   UNL     1      -9.332   9.570  66.083  1.00  0.00    -0.198 C  
HETATM   10  C   UNL     1     -10.230  10.824  65.982  1.00  0.00    -0.251 C  
HETATM   11  N   UNL     1     -10.193  11.718  67.166  1.00  0.00    -0.210 NA 
HETATM   12  C   UNL     1      -9.678   9.618  68.545  1.00  0.00    -0.150 C  
HETATM   13  C   UNL     1     -10.541  10.892  68.353  1.00  0.00    -0.194 C  
BRANCH  11  14
HETATM   14  C   UNL     1      -8.889  12.376  67.352  1.00  0.00    -0.188 C  
BRANCH  14  15
HETATM   15  C   UNL     1      -8.888  13.391  68.497  1.00  0.00    -0.068 C  
BRANCH  15  16
HETATM   16  C   UNL     1      -9.686  14.636  68.121  1.00  0.00    -0.220 C  
BRANCH  16  17
HETATM   17  N   UNL     1     -10.668  14.949  69.130  1.00  0.00    -0.245 N  
HETATM   18  N   UNL     1     -10.348  15.627  70.291  1.00  0.00    -0.274 NA 
HETATM   19  C   UNL     1     -11.436  15.549  70.994  1.00  0.00    -0.383 A  
HETATM   20  C   UNL     1     -11.680  16.117  72.338  1.00  0.00    -0.550 A  
HETATM   21  C   UNL     1     -12.887  15.910  72.894  1.00  0.00    -0.584 A  
HETATM   22  C   UNL     1     -13.915  15.148  72.207  1.00  0.00    -0.631 A  
HETATM   23  C   UNL     1     -13.671  14.638  70.989  1.00  0.00    -0.224 A  
HETATM   24  N   UNL     1     -12.451  14.857  70.414  1.00  0.00    -0.340 N  
HETATM   25  C   UNL     1     -11.971  14.424  69.201  1.00  0.00    -0.322 C  
HETATM   26  O   UNL     1     -12.531  13.714  68.374  1.00  0.00    -0.085 OA 
ENDBRANCH  16  17
ENDBRANCH  15  16
ENDBRANCH  14  15
ENDBRANCH  11  14
ENDBRANCH   6   8
TORSDOF 5
ENDMDL
MODEL      115
REMARK 921   NORMALIZED FREE ENERGY PREDICTED BY IDOCK:   -5.05 KCAL/MOL
REMARK 922        TOTAL FREE ENERGY PREDICTED BY IDOCK:   -7.16 KCAL/MOL
REMARK 923 INTER-LIGAND FREE ENERGY PREDICTED BY IDOCK:   -6.08 KCAL/MOL
REMARK 924 INTRA-LIGAND FREE ENERGY PREDICTED BY IDOCK:   -1.08 KCAL/MOL
REMARK 927      BINDING AFFINITY PREDICTED BY RF-SCORE:    0.00 PKD
ROOT
HETATM    1 CL   UNL     1     -11.628  14.859  65.454  1.00  0.00    -0.317 Cl 
HETATM    2  C   UNL     1     -11.471  13.596  66.614  1.00  0.00    -0.343 A  
HETATM    3  C   UNL     1     -11.872  13.814  67.926  1.00  0.00    -0.413 A  
HETATM    4  C   UNL     1     -11.736  12.791  68.857  1.00  0.00    -0.370 A  
HETATM    5  C   UNL     1     -11.182  11.565  68.469  1.00  0.00    -0.315 A  
HETATM    6  C   UNL     1     -10.745  11.329  67.156  1.00  0.00    -0.253 A  
HETATM    7  C   UNL     1     -10.922  12.370  66.232  1.00  0.00    -0.323 A  
ENDROOT
BRANCH   6   8
HETATM    8  N   UNL     1     -10.092  10.155  66.830  1.00  0.00    -0.210 NA 
HETATM    9  C   UNL     1     -10.278   8.938  67.635  1.00  0.00    -0.237 C  
HETATM   10  C   UNL     1     -10.213   7.694  66.720  1.00  0.00    -0.263 C  
HETATM   11  N   UNL     1      -8.987   7.589  65.891  1.00  0.00    -0.133 NA 
HETATM   12  C   UNL     1      -8.911  10.152  65.949  1.00  0.00    -0.157 C  
HETATM   13  C   UNL     1      -8.874   8.849  65.108  1.00  0.00    -0.166 C  
BRANCH  11  14
HETATM   14  C   UNL     1      -7.770   7.359  66.687  1.00  0.00    -0.101 C  
BRANCH  14  15
HETATM   15  C   UNL     1      -7.615   5.905  67.138  1.00  0.00    -0.096 C  
BRANCH  15  16
HETATM   16  C   UNL     1      -7.294   5.829  68.628  1.00  0.00    -0.084 C  
BRANCH  16  17
HETATM   17  N   UNL     1      -8.403   6.296  69.423  1.00  0.00    -0.120 N  
HETATM   18  N   UNL     1      -8.336   7.448  70.184  1.00  0.00    -0.134 NA 
HETATM   19  C   UNL     1      -9.438   7.420  70.869  1.00  0.00    -0.165 A  
HETATM   20  C   UNL     1      -9.912   8.421  71.849  1.00  0.00    -0.331 A  
HETATM   21  C   UNL     1     -11.089   8.191  72.457  1.00  0.00    -0.446 A  
HETATM   22  C   UNL     1     -11.867   6.998  72.172  1.00  0.00    -0.314 A  
HETATM   23  C   UNL     1     -11.416   6.101  71.280  1.00  0.00    -0.247 A  
HETATM   24  N   UNL     1     -10.228   6.337  70.650  1.00  0.00    -0.189 N  
HETATM   25  C   UNL     1      -9.564   5.563  69.727  1.00  0.00    -0.163 C  
HETATM   26  O   UNL     1      -9.885   4.466  69.286  1.00  0.00    -0.194 OA 
ENDBRANCH  16  17
ENDBRANCH  15  16
ENDBRANCH  14  15
ENDBRANCH  11  14
ENDBRANCH   6   8
TORSDOF 5
ENDMDL
MODEL      116
REMARK 921   NORMALIZED FREE ENERGY PREDICTED BY IDOCK:   -5.05 KCAL/MOL
REMARK 922        TOTAL FREE ENERGY PREDICTED BY IDOCK:   -7.16 KCAL/MOL
REMARK 923 INTER-LIGAND FREE ENERGY PREDICTED BY IDOCK:   -6.56 KCAL/MOL
REMARK 924 INTRA-LIGAND FREE ENERGY PREDICTED BY IDOCK:   -0.60 KCAL/MOL
REMARK 927      BINDING AFFINITY PREDICTED BY RF-SCORE:    0.00 PKD
ROOT
HETATM    1 CL   UNL     1      -6.661   7.710  63.510  1.00  0.00    -0.057 Cl 
HETATM    2  C   UNL     1      -7.901   8.905  63.542  1.00  0.00    -0.141 A  
HETATM    3  C   UNL     1      -8.360   9.452  62.351  1.00  0.00    -0.169 A  
HETATM    4  C   UNL     1      -9.357  10.420  62.388  1.00  0.00    -0.294 A  
HETATM    5  C   UNL     1      -9.873  10.843  63.618  1.00  0.00    -0.403 A  
HETATM    6  C   UNL     1      -9.408  10.324  64.836  1.00  0.00    -0.252 A  
HETATM    7  C   UNL     1      -8.422   9.328  64.768  1.00  0.00    -0.189 A  
ENDROOT
BRANCH   6   8
HETATM    8  N   UNL     1      -9.847  10.846  66.040  1.00  0.00    -0.223 NA 
HETATM    9  C   UNL     1     -10.958  10.221  66.773  1.00  0.00    -0.012 C  
HETATM   10  C   UNL     1     -10.724  10.365  68.294  1.00  0.00    -0.235 C  
HETATM   11  N   UNL     1     -10.504  11.755  68.765  1.00  0.00    -0.214 NA 
HETATM   12  C   UNL     1      -9.526  12.226  66.442  1.00  0.00    -0.237 C  
HETATM   13  C   UNL     1      -9.368  12.312  67.982  1.00  0.00    -0.195 C  
BRANCH  11  14
HETATM   14  C   UNL     1     -11.697  12.606  68.630  1.00  0.00    -0.325 C  
BRANCH  14  15
HETATM   15  C   UNL     1     -11.399  14.093  68.830  1.00  0.00    -0.308 C  
BRANCH  15  16
HETATM   16  C   UNL     1     -11.884  14.912  67.637  1.00  0.00    -0.244 C  
BRANCH  16  17
HETATM   17  N   UNL     1     -11.098  16.111  67.475  1.00  0.00    -0.236 N  
HETATM   18  N   UNL     1     -10.990  17.067  68.468  1.00  0.00    -0.302 NA 
HETATM   19  C   UNL     1     -10.366  18.041  67.880  1.00  0.00    -0.392 A  
HETATM   20  C   UNL     1      -9.961  19.334  68.471  1.00  0.00    -0.513 A  
HETATM   21  C   UNL     1      -9.325  20.213  67.676  1.00  0.00    -0.487 A  
HETATM   22  C   UNL     1      -9.053  19.911  66.282  1.00  0.00    -0.436 A  
HETATM   23  C   UNL     1      -9.433  18.732  65.764  1.00  0.00     0.355 A  
HETATM   24  N   UNL     1     -10.066  17.830  66.572  1.00  0.00    -0.343 N  
HETATM   25  C   UNL     1     -10.558  16.583  66.265  1.00  0.00    -0.223 C  
HETATM   26  O   UNL     1     -10.562  16.015  65.180  1.00  0.00    -0.485 OA 
ENDBRANCH  16  17
ENDBRANCH  15  16
ENDBRANCH  14  15
ENDBRANCH  11  14
ENDBRANCH   6   8
TORSDOF 5
ENDMDL
MODEL      117
REMARK 921   NORMALIZED FREE ENERGY PREDICTED BY IDOCK:   -5.04 KCAL/MOL
REMARK 922        TOTAL FREE ENERGY PREDICTED BY IDOCK:   -7.14 KCAL/MOL
REMARK 923 INTER-LIGAND FREE ENERGY PREDICTED BY IDOCK:   -6.48 KCAL/MOL
REMARK 924 INTRA-LIGAND FREE ENERGY PREDICTED BY IDOCK:   -0.66 KCAL/MOL
REMARK 927      BINDING AFFINITY PREDICTED BY RF-SCORE:    0.00 PKD
ROOT
HETATM    1 CL   UNL     1     -11.740  13.450  64.923  1.00  0.00    -0.358 Cl 
HETATM    2  C   UNL     1     -11.711  13.533  66.643  1.00  0.00    -0.387 A  
HETATM    3  C   UNL     1     -11.631  14.770  67.270  1.00  0.00    -0.385 A  
HETATM    4  C   UNL     1     -11.602  14.827  68.659  1.00  0.00    -0.345 A  
HETATM    5  C   UNL     1     -11.634  13.644  69.406  1.00  0.00    -0.368 A  
HETATM    6  C   UNL     1     -11.689  12.381  68.795  1.00  0.00    -0.332 A  
HETATM    7  C   UNL     1     -11.746  12.355  67.393  1.00  0.00    -0.417 A  
ENDROOT
BRANCH   6   8
HETATM    8  N   UNL     1     -11.598  11.227  69.551  1.00  0.00    -0.297 NA 
HETATM    9  C   UNL     1     -12.346  11.087  70.809  1.00  0.00    -0.398 C  
HETATM   10  C   UNL     1     -12.778   9.614  70.997  1.00  0.00    -0.271 C  
HETATM   11  N   UNL     1     -11.673   8.625  70.934  1.00  0.00    -0.276 NA 
HETATM   12  C   UNL     1     -10.487  10.277  69.371  1.00  0.00    -0.236 C  
HETATM   13  C   UNL     1     -10.973   8.828  69.637  1.00  0.00    -0.105 C  
BRANCH  11  14
HETATM   14  C   UNL     1     -10.731   8.739  72.059  1.00  0.00    -0.347 C  
BRANCH  14  15
HETATM   15  C   UNL     1     -10.955   7.678  73.138  1.00  0.00    -0.411 C  
BRANCH  15  16
HETATM   16  C   UNL     1     -11.674   6.461  72.564  1.00  0.00    -0.184 C  
BRANCH  16  17
HETATM   17  N   UNL     1     -10.847   5.282  72.648  1.00  0.00    -0.240 N  
HETATM   18  N   UNL     1     -10.564   4.657  73.848  1.00  0.00    -0.250 NA 
HETATM   19  C   UNL     1      -9.670   3.775  73.524  1.00  0.00    -0.107 A  
HETATM   20  C   UNL     1      -9.008   2.798  74.416  1.00  0.00    -0.089 A  
HETATM   21  C   UNL     1      -8.097   1.972  73.871  1.00  0.00    -0.050 A  
HETATM   22  C   UNL     1      -7.764   2.040  72.459  1.00  0.00    -0.044 A  
HETATM   23  C   UNL     1      -8.375   2.937  71.668  1.00  0.00    -0.064 A  
HETATM   24  N   UNL     1      -9.311   3.768  72.214  1.00  0.00    -0.117 N  
HETATM   25  C   UNL     1     -10.044   4.765  71.615  1.00  0.00    -0.194 C  
HETATM   26  O   UNL     1      -9.993   5.149  70.452  1.00  0.00    -0.207 OA 
ENDBRANCH  16  17
ENDBRANCH  15  16
ENDBRANCH  14  15
ENDBRANCH  11  14
ENDBRANCH   6   8
TORSDOF 5
ENDMDL
MODEL      118
REMARK 921   NORMALIZED FREE ENERGY PREDICTED BY IDOCK:   -5.02 KCAL/MOL
REMARK 922        TOTAL FREE ENERGY PREDICTED BY IDOCK:   -7.12 KCAL/MOL
REMARK 923 INTER-LIGAND FREE ENERGY PREDICTED BY IDOCK:   -6.30 KCAL/MOL
REMARK 924 INTRA-LIGAND FREE ENERGY PREDICTED BY IDOCK:   -0.82 KCAL/MOL
REMARK 927      BINDING AFFINITY PREDICTED BY RF-SCORE:    0.00 PKD
ROOT
HETATM    1 CL   UNL     1     -12.008  16.678  72.460  1.00  0.00    -0.437 Cl 
HETATM    2  C   UNL     1     -12.223  15.198  71.605  1.00  0.00    -0.345 A  
HETATM    3  C   UNL     1     -12.808  14.113  72.246  1.00  0.00    -0.415 A  
HETATM    4  C   UNL     1     -12.971  12.921  71.549  1.00  0.00    -0.388 A  
HETATM    5  C   UNL     1     -12.531  12.821  70.225  1.00  0.00    -0.176 A  
HETATM    6  C   UNL     1     -11.914  13.895  69.564  1.00  0.00    -0.343 A  
HETATM    7  C   UNL     1     -11.788  15.094  70.282  1.00  0.00    -0.352 A  
ENDROOT
BRANCH   6   8
HETATM    8  N   UNL     1     -11.380  13.733  68.299  1.00  0.00    -0.268 NA 
HETATM    9  C   UNL     1     -12.183  14.013  67.099  1.00  0.00    -0.321 C  
HETATM   10  C   UNL     1     -11.272  14.581  65.986  1.00  0.00    -0.337 C  
HETATM   11  N   UNL     1     -10.100  13.738  65.644  1.00  0.00    -0.308 NA 
HETATM   12  C   UNL     1     -10.175  12.917  68.073  1.00  0.00    -0.229 C  
HETATM   13  C   UNL     1      -9.343  13.505  66.903  1.00  0.00    -0.253 C  
BRANCH  11  14
HETATM   14  C   UNL     1     -10.472  12.460  65.015  1.00  0.00    -0.294 C  
BRANCH  14  15
HETATM   15  C   UNL     1      -9.331  11.441  65.010  1.00  0.00    -0.158 C  
BRANCH  15  16
HETATM   16  C   UNL     1      -9.865  10.026  65.214  1.00  0.00    -0.318 C  
BRANCH  16  17
HETATM   17  N   UNL     1      -9.361   9.452  66.437  1.00  0.00    -0.173 N  
HETATM   18  N   UNL     1      -8.137   8.813  66.508  1.00  0.00    -0.102 NA 
HETATM   19  C   UNL     1      -8.137   8.295  67.698  1.00  0.00    -0.126 A  
HETATM   20  C   UNL     1      -7.061   7.503  68.332  1.00  0.00    -0.081 A  
HETATM   21  C   UNL     1      -7.272   7.051  69.581  1.00  0.00    -0.080 A  
HETATM   22  C   UNL     1      -8.514   7.320  70.283  1.00  0.00    -0.137 A  
HETATM   23  C   UNL     1      -9.479   8.039  69.687  1.00  0.00    -0.163 A  
HETATM   24  N   UNL     1      -9.264   8.512  68.424  1.00  0.00    -0.135 N  
HETATM   25  C   UNL     1     -10.101   9.244  67.615  1.00  0.00    -0.214 C  
HETATM   26  O   UNL     1     -11.248   9.611  67.845  1.00  0.00    -0.143 OA 
ENDBRANCH  16  17
ENDBRANCH  15  16
ENDBRANCH  14  15
ENDBRANCH  11  14
ENDBRANCH   6   8
TORSDOF 5
ENDMDL
MODEL      119
REMARK 921   NORMALIZED FREE ENERGY PREDICTED BY IDOCK:   -5.01 KCAL/MOL
REMARK 922        TOTAL FREE ENERGY PREDICTED BY IDOCK:   -7.11 KCAL/MOL
REMARK 923 INTER-LIGAND FREE ENERGY PREDICTED BY IDOCK:   -5.90 KCAL/MOL
REMARK 924 INTRA-LIGAND FREE ENERGY PREDICTED BY IDOCK:   -1.22 KCAL/MOL
REMARK 927      BINDING AFFINITY PREDICTED BY RF-SCORE:    0.00 PKD
ROOT
HETATM    1 CL   UNL     1     -12.218  13.948  67.053  1.00  0.00    -0.441 Cl 
HETATM    2  C   UNL     1     -11.532  12.377  67.216  1.00  0.00    -0.354 A  
HETATM    3  C   UNL     1     -10.864  11.804  66.142  1.00  0.00    -0.336 A  
HETATM    4  C   UNL     1     -10.319  10.532  66.282  1.00  0.00    -0.276 A  
HETATM    5  C   UNL     1     -10.465   9.840  67.489  1.00  0.00    -0.309 A  
HETATM    6  C   UNL     1     -11.159  10.387  68.580  1.00  0.00    -0.266 A  
HETATM    7  C   UNL     1     -11.673  11.683  68.420  1.00  0.00    -0.374 A  
ENDROOT
BRANCH   6   8
HETATM    8  N   UNL     1     -11.393   9.635  69.717  1.00  0.00    -0.174 NA 
HETATM    9  C   UNL     1     -11.781  10.279  70.981  1.00  0.00    -0.370 C  
HETATM   10  C   UNL     1     -12.750   9.357  71.758  1.00  0.00    -0.390 C  
HETATM   11  N   UNL     1     -12.244   7.983  72.005  1.00  0.00    -0.316 NA 
HETATM   12  C   UNL     1     -10.894   8.255  69.841  1.00  0.00    -0.213 C  
HETATM   13  C   UNL     1     -11.879   7.404  70.684  1.00  0.00    -0.215 C  
BRANCH  11  14
HETATM   14  C   UNL     1     -11.096   7.948  72.925  1.00  0.00    -0.379 C  
BRANCH  14  15
HETATM   15  C   UNL     1     -10.277   6.661  72.812  1.00  0.00    -0.208 C  
BRANCH  15  16
HETATM   16  C   UNL     1      -8.801   6.928  73.091  1.00  0.00    -0.123 C  
BRANCH  16  17
HETATM   17  N   UNL     1      -8.165   7.560  71.961  1.00  0.00    -0.100 N  
HETATM   18  N   UNL     1      -8.122   8.933  71.805  1.00  0.00    -0.350 NA 
HETATM   19  C   UNL     1      -7.640   9.085  70.610  1.00  0.00    -0.119 A  
HETATM   20  C   UNL     1      -7.358  10.357  69.911  1.00  0.00    -0.149 A  
HETATM   21  C   UNL     1      -6.863  10.287  68.662  1.00  0.00    -0.057 A  
HETATM   22  C   UNL     1      -6.621   9.009  68.015  1.00  0.00    -0.061 A  
HETATM   23  C   UNL     1      -6.886   7.866  68.668  1.00  0.00    -0.063 A  
HETATM   24  N   UNL     1      -7.376   7.932  69.942  1.00  0.00    -0.073 N  
HETATM   25  C   UNL     1      -7.736   6.911  70.789  1.00  0.00    -0.092 C  
HETATM   26  O   UNL     1      -7.724   5.705  70.571  1.00  0.00    -0.089 OA 
ENDBRANCH  16  17
ENDBRANCH  15  16
ENDBRANCH  14  15
ENDBRANCH  11  14
ENDBRANCH   6   8
TORSDOF 5
ENDMDL
MODEL      120
REMARK 921   NORMALIZED FREE ENERGY PREDICTED BY IDOCK:   -5.01 KCAL/MOL
REMARK 922        TOTAL FREE ENERGY PREDICTED BY IDOCK:   -7.11 KCAL/MOL
REMARK 923 INTER-LIGAND FREE ENERGY PREDICTED BY IDOCK:   -6.64 KCAL/MOL
REMARK 924 INTRA-LIGAND FREE ENERGY PREDICTED BY IDOCK:   -0.47 KCAL/MOL
REMARK 927      BINDING AFFINITY PREDICTED BY RF-SCORE:    0.00 PKD
ROOT
HETATM    1 CL   UNL     1     -11.302  14.715  68.516  1.00  0.00    -0.288 Cl 
HETATM    2  C   UNL     1     -12.110  13.988  69.852  1.00  0.00    -0.345 A  
HETATM    3  C   UNL     1     -12.793  14.787  70.760  1.00  0.00    -0.418 A  
HETATM    4  C   UNL     1     -13.436  14.191  71.839  1.00  0.00    -0.489 A  
HETATM    5  C   UNL     1     -13.375  12.804  72.008  1.00  0.00    -0.565 A  
HETATM    6  C   UNL     1     -12.669  11.978  71.119  1.00  0.00    -0.266 A  
HETATM    7  C   UNL     1     -12.054  12.602  70.024  1.00  0.00    -0.339 A  
ENDROOT
BRANCH   6   8
HETATM    8  N   UNL     1     -12.523  10.626  71.376  1.00  0.00    -0.387 NA 
HETATM    9  C   UNL     1     -11.302   9.910  70.977  1.00  0.00    -0.386 C  
HETATM   10  C   UNL     1     -10.984   8.808  72.013  1.00  0.00    -0.368 C  
HETATM   11  N   UNL     1     -12.090   7.852  72.270  1.00  0.00    -0.325 NA 
HETATM   12  C   UNL     1     -13.683   9.772  71.677  1.00  0.00    -0.205 C  
HETATM   13  C   UNL     1     -13.279   8.650  72.669  1.00  0.00    -0.219 C  
BRANCH  11  14
HETATM   14  C   UNL     1     -12.399   7.002  71.108  1.00  0.00    -0.378 C  
BRANCH  14  15
HETATM   15  C   UNL     1     -11.155   6.601  70.312  1.00  0.00    -0.379 C  
BRANCH  15  16
HETATM   16  C   UNL     1     -11.504   6.353  68.847  1.00  0.00    -0.060 C  
BRANCH  16  17
HETATM   17  N   UNL     1     -10.329   6.425  68.014  1.00  0.00    -0.171 N  
HETATM   18  N   UNL     1      -9.884   7.611  67.460  1.00  0.00    -0.154 NA 
HETATM   19  C   UNL     1      -8.938   7.231  66.656  1.00  0.00    -0.150 A  
HETATM   20  C   UNL     1      -8.089   8.087  65.801  1.00  0.00    -0.121 A  
HETATM   21  C   UNL     1      -7.166   7.482  65.032  1.00  0.00    -0.066 A  
HETATM   22  C   UNL     1      -7.011   6.038  65.031  1.00  0.00    -0.059 A  
HETATM   23  C   UNL     1      -7.795   5.280  65.813  1.00  0.00    -0.099 A  
HETATM   24  N   UNL     1      -8.725   5.890  66.607  1.00  0.00    -0.119 N  
HETATM   25  C   UNL     1      -9.641   5.328  67.464  1.00  0.00    -0.134 C  
HETATM   26  O   UNL     1      -9.844   4.140  67.684  1.00  0.00    -0.154 OA 
ENDBRANCH  16  17
ENDBRANCH  15  16
ENDBRANCH  14  15
ENDBRANCH  11  14
ENDBRANCH   6   8
TORSDOF 5
ENDMDL
MODEL      121
REMARK 921   NORMALIZED FREE ENERGY PREDICTED BY IDOCK:   -5.01 KCAL/MOL
REMARK 922        TOTAL FREE ENERGY PREDICTED BY IDOCK:   -7.11 KCAL/MOL
REMARK 923 INTER-LIGAND FREE ENERGY PREDICTED BY IDOCK:   -6.66 KCAL/MOL
REMARK 924 INTRA-LIGAND FREE ENERGY PREDICTED BY IDOCK:   -0.45 KCAL/MOL
REMARK 927      BINDING AFFINITY PREDICTED BY RF-SCORE:    0.00 PKD
ROOT
HETATM    1 CL   UNL     1      -6.147   8.342  66.225  1.00  0.00    -0.048 Cl 
HETATM    2  C   UNL     1      -7.833   8.396  66.575  1.00  0.00    -0.092 A  
HETATM    3  C   UNL     1      -8.621   7.279  66.329  1.00  0.00    -0.147 A  
HETATM    4  C   UNL     1      -9.982   7.334  66.609  1.00  0.00    -0.246 A  
HETATM    5  C   UNL     1     -10.543   8.512  67.115  1.00  0.00    -0.314 A  
HETATM    6  C   UNL     1      -9.771   9.662  67.347  1.00  0.00    -0.156 A  
HETATM    7  C   UNL     1      -8.397   9.568  67.083  1.00  0.00    -0.131 A  
ENDROOT
BRANCH   6   8
HETATM    8  N   UNL     1     -10.370  10.848  67.732  1.00  0.00    -0.179 NA 
HETATM    9  C   UNL     1     -10.521  11.960  66.782  1.00  0.00    -0.221 C  
HETATM   10  C   UNL     1     -11.834  12.722  67.077  1.00  0.00    -0.361 C  
HETATM   11  N   UNL     1     -11.977  13.205  68.473  1.00  0.00    -0.331 NA 
HETATM   12  C   UNL     1     -10.515  11.210  69.152  1.00  0.00    -0.182 C  
HETATM   13  C   UNL     1     -11.816  12.026  69.366  1.00  0.00    -0.324 C  
BRANCH  11  14
HETATM   14  C   UNL     1     -11.010  14.258  68.822  1.00  0.00    -0.255 C  
BRANCH  14  15
HETATM   15  C   UNL     1     -11.455  15.652  68.375  1.00  0.00    -0.374 C  
BRANCH  15  16
HETATM   16  C   UNL     1     -10.780  16.046  67.065  1.00  0.00    -0.277 C  
BRANCH  16  17
HETATM   17  N   UNL     1      -9.738  17.019  67.289  1.00  0.00    -0.247 N  
HETATM   18  N   UNL     1      -8.725  16.822  68.208  1.00  0.00    -0.219 NA 
HETATM   19  C   UNL     1      -8.119  17.969  68.237  1.00  0.00    -0.291 A  
HETATM   20  C   UNL     1      -6.936  18.339  69.042  1.00  0.00    -0.266 A  
HETATM   21  C   UNL     1      -6.469  19.595  68.926  1.00  0.00    -0.334 A  
HETATM   22  C   UNL     1      -7.107  20.561  68.049  1.00  0.00    -0.273 A  
HETATM   23  C   UNL     1      -8.183  20.204  67.329  1.00  0.00    -0.336 A  
HETATM   24  N   UNL     1      -8.652  18.925  67.433  1.00  0.00    -0.272 N  
HETATM   25  C   UNL     1      -9.735  18.344  66.817  1.00  0.00    -0.326 C  
HETATM   26  O   UNL     1     -10.542  18.861  66.054  1.00  0.00    -0.457 OA 
ENDBRANCH  16  17
ENDBRANCH  15  16
ENDBRANCH  14  15
ENDBRANCH  11  14
ENDBRANCH   6   8
TORSDOF 5
ENDMDL
MODEL      122
REMARK 921   NORMALIZED FREE ENERGY PREDICTED BY IDOCK:   -5.00 KCAL/MOL
REMARK 922        TOTAL FREE ENERGY PREDICTED BY IDOCK:   -7.10 KCAL/MOL
REMARK 923 INTER-LIGAND FREE ENERGY PREDICTED BY IDOCK:   -7.29 KCAL/MOL
REMARK 924 INTRA-LIGAND FREE ENERGY PREDICTED BY IDOCK:    0.19 KCAL/MOL
REMARK 927      BINDING AFFINITY PREDICTED BY RF-SCORE:    0.00 PKD
ROOT
HETATM    1 CL   UNL     1      -6.551   9.074  66.115  1.00  0.00    -0.065 Cl 
HETATM    2  C   UNL     1      -8.163   9.392  66.634  1.00  0.00    -0.112 A  
HETATM    3  C   UNL     1      -8.806   8.488  67.470  1.00  0.00    -0.139 A  
HETATM    4  C   UNL     1     -10.109   8.751  67.879  1.00  0.00    -0.257 A  
HETATM    5  C   UNL     1     -10.760   9.906  67.432  1.00  0.00    -0.323 A  
HETATM    6  C   UNL     1     -10.140  10.821  66.567  1.00  0.00    -0.228 A  
HETATM    7  C   UNL     1      -8.816  10.545  66.193  1.00  0.00    -0.172 A  
ENDROOT
BRANCH   6   8
HETATM    8  N   UNL     1     -10.847  11.889  66.044  1.00  0.00    -0.288 NA 
HETATM    9  C   UNL     1     -11.309  11.879  64.648  1.00  0.00    -0.293 C  
HETATM   10  C   UNL     1     -12.662  12.620  64.543  1.00  0.00    -0.357 C  
HETATM   11  N   UNL     1     -12.662  14.003  65.083  1.00  0.00    -0.685 NA 
HETATM   12  C   UNL     1     -10.827  13.213  66.691  1.00  0.00    -0.280 C  
HETATM   13  C   UNL     1     -12.189  13.926  66.491  1.00  0.00    -0.442 C  
BRANCH  11  14
HETATM   14  C   UNL     1     -11.825  14.928  64.301  1.00  0.00    -0.297 C  
BRANCH  14  15
HETATM   15  C   UNL     1     -10.682  15.536  65.117  1.00  0.00    -0.460 C  
BRANCH  15  16
HETATM   16  C   UNL     1     -10.887  17.036  65.306  1.00  0.00    -0.071 C  
BRANCH  16  17
HETATM   17  N   UNL     1      -9.840  17.605  66.119  1.00  0.00    -0.276 N  
HETATM   18  N   UNL     1      -8.909  16.827  66.781  1.00  0.00    -0.215 NA 
HETATM   19  C   UNL     1      -8.275  17.683  67.522  1.00  0.00    -0.216 A  
HETATM   20  C   UNL     1      -7.150  17.413  68.443  1.00  0.00    -0.212 A  
HETATM   21  C   UNL     1      -6.639  18.453  69.127  1.00  0.00    -0.280 A  
HETATM   22  C   UNL     1      -7.178  19.793  68.978  1.00  0.00    -0.340 A  
HETATM   23  C   UNL     1      -8.202  20.015  68.139  1.00  0.00    -0.188 A  
HETATM   24  N   UNL     1      -8.714  18.965  67.431  1.00  0.00    -0.272 N  
HETATM   25  C   UNL     1      -9.761  18.945  66.539  1.00  0.00    -0.358 C  
HETATM   26  O   UNL     1     -10.489  19.872  66.204  1.00  0.00    -0.470 OA 
ENDBRANCH  16  17
ENDBRANCH  15  16
ENDBRANCH  14  15
ENDBRANCH  11  14
ENDBRANCH   6   8
TORSDOF 5
ENDMDL
MODEL      123
REMARK 921   NORMALIZED FREE ENERGY PREDICTED BY IDOCK:   -5.00 KCAL/MOL
REMARK 922        TOTAL FREE ENERGY PREDICTED BY IDOCK:   -7.10 KCAL/MOL
REMARK 923 INTER-LIGAND FREE ENERGY PREDICTED BY IDOCK:   -6.75 KCAL/MOL
REMARK 924 INTRA-LIGAND FREE ENERGY PREDICTED BY IDOCK:   -0.35 KCAL/MOL
REMARK 927      BINDING AFFINITY PREDICTED BY RF-SCORE:    0.00 PKD
ROOT
HETATM    1 CL   UNL     1     -10.566  16.622  65.769  1.00  0.00    -0.323 Cl 
HETATM    2  C   UNL     1     -11.077  14.983  65.627  1.00  0.00    -0.349 A  
HETATM    3  C   UNL     1     -11.846  14.595  64.537  1.00  0.00    -0.442 A  
HETATM    4  C   UNL     1     -12.258  13.271  64.435  1.00  0.00    -0.449 A  
HETATM    5  C   UNL     1     -11.912  12.353  65.433  1.00  0.00    -0.457 A  
HETATM    6  C   UNL     1     -11.158  12.727  66.556  1.00  0.00    -0.286 A  
HETATM    7  C   UNL     1     -10.731  14.062  66.619  1.00  0.00    -0.281 A  
ENDROOT
BRANCH   6   8
HETATM    8  N   UNL     1     -10.933  11.832  67.586  1.00  0.00    -0.219 NA 
HETATM    9  C   UNL     1      -9.725  10.993  67.607  1.00  0.00    -0.168 C  
HETATM   10  C   UNL     1      -9.269  10.774  69.068  1.00  0.00    -0.146 C  
HETATM   11  N   UNL     1     -10.307  10.218  69.972  1.00  0.00    -0.244 NA 
HETATM   12  C   UNL     1     -12.025  11.383  68.466  1.00  0.00    -0.225 C  
HETATM   13  C   UNL     1     -11.487  11.121  69.897  1.00  0.00    -0.306 C  
BRANCH  11  14
HETATM   14  C   UNL     1     -10.685   8.836  69.634  1.00  0.00    -0.208 C  
BRANCH  14  15
HETATM   15  C   UNL     1     -11.086   8.009  70.857  1.00  0.00    -0.271 C  
BRANCH  15  16
HETATM   16  C   UNL     1     -11.759   6.706  70.436  1.00  0.00    -0.386 C  
BRANCH  16  17
HETATM   17  N   UNL     1     -10.910   5.944  69.553  1.00  0.00    -0.351 N  
HETATM   18  N   UNL     1     -10.983   6.052  68.177  1.00  0.00    -0.294 NA 
HETATM   19  C   UNL     1     -10.209   5.099  67.759  1.00  0.00    -0.132 A  
HETATM   20  C   UNL     1      -9.891   4.749  66.357  1.00  0.00    -0.236 A  
HETATM   21  C   UNL     1      -9.063   3.711  66.145  1.00  0.00    -0.155 A  
HETATM   22  C   UNL     1      -8.506   2.950  67.249  1.00  0.00    -0.105 A  
HETATM   23  C   UNL     1      -8.809   3.284  68.513  1.00  0.00    -0.117 A  
HETATM   24  N   UNL     1      -9.639   4.346  68.735  1.00  0.00    -0.161 N  
HETATM   25  C   UNL     1     -10.101   4.855  69.926  1.00  0.00    -0.262 C  
HETATM   26  O   UNL     1      -9.890   4.442  71.060  1.00  0.00    -0.177 OA 
ENDBRANCH  16  17
ENDBRANCH  15  16
ENDBRANCH  14  15
ENDBRANCH  11  14
ENDBRANCH   6   8
TORSDOF 5
ENDMDL
MODEL      124
REMARK 921   NORMALIZED FREE ENERGY PREDICTED BY IDOCK:   -4.99 KCAL/MOL
REMARK 922        TOTAL FREE ENERGY PREDICTED BY IDOCK:   -7.08 KCAL/MOL
REMARK 923 INTER-LIGAND FREE ENERGY PREDICTED BY IDOCK:   -6.33 KCAL/MOL
REMARK 924 INTRA-LIGAND FREE ENERGY PREDICTED BY IDOCK:   -0.75 KCAL/MOL
REMARK 927      BINDING AFFINITY PREDICTED BY RF-SCORE:    0.00 PKD
ROOT
HETATM    1 CL   UNL     1     -12.352  15.811  70.359  1.00  0.00    -0.407 Cl 
HETATM    2  C   UNL     1     -11.118  15.652  69.168  1.00  0.00    -0.284 A  
HETATM    3  C   UNL     1     -10.943  16.654  68.222  1.00  0.00    -0.341 A  
HETATM    4  C   UNL     1      -9.948  16.513  67.261  1.00  0.00    -0.264 A  
HETATM    5  C   UNL     1      -9.150  15.364  67.246  1.00  0.00    -0.218 A  
HETATM    6  C   UNL     1      -9.325  14.327  68.175  1.00  0.00    -0.206 A  
HETATM    7  C   UNL     1     -10.317  14.508  69.151  1.00  0.00    -0.197 A  
ENDROOT
BRANCH   6   8
HETATM    8  N   UNL     1      -8.605  13.150  68.064  1.00  0.00    -0.173 NA 
HETATM    9  C   UNL     1      -7.633  12.960  66.977  1.00  0.00     0.070 C  
HETATM   10  C   UNL     1      -6.450  12.103  67.483  1.00  0.00    -0.134 C  
HETATM   11  N   UNL     1      -6.830  10.798  68.077  1.00  0.00    -0.067 NA 
HETATM   12  C   UNL     1      -9.040  11.917  68.743  1.00  0.00     0.051 C  
HETATM   13  C   UNL     1      -7.807  11.076  69.164  1.00  0.00    -0.091 C  
BRANCH  11  14
HETATM   14  C   UNL     1      -7.397   9.860  67.095  1.00  0.00    -0.091 C  
BRANCH  14  15
HETATM   15  C   UNL     1      -8.600   9.082  67.633  1.00  0.00    -0.120 C  
BRANCH  15  16
HETATM   16  C   UNL     1      -9.640   8.862  66.539  1.00  0.00    -0.232 C  
BRANCH  16  17
HETATM   17  N   UNL     1     -10.141  10.119  66.038  1.00  0.00    -0.255 N  
HETATM   18  N   UNL     1     -10.909  10.971  66.808  1.00  0.00    -0.268 NA 
HETATM   19  C   UNL     1     -11.298  11.874  65.961  1.00  0.00    -0.316 A  
HETATM   20  C   UNL     1     -12.142  13.057  66.233  1.00  0.00    -0.453 A  
HETATM   21  C   UNL     1     -12.434  13.867  65.199  1.00  0.00    -0.479 A  
HETATM   22  C   UNL     1     -11.949  13.587  63.859  1.00  0.00    -0.491 A  
HETATM   23  C   UNL     1     -11.187  12.505  63.634  1.00  0.00    -0.483 A  
HETATM   24  N   UNL     1     -10.875  11.688  64.683  1.00  0.00    -0.307 N  
HETATM   25  C   UNL     1     -10.137  10.528  64.692  1.00  0.00    -0.338 C  
HETATM   26  O   UNL     1      -9.616   9.953  63.744  1.00  0.00    -0.237 OA 
ENDBRANCH  16  17
ENDBRANCH  15  16
ENDBRANCH  14  15
ENDBRANCH  11  14
ENDBRANCH   6   8
TORSDOF 5
ENDMDL
MODEL      125
REMARK 921   NORMALIZED FREE ENERGY PREDICTED BY IDOCK:   -4.98 KCAL/MOL
REMARK 922        TOTAL FREE ENERGY PREDICTED BY IDOCK:   -7.07 KCAL/MOL
REMARK 923 INTER-LIGAND FREE ENERGY PREDICTED BY IDOCK:   -6.60 KCAL/MOL
REMARK 924 INTRA-LIGAND FREE ENERGY PREDICTED BY IDOCK:   -0.46 KCAL/MOL
REMARK 927      BINDING AFFINITY PREDICTED BY RF-SCORE:    0.00 PKD
ROOT
HETATM    1 CL   UNL     1     -14.410  14.081  72.145  1.00  0.00    -0.626 Cl 
HETATM    2  C   UNL     1     -13.008  14.603  71.292  1.00  0.00    -0.339 A  
HETATM    3  C   UNL     1     -12.392  15.797  71.646  1.00  0.00    -0.521 A  
HETATM    4  C   UNL     1     -11.265  16.213  70.947  1.00  0.00    -0.329 A  
HETATM    5  C   UNL     1     -10.776  15.439  69.888  1.00  0.00    -0.315 A  
HETATM    6  C   UNL     1     -11.395  14.242  69.495  1.00  0.00    -0.269 A  
HETATM    7  C   UNL     1     -12.514  13.832  70.237  1.00  0.00    -0.357 A  
ENDROOT
BRANCH   6   8
HETATM    8  N   UNL     1     -10.965  13.560  68.371  1.00  0.00    -0.256 NA 
HETATM    9  C   UNL     1     -11.327  12.151  68.159  1.00  0.00    -0.293 C  
HETATM   10  C   UNL     1     -11.509  11.883  66.647  1.00  0.00    -0.314 C  
HETATM   11  N   UNL     1     -10.349  12.258  65.800  1.00  0.00    -0.252 NA 
HETATM   12  C   UNL     1      -9.835  14.048  67.563  1.00  0.00    -0.236 C  
HETATM   13  C   UNL     1     -10.051  13.690  66.069  1.00  0.00    -0.312 C  
BRANCH  11  14
HETATM   14  C   UNL     1      -9.162  11.423  66.045  1.00  0.00    -0.214 C  
BRANCH  14  15
HETATM   15  C   UNL     1      -9.496   9.938  66.206  1.00  0.00    -0.245 C  
BRANCH  15  16
HETATM   16  C   UNL     1      -8.320   9.178  66.812  1.00  0.00    -0.123 C  
BRANCH  16  17
HETATM   17  N   UNL     1      -8.728   7.873  67.273  1.00  0.00    -0.130 N  
HETATM   18  N   UNL     1      -9.050   7.620  68.593  1.00  0.00    -0.136 NA 
HETATM   19  C   UNL     1      -9.180   6.330  68.629  1.00  0.00    -0.124 A  
HETATM   20  C   UNL     1      -9.539   5.495  69.795  1.00  0.00    -0.215 A  
HETATM   21  C   UNL     1      -9.613   4.165  69.613  1.00  0.00    -0.277 A  
HETATM   22  C   UNL     1      -9.340   3.563  68.320  1.00  0.00    -0.235 A  
HETATM   23  C   UNL     1      -9.013   4.339  67.274  1.00  0.00    -0.124 A  
HETATM   24  N   UNL     1      -8.951   5.692  67.451  1.00  0.00    -0.109 N  
HETATM   25  C   UNL     1      -8.623   6.674  66.546  1.00  0.00    -0.124 C  
HETATM   26  O   UNL     1      -8.281   6.543  65.376  1.00  0.00    -0.127 OA 
ENDBRANCH  16  17
ENDBRANCH  15  16
ENDBRANCH  14  15
ENDBRANCH  11  14
ENDBRANCH   6   8
TORSDOF 5
ENDMDL
MODEL      126
REMARK 921   NORMALIZED FREE ENERGY PREDICTED BY IDOCK:   -4.96 KCAL/MOL
REMARK 922        TOTAL FREE ENERGY PREDICTED BY IDOCK:   -7.04 KCAL/MOL
REMARK 923 INTER-LIGAND FREE ENERGY PREDICTED BY IDOCK:   -6.08 KCAL/MOL
REMARK 924 INTRA-LIGAND FREE ENERGY PREDICTED BY IDOCK:   -0.96 KCAL/MOL
REMARK 927      BINDING AFFINITY PREDICTED BY RF-SCORE:    0.00 PKD
ROOT
HETATM    1 CL   UNL     1     -10.798   2.969  63.294  1.00  0.00    -0.231 Cl 
HETATM    2  C   UNL     1      -9.843   4.046  64.239  1.00  0.00    -0.172 A  
HETATM    3  C   UNL     1      -8.863   4.815  63.625  1.00  0.00    -0.104 A  
HETATM    4  C   UNL     1      -8.093   5.677  64.397  1.00  0.00    -0.128 A  
HETATM    5  C   UNL     1      -8.301   5.749  65.780  1.00  0.00    -0.134 A  
HETATM    6  C   UNL     1      -9.268   4.963  66.427  1.00  0.00    -0.138 A  
HETATM    7  C   UNL     1     -10.049   4.123  65.619  1.00  0.00    -0.189 A  
ENDROOT
BRANCH   6   8
HETATM    8  N   UNL     1      -9.369   4.964  67.806  1.00  0.00    -0.125 NA 
HETATM    9  C   UNL     1      -9.702   6.195  68.539  1.00  0.00    -0.127 C  
HETATM   10  C   UNL     1     -10.551   5.846  69.783  1.00  0.00    -0.303 C  
HETATM   11  N   UNL     1      -9.945   4.844  70.694  1.00  0.00    -0.220 NA 
HETATM   12  C   UNL     1      -8.778   3.888  68.620  1.00  0.00    -0.100 C  
HETATM   13  C   UNL     1      -9.643   3.635  69.882  1.00  0.00    -0.168 C  
BRANCH  11  14
HETATM   14  C   UNL     1      -8.731   5.336  71.367  1.00  0.00    -0.130 C  
BRANCH  14  15
HETATM   15  C   UNL     1      -8.896   5.461  72.883  1.00  0.00    -0.121 C  
BRANCH  15  16
HETATM   16  C   UNL     1      -8.658   6.898  73.340  1.00  0.00    -0.125 C  
BRANCH  16  17
HETATM   17  N   UNL     1      -9.696   7.776  72.857  1.00  0.00    -0.223 N  
HETATM   18  N   UNL     1     -11.033   7.569  73.139  1.00  0.00    -0.392 NA 
HETATM   19  C   UNL     1     -11.636   8.443  72.393  1.00  0.00    -0.380 A  
HETATM   20  C   UNL     1     -13.091   8.689  72.296  1.00  0.00    -0.415 A  
HETATM   21  C   UNL     1     -13.507   9.646  71.447  1.00  0.00    -0.403 A  
HETATM   22  C   UNL     1     -12.565  10.406  70.644  1.00  0.00    -0.435 A  
HETATM   23  C   UNL     1     -11.249  10.164  70.746  1.00  0.00    -0.336 A  
HETATM   24  N   UNL     1     -10.820   9.203  71.618  1.00  0.00    -0.360 N  
HETATM   25  C   UNL     1      -9.540   8.771  71.875  1.00  0.00    -0.302 C  
HETATM   26  O   UNL     1      -8.496   9.140  71.351  1.00  0.00    -0.317 OA 
ENDBRANCH  16  17
ENDBRANCH  15  16
ENDBRANCH  14  15
ENDBRANCH  11  14
ENDBRANCH   6   8
TORSDOF 5
ENDMDL
MODEL      127
REMARK 921   NORMALIZED FREE ENERGY PREDICTED BY IDOCK:   -4.96 KCAL/MOL
REMARK 922        TOTAL FREE ENERGY PREDICTED BY IDOCK:   -7.04 KCAL/MOL
REMARK 923 INTER-LIGAND FREE ENERGY PREDICTED BY IDOCK:   -6.31 KCAL/MOL
REMARK 924 INTRA-LIGAND FREE ENERGY PREDICTED BY IDOCK:   -0.72 KCAL/MOL
REMARK 927      BINDING AFFINITY PREDICTED BY RF-SCORE:    0.00 PKD
ROOT
HETATM    1 CL   UNL     1     -13.983   7.227  71.346  1.00  0.00    -0.480 Cl 
HETATM    2  C   UNL     1     -12.300   6.861  71.387  1.00  0.00    -0.376 A  
HETATM    3  C   UNL     1     -11.815   5.964  72.329  1.00  0.00    -0.266 A  
HETATM    4  C   UNL     1     -10.454   5.680  72.357  1.00  0.00    -0.255 A  
HETATM    5  C   UNL     1      -9.591   6.310  71.454  1.00  0.00    -0.170 A  
HETATM    6  C   UNL     1     -10.054   7.240  70.510  1.00  0.00    -0.191 A  
HETATM    7  C   UNL     1     -11.435   7.486  70.485  1.00  0.00    -0.259 A  
ENDROOT
BRANCH   6   8
HETATM    8  N   UNL     1      -9.166   7.938  69.712  1.00  0.00    -0.150 NA 
HETATM    9  C   UNL     1      -7.732   7.981  70.037  1.00  0.00    -0.088 C  
HETATM   10  C   UNL     1      -6.904   8.018  68.731  1.00  0.00    -0.062 C  
HETATM   11  N   UNL     1      -7.260   9.112  67.794  1.00  0.00    -0.079 NA 
HETATM   12  C   UNL     1      -9.628   8.971  68.769  1.00  0.00    -0.152 C  
HETATM   13  C   UNL     1      -8.717   8.997  67.515  1.00  0.00    -0.119 C  
BRANCH  11  14
HETATM   14  C   UNL     1      -6.934  10.449  68.318  1.00  0.00    -0.070 C  
BRANCH  14  15
HETATM   15  C   UNL     1      -7.059  11.552  67.265  1.00  0.00    -0.128 C  
BRANCH  15  16
HETATM   16  C   UNL     1      -7.907  12.708  67.786  1.00  0.00    -0.154 C  
BRANCH  16  17
HETATM   17  N   UNL     1      -9.041  12.949  66.927  1.00  0.00    -0.224 N  
HETATM   18  N   UNL     1      -9.451  12.042  65.968  1.00  0.00    -0.234 NA 
HETATM   19  C   UNL     1     -10.360  12.692  65.309  1.00  0.00    -0.289 A  
HETATM   20  C   UNL     1     -11.162  12.204  64.167  1.00  0.00    -0.433 A  
HETATM   21  C   UNL     1     -12.052  13.052  63.620  1.00  0.00    -0.604 A  
HETATM   22  C   UNL     1     -12.215  14.404  64.124  1.00  0.00    -0.393 A  
HETATM   23  C   UNL     1     -11.474  14.827  65.160  1.00  0.00    -0.371 A  
HETATM   24  N   UNL     1     -10.579  13.965  65.728  1.00  0.00    -0.290 N  
HETATM   25  C   UNL     1      -9.709  14.177  66.771  1.00  0.00    -0.277 C  
HETATM   26  O   UNL     1      -9.524  15.208  67.407  1.00  0.00    -0.201 OA 
ENDBRANCH  16  17
ENDBRANCH  15  16
ENDBRANCH  14  15
ENDBRANCH  11  14
ENDBRANCH   6   8
TORSDOF 5
ENDMDL
MODEL      128
REMARK 921   NORMALIZED FREE ENERGY PREDICTED BY IDOCK:   -4.95 KCAL/MOL
REMARK 922        TOTAL FREE ENERGY PREDICTED BY IDOCK:   -7.04 KCAL/MOL
REMARK 923 INTER-LIGAND FREE ENERGY PREDICTED BY IDOCK:   -6.53 KCAL/MOL
REMARK 924 INTRA-LIGAND FREE ENERGY PREDICTED BY IDOCK:   -0.51 KCAL/MOL
REMARK 927      BINDING AFFINITY PREDICTED BY RF-SCORE:    0.00 PKD
ROOT
HETATM    1 CL   UNL     1      -6.841  20.030  65.896  1.00  0.00    -0.263 Cl 
HETATM    2  C   UNL     1      -8.387  19.541  66.477  1.00  0.00    -0.332 A  
HETATM    3  C   UNL     1      -9.134  20.412  67.259  1.00  0.00    -0.500 A  
HETATM    4  C   UNL     1     -10.378  20.005  67.728  1.00  0.00    -0.506 A  
HETATM    5  C   UNL     1     -10.854  18.724  67.424  1.00  0.00    -0.414 A  
HETATM    6  C   UNL     1     -10.105  17.817  66.658  1.00  0.00    -0.350 A  
HETATM    7  C   UNL     1      -8.867  18.264  66.174  1.00  0.00    -0.113 A  
ENDROOT
BRANCH   6   8
HETATM    8  N   UNL     1     -10.544  16.518  66.475  1.00  0.00    -0.262 NA 
HETATM    9  C   UNL     1     -10.424  15.522  67.551  1.00  0.00    -0.282 C  
HETATM   10  C   UNL     1     -11.622  14.547  67.492  1.00  0.00    -0.381 C  
HETATM   11  N   UNL     1     -11.823  13.879  66.182  1.00  0.00    -0.380 NA 
HETATM   12  C   UNL     1     -10.767  15.965  65.128  1.00  0.00    -0.429 C  
HETATM   13  C   UNL     1     -11.938  14.948  65.155  1.00  0.00    -0.210 C  
BRANCH  11  14
HETATM   14  C   UNL     1     -10.740  12.942  65.841  1.00  0.00    -0.271 C  
BRANCH  14  15
HETATM   15  C   UNL     1     -11.192  11.480  65.834  1.00  0.00    -0.239 C  
BRANCH  15  16
HETATM   16  C   UNL     1     -10.154  10.593  65.153  1.00  0.00    -0.307 C  
BRANCH  16  17
HETATM   17  N   UNL     1      -9.320   9.928  66.125  1.00  0.00    -0.170 N  
HETATM   18  N   UNL     1      -8.017  10.316  66.372  1.00  0.00    -0.117 NA 
HETATM   19  C   UNL     1      -7.569   9.382  67.153  1.00  0.00    -0.091 A  
HETATM   20  C   UNL     1      -6.221   9.283  67.754  1.00  0.00    -0.054 A  
HETATM   21  C   UNL     1      -5.961   8.219  68.534  1.00  0.00    -0.041 A  
HETATM   22  C   UNL     1      -6.962   7.194  68.773  1.00  0.00    -0.082 A  
HETATM   23  C   UNL     1      -8.178   7.302  68.215  1.00  0.00    -0.125 A  
HETATM   24  N   UNL     1      -8.452   8.389  67.433  1.00  0.00    -0.124 N  
HETATM   25  C   UNL     1      -9.604   8.701  66.750  1.00  0.00    -0.207 C  
HETATM   26  O   UNL     1     -10.638   8.048  66.670  1.00  0.00    -0.277 OA 
ENDBRANCH  16  17
ENDBRANCH  15  16
ENDBRANCH  14  15
ENDBRANCH  11  14
ENDBRANCH   6   8
TORSDOF 5
ENDMDL
MODEL      129
REMARK 921   NORMALIZED FREE ENERGY PREDICTED BY IDOCK:   -4.95 KCAL/MOL
REMARK 922        TOTAL FREE ENERGY PREDICTED BY IDOCK:   -7.03 KCAL/MOL
REMARK 923 INTER-LIGAND FREE ENERGY PREDICTED BY IDOCK:   -6.46 KCAL/MOL
REMARK 924 INTRA-LIGAND FREE ENERGY PREDICTED BY IDOCK:   -0.57 KCAL/MOL
REMARK 927      BINDING AFFINITY PREDICTED BY RF-SCORE:    0.00 PKD
ROOT
HETATM    1 CL   UNL     1      -7.298   7.338  62.345  1.00  0.00    -0.084 Cl 
HETATM    2  C   UNL     1      -8.032   7.914  63.793  1.00  0.00    -0.119 A  
HETATM    3  C   UNL     1      -8.144   7.070  64.890  1.00  0.00    -0.107 A  
HETATM    4  C   UNL     1      -8.744   7.543  66.052  1.00  0.00    -0.178 A  
HETATM    5  C   UNL     1      -9.241   8.850  66.098  1.00  0.00    -0.273 A  
HETATM    6  C   UNL     1      -9.163   9.713  64.994  1.00  0.00    -0.250 A  
HETATM    7  C   UNL     1      -8.527   9.220  63.845  1.00  0.00    -0.198 A  
ENDROOT
BRANCH   6   8
HETATM    8  N   UNL     1      -9.769  10.956  65.026  1.00  0.00    -0.246 NA 
HETATM    9  C   UNL     1     -10.127  11.654  63.781  1.00  0.00    -0.381 C  
HETATM   10  C   UNL     1     -11.425  12.466  63.995  1.00  0.00    -0.408 C  
HETATM   11  N   UNL     1     -11.390  13.416  65.134  1.00  0.00    -0.294 NA 
HETATM   12  C   UNL     1      -9.725  11.802  66.230  1.00  0.00    -0.222 C  
HETATM   13  C   UNL     1     -11.027  12.636  66.348  1.00  0.00    -0.272 C  
BRANCH  11  14
HETATM   14  C   UNL     1     -10.448  14.528  64.929  1.00  0.00    -0.409 C  
BRANCH  14  15
HETATM   15  C   UNL     1     -11.021  15.884  65.346  1.00  0.00    -0.293 C  
BRANCH  15  16
HETATM   16  C   UNL     1     -11.254  15.936  66.853  1.00  0.00     0.007 C  
BRANCH  16  17
HETATM   17  N   UNL     1     -10.179  16.628  67.521  1.00  0.00    -0.282 N  
HETATM   18  N   UNL     1     -10.045  18.003  67.484  1.00  0.00    -0.335 NA 
HETATM   19  C   UNL     1      -8.888  18.207  68.035  1.00  0.00    -0.279 A  
HETATM   20  C   UNL     1      -8.226  19.507  68.279  1.00  0.00    -0.373 A  
HETATM   21  C   UNL     1      -7.014  19.491  68.861  1.00  0.00    -0.386 A  
HETATM   22  C   UNL     1      -6.368  18.244  69.229  1.00  0.00    -0.259 A  
HETATM   23  C   UNL     1      -6.986  17.074  68.996  1.00  0.00    -0.229 A  
HETATM   24  N   UNL     1      -8.224  17.086  68.418  1.00  0.00    -0.240 N  
HETATM   25  C   UNL     1      -9.030  16.028  68.069  1.00  0.00    -0.187 C  
HETATM   26  O   UNL     1      -8.798  14.830  68.175  1.00  0.00    -0.160 OA 
ENDBRANCH  16  17
ENDBRANCH  15  16
ENDBRANCH  14  15
ENDBRANCH  11  14
ENDBRANCH   6   8
TORSDOF 5
ENDMDL
MODEL      130
REMARK 921   NORMALIZED FREE ENERGY PREDICTED BY IDOCK:   -4.93 KCAL/MOL
REMARK 922        TOTAL FREE ENERGY PREDICTED BY IDOCK:   -7.00 KCAL/MOL
REMARK 923 INTER-LIGAND FREE ENERGY PREDICTED BY IDOCK:   -6.32 KCAL/MOL
REMARK 924 INTRA-LIGAND FREE ENERGY PREDICTED BY IDOCK:   -0.68 KCAL/MOL
REMARK 927      BINDING AFFINITY PREDICTED BY RF-SCORE:    0.00 PKD
ROOT
HETATM    1 CL   UNL     1     -14.410  14.700  71.596  1.00  0.00    -0.570 Cl 
HETATM    2  C   UNL     1     -12.863  14.863  70.857  1.00  0.00    -0.373 A  
HETATM    3  C   UNL     1     -12.034  15.917  71.223  1.00  0.00    -0.493 A  
HETATM    4  C   UNL     1     -10.790  16.043  70.617  1.00  0.00    -0.183 A  
HETATM    5  C   UNL     1     -10.394  15.125  69.638  1.00  0.00    -0.238 A  
HETATM    6  C   UNL     1     -11.224  14.068  69.233  1.00  0.00    -0.261 A  
HETATM    7  C   UNL     1     -12.462  13.947  69.882  1.00  0.00    -0.285 A  
ENDROOT
BRANCH   6   8
HETATM    8  N   UNL     1     -10.861  13.248  68.179  1.00  0.00    -0.243 NA 
HETATM    9  C   UNL     1     -11.664  13.199  66.949  1.00  0.00    -0.387 C  
HETATM   10  C   UNL     1     -10.738  12.975  65.731  1.00  0.00    -0.274 C  
HETATM   11  N   UNL     1      -9.855  11.785  65.826  1.00  0.00    -0.234 NA 
HETATM   12  C   UNL     1      -9.929  12.123  68.368  1.00  0.00    -0.206 C  
HETATM   13  C   UNL     1      -9.078  11.913  67.088  1.00  0.00    -0.178 C  
BRANCH  11  14
HETATM   14  C   UNL     1     -10.595  10.513  65.796  1.00  0.00    -0.066 C  
BRANCH  14  15
HETATM   15  C   UNL     1      -9.776   9.330  66.315  1.00  0.00    -0.340 C  
BRANCH  15  16
HETATM   16  C   UNL     1     -10.660   8.348  67.078  1.00  0.00    -0.246 C  
BRANCH  16  17
HETATM   17  N   UNL     1     -10.156   8.123  68.411  1.00  0.00    -0.195 N  
HETATM   18  N   UNL     1      -9.077   8.818  68.924  1.00  0.00    -0.141 NA 
HETATM   19  C   UNL     1      -8.834   8.212  70.045  1.00  0.00    -0.139 A  
HETATM   20  C   UNL     1      -7.786   8.540  71.035  1.00  0.00    -0.104 A  
HETATM   21  C   UNL     1      -7.703   7.771  72.135  1.00  0.00    -0.107 A  
HETATM   22  C   UNL     1      -8.603   6.651  72.345  1.00  0.00    -0.124 A  
HETATM   23  C   UNL     1      -9.547   6.370  71.432  1.00  0.00    -0.162 A  
HETATM   24  N   UNL     1      -9.644   7.156  70.319  1.00  0.00    -0.169 N  
HETATM   25  C   UNL     1     -10.505   7.051  69.253  1.00  0.00    -0.210 C  
HETATM   26  O   UNL     1     -11.365   6.201  69.053  1.00  0.00    -0.390 OA 
ENDBRANCH  16  17
ENDBRANCH  15  16
ENDBRANCH  14  15
ENDBRANCH  11  14
ENDBRANCH   6   8
TORSDOF 5
ENDMDL
MODEL      131
REMARK 921   NORMALIZED FREE ENERGY PREDICTED BY IDOCK:   -4.93 KCAL/MOL
REMARK 922        TOTAL FREE ENERGY PREDICTED BY IDOCK:   -7.00 KCAL/MOL
REMARK 923 INTER-LIGAND FREE ENERGY PREDICTED BY IDOCK:   -6.31 KCAL/MOL
REMARK 924 INTRA-LIGAND FREE ENERGY PREDICTED BY IDOCK:   -0.69 KCAL/MOL
REMARK 927      BINDING AFFINITY PREDICTED BY RF-SCORE:    0.00 PKD
ROOT
HETATM    1 CL   UNL     1     -10.336  16.449  65.585  1.00  0.00    -0.384 Cl 
HETATM    2  C   UNL     1     -11.021  14.907  65.239  1.00  0.00    -0.380 A  
HETATM    3  C   UNL     1     -12.085  14.811  64.350  1.00  0.00    -0.457 A  
HETATM    4  C   UNL     1     -12.635  13.563  64.082  1.00  0.00    -0.188 A  
HETATM    5  C   UNL     1     -12.127  12.425  64.720  1.00  0.00    -0.483 A  
HETATM    6  C   UNL     1     -11.070  12.500  65.641  1.00  0.00    -0.303 A  
HETATM    7  C   UNL     1     -10.516  13.768  65.870  1.00  0.00    -0.300 A  
ENDROOT
BRANCH   6   8
HETATM    8  N   UNL     1     -10.668  11.380  66.346  1.00  0.00    -0.268 NA 
HETATM    9  C   UNL     1      -9.850  10.339  65.707  1.00  0.00    -0.257 C  
HETATM   10  C   UNL     1      -8.878   9.732  66.745  1.00  0.00    -0.138 C  
HETATM   11  N   UNL     1      -9.522   9.208  67.976  1.00  0.00    -0.141 NA 
HETATM   12  C   UNL     1     -11.340  10.976  67.593  1.00  0.00    -0.281 C  
HETATM   13  C   UNL     1     -10.323  10.317  68.560  1.00  0.00    -0.178 C  
BRANCH  11  14
HETATM   14  C   UNL     1     -10.368   8.029  67.727  1.00  0.00    -0.231 C  
BRANCH  14  15
HETATM   15  C   UNL     1      -9.611   6.707  67.872  1.00  0.00    -0.121 C  
BRANCH  15  16
HETATM   16  C   UNL     1      -8.635   6.765  69.044  1.00  0.00    -0.131 C  
BRANCH  16  17
HETATM   17  N   UNL     1      -9.122   5.997  70.164  1.00  0.00    -0.146 N  
HETATM   18  N   UNL     1      -8.943   4.630  70.260  1.00  0.00    -0.093 NA 
HETATM   19  C   UNL     1      -9.663   4.305  71.290  1.00  0.00    -0.185 A  
HETATM   20  C   UNL     1      -9.839   2.958  71.873  1.00  0.00    -0.234 A  
HETATM   21  C   UNL     1     -10.643   2.841  72.945  1.00  0.00    -0.220 A  
HETATM   22  C   UNL     1     -11.326   3.993  73.507  1.00  0.00    -0.280 A  
HETATM   23  C   UNL     1     -11.155   5.206  72.959  1.00  0.00    -0.314 A  
HETATM   24  N   UNL     1     -10.328   5.333  71.879  1.00  0.00    -0.210 N  
HETATM   25  C   UNL     1     -10.018   6.455  71.148  1.00  0.00    -0.180 C  
HETATM   26  O   UNL     1     -10.445   7.594  71.289  1.00  0.00    -0.206 OA 
ENDBRANCH  16  17
ENDBRANCH  15  16
ENDBRANCH  14  15
ENDBRANCH  11  14
ENDBRANCH   6   8
TORSDOF 5
ENDMDL
MODEL      132
REMARK 921   NORMALIZED FREE ENERGY PREDICTED BY IDOCK:   -4.93 KCAL/MOL
REMARK 922        TOTAL FREE ENERGY PREDICTED BY IDOCK:   -7.00 KCAL/MOL
REMARK 923 INTER-LIGAND FREE ENERGY PREDICTED BY IDOCK:   -6.40 KCAL/MOL
REMARK 924 INTRA-LIGAND FREE ENERGY PREDICTED BY IDOCK:   -0.60 KCAL/MOL
REMARK 927      BINDING AFFINITY PREDICTED BY RF-SCORE:    0.00 PKD
ROOT
HETATM    1 CL   UNL     1      -5.434   8.248  67.186  1.00  0.00    -0.036 Cl 
HETATM    2  C   UNL     1      -7.131   8.113  66.927  1.00  0.00    -0.078 A  
HETATM    3  C   UNL     1      -7.677   6.885  66.576  1.00  0.00    -0.101 A  
HETATM    4  C   UNL     1      -9.047   6.787  66.362  1.00  0.00    -0.175 A  
HETATM    5  C   UNL     1      -9.855   7.923  66.486  1.00  0.00    -0.272 A  
HETATM    6  C   UNL     1      -9.324   9.180  66.814  1.00  0.00    -0.165 A  
HETATM    7  C   UNL     1      -7.942   9.243  67.052  1.00  0.00    -0.102 A  
ENDROOT
BRANCH   6   8
HETATM    8  N   UNL     1     -10.124  10.308  66.810  1.00  0.00    -0.208 NA 
HETATM    9  C   UNL     1     -10.182  11.189  65.634  1.00  0.00    -0.256 C  
HETATM   10  C   UNL     1     -11.605  11.777  65.494  1.00  0.00    -0.126 C  
HETATM   11  N   UNL     1     -12.114  12.480  66.698  1.00  0.00    -0.568 NA 
HETATM   12  C   UNL     1     -10.627  10.898  68.063  1.00  0.00    -0.202 C  
HETATM   13  C   UNL     1     -12.027  11.525  67.836  1.00  0.00    -0.073 C  
BRANCH  11  14
HETATM   14  C   UNL     1     -11.377  13.718  66.999  1.00  0.00    -0.326 C  
BRANCH  14  15
HETATM   15  C   UNL     1     -11.448  14.747  65.869  1.00  0.00    -0.319 C  
BRANCH  15  16
HETATM   16  C   UNL     1     -10.051  15.216  65.472  1.00  0.00    -0.370 C  
BRANCH  16  17
HETATM   17  N   UNL     1      -9.746  16.497  66.060  1.00  0.00    -0.309 N  
HETATM   18  N   UNL     1     -10.714  17.457  66.290  1.00  0.00    -0.163 NA 
HETATM   19  C   UNL     1     -10.026  18.498  66.647  1.00  0.00    -0.372 A  
HETATM   20  C   UNL     1     -10.544  19.828  67.033  1.00  0.00    -0.586 A  
HETATM   21  C   UNL     1      -9.649  20.775  67.364  1.00  0.00    -0.484 A  
HETATM   22  C   UNL     1      -8.222  20.510  67.336  1.00  0.00    -0.344 A  
HETATM   23  C   UNL     1      -7.773  19.295  66.980  1.00  0.00    -0.244 A  
HETATM   24  N   UNL     1      -8.678  18.325  66.656  1.00  0.00    -0.270 N  
HETATM   25  C   UNL     1      -8.458  17.031  66.248  1.00  0.00    -0.269 C  
HETATM   26  O   UNL     1      -7.387  16.469  66.054  1.00  0.00     0.014 OA 
ENDBRANCH  16  17
ENDBRANCH  15  16
ENDBRANCH  14  15
ENDBRANCH  11  14
ENDBRANCH   6   8
TORSDOF 5
ENDMDL
MODEL      133
REMARK 921   NORMALIZED FREE ENERGY PREDICTED BY IDOCK:   -4.91 KCAL/MOL
REMARK 922        TOTAL FREE ENERGY PREDICTED BY IDOCK:   -6.97 KCAL/MOL
REMARK 923 INTER-LIGAND FREE ENERGY PREDICTED BY IDOCK:   -6.60 KCAL/MOL
REMARK 924 INTRA-LIGAND FREE ENERGY PREDICTED BY IDOCK:   -0.37 KCAL/MOL
REMARK 927      BINDING AFFINITY PREDICTED BY RF-SCORE:    0.00 PKD
ROOT
HETATM    1 CL   UNL     1     -14.044   7.247  71.726  1.00  0.00    -0.507 Cl 
HETATM    2  C   UNL     1     -12.355   7.556  71.592  1.00  0.00    -0.333 A  
HETATM    3  C   UNL     1     -11.612   7.820  72.736  1.00  0.00    -0.368 A  
HETATM    4  C   UNL     1     -10.250   8.075  72.616  1.00  0.00    -0.385 A  
HETATM    5  C   UNL     1      -9.650   8.081  71.352  1.00  0.00    -0.195 A  
HETATM    6  C   UNL     1     -10.385   7.843  70.180  1.00  0.00    -0.215 A  
HETATM    7  C   UNL     1     -11.751   7.561  70.333  1.00  0.00    -0.116 A  
ENDROOT
BRANCH   6   8
HETATM    8  N   UNL     1      -9.793   7.975  68.937  1.00  0.00    -0.170 NA 
HETATM    9  C   UNL     1      -8.367   8.310  68.811  1.00  0.00    -0.124 C  
HETATM   10  C   UNL     1      -7.775   7.606  67.568  1.00  0.00    -0.118 C  
HETATM   11  N   UNL     1      -8.489   7.877  66.296  1.00  0.00    -0.128 NA 
HETATM   12  C   UNL     1     -10.598   8.186  67.722  1.00  0.00    -0.165 C  
HETATM   13  C   UNL     1      -9.916   7.511  66.504  1.00  0.00    -0.138 C  
BRANCH  11  14
HETATM   14  C   UNL     1      -8.369   9.276  65.854  1.00  0.00    -0.118 C  
BRANCH  14  15
HETATM   15  C   UNL     1      -9.523   9.722  64.954  1.00  0.00    -0.331 C  
BRANCH  15  16
HETATM   16  C   UNL     1      -9.425  11.212  64.640  1.00  0.00    -0.213 C  
BRANCH  16  17
HETATM   17  N   UNL     1      -9.945  12.007  65.725  1.00  0.00    -0.237 N  
HETATM   18  N   UNL     1     -10.164  11.488  66.987  1.00  0.00    -0.209 NA 
HETATM   19  C   UNL     1     -10.787  12.445  67.602  1.00  0.00    -0.225 A  
HETATM   20  C   UNL     1     -11.262  12.453  69.002  1.00  0.00    -0.320 A  
HETATM   21  C   UNL     1     -11.898  13.555  69.440  1.00  0.00    -0.389 A  
HETATM   22  C   UNL     1     -12.121  14.695  68.569  1.00  0.00    -0.229 A  
HETATM   23  C   UNL     1     -11.683  14.665  67.300  1.00  0.00    -0.385 A  
HETATM   24  N   UNL     1     -11.025  13.554  66.855  1.00  0.00    -0.286 N  
HETATM   25  C   UNL     1     -10.511  13.290  65.608  1.00  0.00    -0.281 C  
HETATM   26  O   UNL     1     -10.557  13.991  64.604  1.00  0.00    -0.419 OA 
ENDBRANCH  16  17
ENDBRANCH  15  16
ENDBRANCH  14  15
ENDBRANCH  11  14
ENDBRANCH   6   8
TORSDOF 5
ENDMDL
MODEL      134
REMARK 921   NORMALIZED FREE ENERGY PREDICTED BY IDOCK:   -4.90 KCAL/MOL
REMARK 922        TOTAL FREE ENERGY PREDICTED BY IDOCK:   -6.96 KCAL/MOL
REMARK 923 INTER-LIGAND FREE ENERGY PREDICTED BY IDOCK:   -5.79 KCAL/MOL
REMARK 924 INTRA-LIGAND FREE ENERGY PREDICTED BY IDOCK:   -1.17 KCAL/MOL
REMARK 927      BINDING AFFINITY PREDICTED BY RF-SCORE:    0.00 PKD
ROOT
HETATM    1 CL   UNL     1     -13.734   9.340  72.541  1.00  0.00    -0.507 Cl 
HETATM    2  C   UNL     1     -13.047  10.590  71.575  1.00  0.00    -0.430 A  
HETATM    3  C   UNL     1     -13.283  11.920  71.902  1.00  0.00    -0.467 A  
HETATM    4  C   UNL     1     -12.729  12.921  71.113  1.00  0.00    -0.366 A  
HETATM    5  C   UNL     1     -11.959  12.583  69.995  1.00  0.00    -0.372 A  
HETATM    6  C   UNL     1     -11.727  11.247  69.630  1.00  0.00    -0.350 A  
HETATM    7  C   UNL     1     -12.274  10.257  70.460  1.00  0.00    -0.390 A  
ENDROOT
BRANCH   6   8
HETATM    8  N   UNL     1     -11.066  10.941  68.454  1.00  0.00    -0.240 NA 
HETATM    9  C   UNL     1     -10.401   9.642  68.278  1.00  0.00    -0.204 C  
HETATM   10  C   UNL     1     -10.507   9.200  66.800  1.00  0.00    -0.196 C  
HETATM   11  N   UNL     1      -9.997  10.184  65.813  1.00  0.00    -0.264 NA 
HETATM   12  C   UNL     1     -10.651  11.993  67.510  1.00  0.00    -0.221 C  
HETATM   13  C   UNL     1     -10.718  11.463  66.054  1.00  0.00    -0.263 C  
BRANCH  11  14
HETATM   14  C   UNL     1      -8.541  10.383  65.896  1.00  0.00    -0.158 C  
BRANCH  14  15
HETATM   15  C   UNL     1      -7.750   9.377  65.057  1.00  0.00    -0.110 C  
BRANCH  15  16
HETATM   16  C   UNL     1      -6.705   8.662  65.908  1.00  0.00    -0.061 C  
BRANCH  16  17
HETATM   17  N   UNL     1      -7.304   7.609  66.691  1.00  0.00    -0.086 N  
HETATM   18  N   UNL     1      -8.040   6.587  66.120  1.00  0.00    -0.113 NA 
HETATM   19  C   UNL     1      -8.542   5.969  67.144  1.00  0.00    -0.106 A  
HETATM   20  C   UNL     1      -9.411   4.774  67.134  1.00  0.00    -0.164 A  
HETATM   21  C   UNL     1      -9.830   4.295  68.320  1.00  0.00    -0.106 A  
HETATM   22  C   UNL     1      -9.452   4.934  69.568  1.00  0.00    -0.216 A  
HETATM   23  C   UNL     1      -8.664   6.021  69.554  1.00  0.00    -0.125 A  
HETATM   24  N   UNL     1      -8.225   6.502  68.353  1.00  0.00    -0.113 N  
HETATM   25  C   UNL     1      -7.436   7.597  68.091  1.00  0.00    -0.108 C  
HETATM   26  O   UNL     1      -6.975   8.407  68.886  1.00  0.00    -0.060 OA 
ENDBRANCH  16  17
ENDBRANCH  15  16
ENDBRANCH  14  15
ENDBRANCH  11  14
ENDBRANCH   6   8
TORSDOF 5
ENDMDL
MODEL      135
REMARK 921   NORMALIZED FREE ENERGY PREDICTED BY IDOCK:   -4.89 KCAL/MOL
REMARK 922        TOTAL FREE ENERGY PREDICTED BY IDOCK:   -6.96 KCAL/MOL
REMARK 923 INTER-LIGAND FREE ENERGY PREDICTED BY IDOCK:   -6.34 KCAL/MOL
REMARK 924 INTRA-LIGAND FREE ENERGY PREDICTED BY IDOCK:   -0.62 KCAL/MOL
REMARK 927      BINDING AFFINITY PREDICTED BY RF-SCORE:    0.00 PKD
ROOT
HETATM    1 CL   UNL     1     -11.794  15.342  68.692  1.00  0.00    -0.355 Cl 
HETATM    2  C   UNL     1     -11.732  14.204  67.401  1.00  0.00    -0.391 A  
HETATM    3  C   UNL     1     -12.253  14.544  66.159  1.00  0.00    -0.268 A  
HETATM    4  C   UNL     1     -12.203  13.616  65.125  1.00  0.00    -0.461 A  
HETATM    5  C   UNL     1     -11.648  12.351  65.348  1.00  0.00    -0.426 A  
HETATM    6  C   UNL     1     -11.139  11.975  66.601  1.00  0.00    -0.310 A  
HETATM    7  C   UNL     1     -11.176  12.941  67.618  1.00  0.00    -0.317 A  
ENDROOT
BRANCH   6   8
HETATM    8  N   UNL     1     -10.708  10.680  66.828  1.00  0.00    -0.238 NA 
HETATM    9  C   UNL     1     -10.137   9.873  65.739  1.00  0.00    -0.247 C  
HETATM   10  C   UNL     1      -9.035   8.946  66.302  1.00  0.00    -0.170 C  
HETATM   11  N   UNL     1      -9.462   8.078  67.428  1.00  0.00    -0.146 NA 
HETATM   12  C   UNL     1     -11.147   9.921  68.011  1.00  0.00    -0.158 C  
HETATM   13  C   UNL     1     -10.020   8.966  68.483  1.00  0.00    -0.177 C  
BRANCH  11  14
HETATM   14  C   UNL     1     -10.446   7.059  67.030  1.00  0.00    -0.316 C  
BRANCH  14  15
HETATM   15  C   UNL     1     -10.000   5.633  67.361  1.00  0.00    -0.180 C  
BRANCH  15  16
HETATM   16  C   UNL     1      -8.953   5.634  68.471  1.00  0.00    -0.115 C  
BRANCH  16  17
HETATM   17  N   UNL     1      -9.506   5.134  69.707  1.00  0.00    -0.138 N  
HETATM   18  N   UNL     1      -9.947   5.970  70.715  1.00  0.00    -0.186 NA 
HETATM   19  C   UNL     1     -10.191   5.157  71.695  1.00  0.00    -0.212 A  
HETATM   20  C   UNL     1     -10.707   5.498  73.038  1.00  0.00    -0.295 A  
HETATM   21  C   UNL     1     -10.882   4.493  73.914  1.00  0.00    -0.344 A  
HETATM   22  C   UNL     1     -10.567   3.120  73.563  1.00  0.00    -0.275 A  
HETATM   23  C   UNL     1     -10.097   2.832  72.338  1.00  0.00    -0.164 A  
HETATM   24  N   UNL     1      -9.931   3.848  71.440  1.00  0.00    -0.165 N  
HETATM   25  C   UNL     1      -9.451   3.801  70.152  1.00  0.00    -0.189 C  
HETATM   26  O   UNL     1      -9.036   2.828  69.533  1.00  0.00    -0.098 OA 
ENDBRANCH  16  17
ENDBRANCH  15  16
ENDBRANCH  14  15
ENDBRANCH  11  14
ENDBRANCH   6   8
TORSDOF 5
ENDMDL
MODEL      136
REMARK 921   NORMALIZED FREE ENERGY PREDICTED BY IDOCK:   -4.89 KCAL/MOL
REMARK 922        TOTAL FREE ENERGY PREDICTED BY IDOCK:   -6.96 KCAL/MOL
REMARK 923 INTER-LIGAND FREE ENERGY PREDICTED BY IDOCK:   -6.19 KCAL/MOL
REMARK 924 INTRA-LIGAND FREE ENERGY PREDICTED BY IDOCK:   -0.77 KCAL/MOL
REMARK 927      BINDING AFFINITY PREDICTED BY RF-SCORE:    0.00 PKD
ROOT
HETATM    1 CL   UNL     1      -9.470   3.515  73.359  1.00  0.00    -0.120 Cl 
HETATM    2  C   UNL     1     -10.172   4.733  72.363  1.00  0.00    -0.194 A  
HETATM    3  C   UNL     1     -11.226   5.496  72.850  1.00  0.00    -0.358 A  
HETATM    4  C   UNL     1     -11.790   6.472  72.036  1.00  0.00    -0.374 A  
HETATM    5  C   UNL     1     -11.305   6.663  70.738  1.00  0.00    -0.389 A  
HETATM    6  C   UNL     1     -10.258   5.888  70.214  1.00  0.00    -0.218 A  
HETATM    7  C   UNL     1      -9.689   4.930  71.067  1.00  0.00    -0.252 A  
ENDROOT
BRANCH   6   8
HETATM    8  N   UNL     1      -9.879   6.014  68.890  1.00  0.00    -0.134 NA 
HETATM    9  C   UNL     1      -8.799   5.187  68.331  1.00  0.00    -0.101 C  
HETATM   10  C   UNL     1      -9.106   4.862  66.851  1.00  0.00    -0.118 C  
HETATM   11  N   UNL     1      -9.358   6.043  65.989  1.00  0.00    -0.122 NA 
HETATM   12  C   UNL     1     -10.230   7.208  68.102  1.00  0.00    -0.188 C  
HETATM   13  C   UNL     1     -10.460   6.820  66.618  1.00  0.00    -0.143 C  
BRANCH  11  14
HETATM   14  C   UNL     1      -8.166   6.886  65.803  1.00  0.00    -0.132 C  
BRANCH  14  15
HETATM   15  C   UNL     1      -8.286   7.838  64.611  1.00  0.00    -0.080 C  
BRANCH  15  16
HETATM   16  C   UNL     1      -7.667   9.195  64.933  1.00  0.00    -0.110 C  
BRANCH  16  17
HETATM   17  N   UNL     1      -8.671  10.231  64.962  1.00  0.00    -0.172 N  
HETATM   18  N   UNL     1      -9.410  10.516  66.094  1.00  0.00    -0.170 NA 
HETATM   19  C   UNL     1     -10.301  11.357  65.667  1.00  0.00    -0.257 A  
HETATM   20  C   UNL     1     -11.363  12.019  66.456  1.00  0.00    -0.413 A  
HETATM   21  C   UNL     1     -12.192  12.857  65.808  1.00  0.00    -0.498 A  
HETATM   22  C   UNL     1     -12.060  13.099  64.383  1.00  0.00    -0.471 A  
HETATM   23  C   UNL     1     -11.091  12.485  63.685  1.00  0.00    -0.467 A  
HETATM   24  N   UNL     1     -10.237  11.644  64.341  1.00  0.00    -0.280 N  
HETATM   25  C   UNL     1      -9.196  10.899  63.841  1.00  0.00    -0.203 C  
HETATM   26  O   UNL     1      -8.821  10.804  62.678  1.00  0.00    -0.228 OA 
ENDBRANCH  16  17
ENDBRANCH  15  16
ENDBRANCH  14  15
ENDBRANCH  11  14
ENDBRANCH   6   8
TORSDOF 5
ENDMDL
MODEL      137
REMARK 921   NORMALIZED FREE ENERGY PREDICTED BY IDOCK:   -4.83 KCAL/MOL
REMARK 922        TOTAL FREE ENERGY PREDICTED BY IDOCK:   -6.87 KCAL/MOL
REMARK 923 INTER-LIGAND FREE ENERGY PREDICTED BY IDOCK:   -6.30 KCAL/MOL
REMARK 924 INTRA-LIGAND FREE ENERGY PREDICTED BY IDOCK:   -0.57 KCAL/MOL
REMARK 927      BINDING AFFINITY PREDICTED BY RF-SCORE:    0.00 PKD
ROOT
HETATM    1 CL   UNL     1      -9.966   4.204  69.962  1.00  0.00    -0.237 Cl 
HETATM    2  C   UNL     1      -9.145   5.718  69.988  1.00  0.00    -0.142 A  
HETATM    3  C   UNL     1      -7.932   5.832  70.654  1.00  0.00    -0.109 A  
HETATM    4  C   UNL     1      -7.280   7.060  70.675  1.00  0.00    -0.068 A  
HETATM    5  C   UNL     1      -7.859   8.166  70.043  1.00  0.00    -0.103 A  
HETATM    6  C   UNL     1      -9.096   8.083  69.386  1.00  0.00    -0.148 A  
HETATM    7  C   UNL     1      -9.717   6.826  69.356  1.00  0.00    -0.155 A  
ENDROOT
BRANCH   6   8
HETATM    8  N   UNL     1      -9.702   9.218  68.876  1.00  0.00    -0.158 NA 
HETATM    9  C   UNL     1      -9.371   9.710  67.530  1.00  0.00    -0.130 C  
HETATM   10  C   UNL     1     -10.627  10.337  66.883  1.00  0.00    -0.217 C  
HETATM   11  N   UNL     1     -11.278  11.404  67.683  1.00  0.00    -0.265 NA 
HETATM   12  C   UNL     1     -10.374  10.190  69.754  1.00  0.00    -0.259 C  
HETATM   13  C   UNL     1     -11.583  10.828  69.021  1.00  0.00    -0.299 C  
BRANCH  11  14
HETATM   14  C   UNL     1     -10.451  12.614  67.813  1.00  0.00    -0.221 C  
BRANCH  14  15
HETATM   15  C   UNL     1     -11.276  13.884  68.035  1.00  0.00    -0.295 C  
BRANCH  15  16
HETATM   16  C   UNL     1     -10.648  14.760  69.114  1.00  0.00    -0.248 C  
BRANCH  16  17
HETATM   17  N   UNL     1     -10.196  16.016  68.565  1.00  0.00    -0.229 N  
HETATM   18  N   UNL     1     -11.034  17.106  68.420  1.00  0.00    -0.296 NA 
HETATM   19  C   UNL     1     -10.317  17.949  67.744  1.00  0.00    -0.387 A  
HETATM   20  C   UNL     1     -10.701  19.308  67.308  1.00  0.00    -0.594 A  
HETATM   21  C   UNL     1      -9.800  20.017  66.603  1.00  0.00    -0.577 A  
HETATM   22  C   UNL     1      -8.498  19.466  66.271  1.00  0.00    -0.346 A  
HETATM   23  C   UNL     1      -8.171  18.228  66.675  1.00  0.00    -0.262 A  
HETATM   24  N   UNL     1      -9.077  17.510  67.403  1.00  0.00    -0.236 N  
HETATM   25  C   UNL     1      -8.975  16.233  67.901  1.00  0.00    -0.187 C  
HETATM   26  O   UNL     1      -8.050  15.441  67.774  1.00  0.00    -0.129 OA 
ENDBRANCH  16  17
ENDBRANCH  15  16
ENDBRANCH  14  15
ENDBRANCH  11  14
ENDBRANCH   6   8
TORSDOF 5
ENDMDL
MODEL      138
REMARK 921   NORMALIZED FREE ENERGY PREDICTED BY IDOCK:   -4.81 KCAL/MOL
REMARK 922        TOTAL FREE ENERGY PREDICTED BY IDOCK:   -6.85 KCAL/MOL
REMARK 923 INTER-LIGAND FREE ENERGY PREDICTED BY IDOCK:   -6.24 KCAL/MOL
REMARK 924 INTRA-LIGAND FREE ENERGY PREDICTED BY IDOCK:   -0.62 KCAL/MOL
REMARK 927      BINDING AFFINITY PREDICTED BY RF-SCORE:    0.00 PKD
ROOT
HETATM    1 CL   UNL     1      -8.347   2.359  63.519  1.00  0.00    -0.084 Cl 
HETATM    2  C   UNL     1      -8.603   2.620  65.202  1.00  0.00    -0.103 A  
HETATM    3  C   UNL     1      -8.593   1.540  66.075  1.00  0.00    -0.108 A  
HETATM    4  C   UNL     1      -8.806   1.761  67.431  1.00  0.00    -0.145 A  
HETATM    5  C   UNL     1      -9.045   3.059  67.897  1.00  0.00    -0.225 A  
HETATM    6  C   UNL     1      -9.086   4.163  67.031  1.00  0.00    -0.143 A  
HETATM    7  C   UNL     1      -8.839   3.915  65.673  1.00  0.00    -0.124 A  
ENDROOT
BRANCH   6   8
HETATM    8  N   UNL     1      -9.443   5.415  67.500  1.00  0.00    -0.117 NA 
HETATM    9  C   UNL     1      -9.181   6.622  66.702  1.00  0.00    -0.157 C  
HETATM   10  C   UNL     1     -10.309   7.654  66.934  1.00  0.00    -0.318 C  
HETATM   11  N   UNL     1     -10.552   8.008  68.355  1.00  0.00    -0.152 NA 
HETATM   12  C   UNL     1      -9.719   5.651  68.927  1.00  0.00    -0.138 C  
HETATM   13  C   UNL     1     -10.811   6.740  69.088  1.00  0.00    -0.258 C  
BRANCH  11  14
HETATM   14  C   UNL     1      -9.432   8.743  68.965  1.00  0.00    -0.160 C  
BRANCH  14  15
HETATM   15  C   UNL     1      -9.332  10.192  68.483  1.00  0.00    -0.151 C  
BRANCH  15  16
HETATM   16  C   UNL     1     -10.528  11.009  68.963  1.00  0.00    -0.216 C  
BRANCH  16  17
HETATM   17  N   UNL     1     -10.900  12.007  67.990  1.00  0.00    -0.206 N  
HETATM   18  N   UNL     1     -11.765  11.739  66.946  1.00  0.00    -0.584 NA 
HETATM   19  C   UNL     1     -11.698  12.811  66.218  1.00  0.00    -0.402 A  
HETATM   20  C   UNL     1     -12.433  13.094  64.966  1.00  0.00    -0.516 A  
HETATM   21  C   UNL     1     -12.207  14.274  64.362  1.00  0.00    -0.471 A  
HETATM   22  C   UNL     1     -11.267  15.236  64.910  1.00  0.00    -0.422 A  
HETATM   23  C   UNL     1     -10.608  14.957  66.046  1.00  0.00    -0.315 A  
HETATM   24  N   UNL     1     -10.845  13.766  66.671  1.00  0.00    -0.287 N  
HETATM   25  C   UNL     1     -10.282  13.259  67.818  1.00  0.00    -0.228 C  
HETATM   26  O   UNL     1      -9.413  13.760  68.522  1.00  0.00    -0.210 OA 
ENDBRANCH  16  17
ENDBRANCH  15  16
ENDBRANCH  14  15
ENDBRANCH  11  14
ENDBRANCH   6   8
TORSDOF 5
ENDMDL
MODEL      139
REMARK 921   NORMALIZED FREE ENERGY PREDICTED BY IDOCK:   -4.81 KCAL/MOL
REMARK 922        TOTAL FREE ENERGY PREDICTED BY IDOCK:   -6.85 KCAL/MOL
REMARK 923 INTER-LIGAND FREE ENERGY PREDICTED BY IDOCK:   -6.80 KCAL/MOL
REMARK 924 INTRA-LIGAND FREE ENERGY PREDICTED BY IDOCK:   -0.05 KCAL/MOL
REMARK 927      BINDING AFFINITY PREDICTED BY RF-SCORE:    0.00 PKD
ROOT
HETATM    1 CL   UNL     1     -10.684  16.507  65.382  1.00  0.00    -0.337 Cl 
HETATM    2  C   UNL     1      -9.293  15.880  66.182  1.00  0.00    -0.350 A  
HETATM    3  C   UNL     1      -8.183  16.693  66.369  1.00  0.00    -0.353 A  
HETATM    4  C   UNL     1      -7.063  16.175  67.011  1.00  0.00    -0.248 A  
HETATM    5  C   UNL     1      -7.060  14.844  67.443  1.00  0.00    -0.194 A  
HETATM    6  C   UNL     1      -8.160  13.996  67.242  1.00  0.00    -0.156 A  
HETATM    7  C   UNL     1      -9.286  14.553  66.618  1.00  0.00    -0.301 A  
ENDROOT
BRANCH   6   8
HETATM    8  N   UNL     1      -8.086  12.654  67.569  1.00  0.00    -0.166 NA 
HETATM    9  C   UNL     1      -8.356  11.615  66.563  1.00  0.00    -0.122 C  
HETATM   10  C   UNL     1      -7.456  10.387  66.829  1.00  0.00    -0.110 C  
HETATM   11  N   UNL     1      -7.553   9.824  68.199  1.00  0.00    -0.082 NA 
HETATM   12  C   UNL     1      -8.134  12.200  68.969  1.00  0.00     0.251 C  
HETATM   13  C   UNL     1      -7.264  10.930  69.151  1.00  0.00    -0.118 C  
BRANCH  11  14
HETATM   14  C   UNL     1      -8.865   9.221  68.483  1.00  0.00    -0.129 C  
BRANCH  14  15
HETATM   15  C   UNL     1      -9.684  10.019  69.499  1.00  0.00    -0.253 C  
BRANCH  15  16
HETATM   16  C   UNL     1     -11.113  10.225  69.005  1.00  0.00    -0.230 C  
BRANCH  16  17
HETATM   17  N   UNL     1     -11.713  11.385  69.618  1.00  0.00    -0.314 N  
HETATM   18  N   UNL     1     -11.485  12.668  69.159  1.00  0.00    -0.288 NA 
HETATM   19  C   UNL     1     -12.040  13.415  70.063  1.00  0.00    -0.334 A  
HETATM   20  C   UNL     1     -12.119  14.891  70.085  1.00  0.00    -0.379 A  
HETATM   21  C   UNL     1     -12.739  15.468  71.130  1.00  0.00    -0.525 A  
HETATM   22  C   UNL     1     -13.304  14.674  72.207  1.00  0.00    -0.485 A  
HETATM   23  C   UNL     1     -13.219  13.335  72.168  1.00  0.00    -0.464 A  
HETATM   24  N   UNL     1     -12.603  12.743  71.102  1.00  0.00    -0.340 N  
HETATM   25  C   UNL     1     -12.380  11.409  70.856  1.00  0.00    -0.381 C  
HETATM   26  O   UNL     1     -12.665  10.450  71.564  1.00  0.00    -0.386 OA 
ENDBRANCH  16  17
ENDBRANCH  15  16
ENDBRANCH  14  15
ENDBRANCH  11  14
ENDBRANCH   6   8
TORSDOF 5
ENDMDL
MODEL      140
REMARK 921   NORMALIZED FREE ENERGY PREDICTED BY IDOCK:   -4.79 KCAL/MOL
REMARK 922        TOTAL FREE ENERGY PREDICTED BY IDOCK:   -6.82 KCAL/MOL
REMARK 923 INTER-LIGAND FREE ENERGY PREDICTED BY IDOCK:   -6.25 KCAL/MOL
REMARK 924 INTRA-LIGAND FREE ENERGY PREDICTED BY IDOCK:   -0.58 KCAL/MOL
REMARK 927      BINDING AFFINITY PREDICTED BY RF-SCORE:    0.00 PKD
ROOT
HETATM    1 CL   UNL     1     -10.376   7.832  68.886  1.00  0.00    -0.220 Cl 
HETATM    2  C   UNL     1     -10.111   8.890  67.553  1.00  0.00    -0.227 A  
HETATM    3  C   UNL     1      -9.522   8.402  66.394  1.00  0.00    -0.293 A  
HETATM    4  C   UNL     1      -9.306   9.266  65.326  1.00  0.00    -0.269 A  
HETATM    5  C   UNL     1      -9.666  10.614  65.436  1.00  0.00    -0.306 A  
HETATM    6  C   UNL     1     -10.238  11.136  66.606  1.00  0.00    -0.232 A  
HETATM    7  C   UNL     1     -10.470  10.236  67.657  1.00  0.00    -0.285 A  
ENDROOT
BRANCH   6   8
HETATM    8  N   UNL     1     -10.471  12.494  66.732  1.00  0.00    -0.225 NA 
HETATM    9  C   UNL     1      -9.377  13.422  67.055  1.00  0.00    -0.243 C  
HETATM   10  C   UNL     1      -9.615  14.774  66.346  1.00  0.00    -0.301 C  
HETATM   11  N   UNL     1     -10.931  15.403  66.622  1.00  0.00    -0.304 NA 
HETATM   12  C   UNL     1     -11.828  13.023  66.949  1.00  0.00    -0.380 C  
HETATM   13  C   UNL     1     -11.978  14.408  66.268  1.00  0.00    -0.376 C  
BRANCH  11  14
HETATM   14  C   UNL     1     -11.079  15.841  68.020  1.00  0.00    -0.337 C  
BRANCH  14  15
HETATM   15  C   UNL     1     -10.651  17.293  68.242  1.00  0.00    -0.383 C  
BRANCH  15  16
HETATM   16  C   UNL     1      -9.276  17.360  68.900  1.00  0.00    -0.168 C  
BRANCH  16  17
HETATM   17  N   UNL     1      -8.411  18.282  68.204  1.00  0.00    -0.276 N  
HETATM   18  N   UNL     1      -8.881  19.162  67.247  1.00  0.00    -0.286 NA 
HETATM   19  C   UNL     1      -7.797  19.669  66.747  1.00  0.00    -0.282 A  
HETATM   20  C   UNL     1      -7.692  20.691  65.683  1.00  0.00     0.250 A  
HETATM   21  C   UNL     1      -6.459  21.075  65.305  1.00  0.00    -0.122 A  
HETATM   22  C   UNL     1      -5.270  20.500  65.909  1.00  0.00    -0.204 A  
HETATM   23  C   UNL     1      -5.389  19.571  66.871  1.00  0.00    -0.164 A  
HETATM   24  N   UNL     1      -6.639  19.189  67.269  1.00  0.00    -0.193 N  
HETATM   25  C   UNL     1      -7.005  18.254  68.208  1.00  0.00    -0.237 C  
HETATM   26  O   UNL     1      -6.279  17.531  68.881  1.00  0.00    -0.183 OA 
ENDBRANCH  16  17
ENDBRANCH  15  16
ENDBRANCH  14  15
ENDBRANCH  11  14
ENDBRANCH   6   8
TORSDOF 5
ENDMDL
MODEL      141
REMARK 921   NORMALIZED FREE ENERGY PREDICTED BY IDOCK:   -4.77 KCAL/MOL
REMARK 922        TOTAL FREE ENERGY PREDICTED BY IDOCK:   -6.80 KCAL/MOL
REMARK 923 INTER-LIGAND FREE ENERGY PREDICTED BY IDOCK:   -6.11 KCAL/MOL
REMARK 924 INTRA-LIGAND FREE ENERGY PREDICTED BY IDOCK:   -0.69 KCAL/MOL
REMARK 927      BINDING AFFINITY PREDICTED BY RF-SCORE:    0.00 PKD
ROOT
HETATM    1 CL   UNL     1      -6.694   7.893  72.014  1.00  0.00    -0.057 Cl 
HETATM    2  C   UNL     1      -6.545   9.148  70.844  1.00  0.00    -0.082 A  
HETATM    3  C   UNL     1      -5.665  10.199  71.071  1.00  0.00    -0.076 A  
HETATM    4  C   UNL     1      -5.556  11.210  70.123  1.00  0.00    -0.101 A  
HETATM    5  C   UNL     1      -6.342  11.168  68.966  1.00  0.00    -0.054 A  
HETATM    6  C   UNL     1      -7.257  10.131  68.726  1.00  0.00    -0.081 A  
HETATM    7  C   UNL     1      -7.325   9.110  69.686  1.00  0.00    -0.065 A  
ENDROOT
BRANCH   6   8
HETATM    8  N   UNL     1      -8.107  10.177  67.636  1.00  0.00    -0.109 NA 
HETATM    9  C   UNL     1      -7.971  11.229  66.617  1.00  0.00    -0.159 C  
HETATM   10  C   UNL     1      -8.342  10.658  65.228  1.00  0.00    -0.127 C  
HETATM   11  N   UNL     1      -9.681  10.024  65.149  1.00  0.00    -0.296 NA 
HETATM   12  C   UNL     1      -9.394   9.463  67.635  1.00  0.00    -0.127 C  
HETATM   13  C   UNL     1      -9.736   8.975  66.203  1.00  0.00    -0.283 C  
BRANCH  11  14
HETATM   14  C   UNL     1     -10.785  10.984  65.312  1.00  0.00    -0.164 C  
BRANCH  14  15
HETATM   15  C   UNL     1     -10.790  12.078  64.242  1.00  0.00    -0.389 C  
BRANCH  15  16
HETATM   16  C   UNL     1     -11.860  13.125  64.540  1.00  0.00    -0.377 C  
BRANCH  16  17
HETATM   17  N   UNL     1     -11.538  13.872  65.732  1.00  0.00    -0.328 N  
HETATM   18  N   UNL     1     -12.036  13.533  66.976  1.00  0.00    -0.378 NA 
HETATM   19  C   UNL     1     -11.672  14.527  67.727  1.00  0.00    -0.374 A  
HETATM   20  C   UNL     1     -11.920  14.697  69.174  1.00  0.00    -0.329 A  
HETATM   21  C   UNL     1     -11.457  15.816  69.760  1.00  0.00    -0.350 A  
HETATM   22  C   UNL     1     -10.748  16.829  69.000  1.00  0.00    -0.331 A  
HETATM   23  C   UNL     1     -10.536  16.656  67.685  1.00  0.00    -0.320 A  
HETATM   24  N   UNL     1     -10.991  15.514  67.089  1.00  0.00    -0.317 N  
HETATM   25  C   UNL     1     -10.911  15.130  65.771  1.00  0.00    -0.349 C  
HETATM   26  O   UNL     1     -10.433  15.750  64.828  1.00  0.00    -0.490 OA 
ENDBRANCH  16  17
ENDBRANCH  15  16
ENDBRANCH  14  15
ENDBRANCH  11  14
ENDBRANCH   6   8
TORSDOF 5
ENDMDL
MODEL      142
REMARK 921   NORMALIZED FREE ENERGY PREDICTED BY IDOCK:   -4.73 KCAL/MOL
REMARK 922        TOTAL FREE ENERGY PREDICTED BY IDOCK:   -6.75 KCAL/MOL
REMARK 923 INTER-LIGAND FREE ENERGY PREDICTED BY IDOCK:   -6.25 KCAL/MOL
REMARK 924 INTRA-LIGAND FREE ENERGY PREDICTED BY IDOCK:   -0.50 KCAL/MOL
REMARK 927      BINDING AFFINITY PREDICTED BY RF-SCORE:    0.00 PKD
ROOT
HETATM    1 CL   UNL     1     -13.970   8.787  72.654  1.00  0.00    -0.411 Cl 
HETATM    2  C   UNL     1     -13.225  10.125  71.865  1.00  0.00    -0.452 A  
HETATM    3  C   UNL     1     -13.486  11.416  72.307  1.00  0.00    -0.033 A  
HETATM    4  C   UNL     1     -12.885  12.489  71.660  1.00  0.00    -0.368 A  
HETATM    5  C   UNL     1     -12.043  12.262  70.566  1.00  0.00    -0.371 A  
HETATM    6  C   UNL     1     -11.784  10.969  70.085  1.00  0.00    -0.356 A  
HETATM    7  C   UNL     1     -12.381   9.903  70.775  1.00  0.00    -0.363 A  
ENDROOT
BRANCH   6   8
HETATM    8  N   UNL     1     -11.046  10.780  68.930  1.00  0.00    -0.233 NA 
HETATM    9  C   UNL     1     -11.113  11.748  67.825  1.00  0.00    -0.243 C  
HETATM   10  C   UNL     1      -9.736  11.838  67.129  1.00  0.00    -0.183 C  
HETATM   11  N   UNL     1      -9.187  10.543  66.656  1.00  0.00    -0.155 NA 
HETATM   12  C   UNL     1     -10.495   9.461  68.578  1.00  0.00    -0.208 C  
HETATM   13  C   UNL     1      -9.148   9.626  67.827  1.00  0.00    -0.124 C  
BRANCH  11  14
HETATM   14  C   UNL     1      -9.968   9.952  65.557  1.00  0.00    -0.292 C  
BRANCH  14  15
HETATM   15  C   UNL     1      -9.158   9.783  64.270  1.00  0.00    -0.293 C  
BRANCH  15  16
HETATM   16  C   UNL     1      -9.859  10.455  63.093  1.00  0.00    -0.158 C  
BRANCH  16  17
HETATM   17  N   UNL     1     -10.328  11.772  63.451  1.00  0.00    -0.423 N  
HETATM   18  N   UNL     1      -9.497  12.733  63.996  1.00  0.00     0.239 NA 
HETATM   19  C   UNL     1     -10.315  13.681  64.335  1.00  0.00    -0.216 A  
HETATM   20  C   UNL     1      -9.977  14.979  64.958  1.00  0.00    -0.188 A  
HETATM   21  C   UNL     1     -10.989  15.821  65.235  1.00  0.00    -0.354 A  
HETATM   22  C   UNL     1     -12.367  15.468  64.945  1.00  0.00     0.341 A  
HETATM   23  C   UNL     1     -12.652  14.283  64.381  1.00  0.00    -0.167 A  
HETATM   24  N   UNL     1     -11.626  13.430  64.084  1.00  0.00    -0.396 N  
HETATM   25  C   UNL     1     -11.674  12.173  63.531  1.00  0.00    -0.490 C  
HETATM   26  O   UNL     1     -12.661  11.524  63.207  1.00  0.00    -0.350 OA 
ENDBRANCH  16  17
ENDBRANCH  15  16
ENDBRANCH  14  15
ENDBRANCH  11  14
ENDBRANCH   6   8
TORSDOF 5
ENDMDL
MODEL      143
REMARK 921   NORMALIZED FREE ENERGY PREDICTED BY IDOCK:   -4.73 KCAL/MOL
REMARK 922        TOTAL FREE ENERGY PREDICTED BY IDOCK:   -6.74 KCAL/MOL
REMARK 923 INTER-LIGAND FREE ENERGY PREDICTED BY IDOCK:   -6.46 KCAL/MOL
REMARK 924 INTRA-LIGAND FREE ENERGY PREDICTED BY IDOCK:   -0.28 KCAL/MOL
REMARK 927      BINDING AFFINITY PREDICTED BY RF-SCORE:    0.00 PKD
ROOT
HETATM    1 CL   UNL     1     -10.866  20.129  65.453  1.00  0.00    -0.257 Cl 
HETATM    2  C   UNL     1     -10.571  19.119  66.817  1.00  0.00    -0.439 A  
HETATM    3  C   UNL     1     -10.220  19.692  68.033  1.00  0.00    -0.579 A  
HETATM    4  C   UNL     1      -9.978  18.868  69.126  1.00  0.00    -0.273 A  
HETATM    5  C   UNL     1     -10.071  17.479  68.987  1.00  0.00    -0.291 A  
HETATM    6  C   UNL     1     -10.398  16.876  67.762  1.00  0.00    -0.327 A  
HETATM    7  C   UNL     1     -10.666  17.732  66.683  1.00  0.00    -0.124 A  
ENDROOT
BRANCH   6   8
HETATM    8  N   UNL     1     -10.365  15.500  67.622  1.00  0.00    -0.263 NA 
HETATM    9  C   UNL     1     -10.927  14.621  68.658  1.00  0.00    -0.256 C  
HETATM   10  C   UNL     1     -11.537  13.363  67.997  1.00  0.00    -0.334 C  
HETATM   11  N   UNL     1     -10.613  12.607  67.117  1.00  0.00    -0.234 NA 
HETATM   12  C   UNL     1      -9.445  14.847  66.675  1.00  0.00    -0.265 C  
HETATM   13  C   UNL     1     -10.093  13.560  66.100  1.00  0.00    -0.304 C  
BRANCH  11  14
HETATM   14  C   UNL     1      -9.505  11.973  67.852  1.00  0.00    -0.196 C  
BRANCH  14  15
HETATM   15  C   UNL     1      -9.977  11.144  69.048  1.00  0.00    -0.155 C  
BRANCH  15  16
HETATM   16  C   UNL     1     -10.433   9.758  68.604  1.00  0.00    -0.208 C  
BRANCH  16  17
HETATM   17  N   UNL     1     -10.307   8.800  69.676  1.00  0.00    -0.208 N  
HETATM   18  N   UNL     1     -11.396   8.138  70.210  1.00  0.00    -0.192 NA 
HETATM   19  C   UNL     1     -10.899   7.525  71.240  1.00  0.00    -0.235 A  
HETATM   20  C   UNL     1     -11.610   6.641  72.189  1.00  0.00    -0.335 A  
HETATM   21  C   UNL     1     -10.900   6.110  73.200  1.00  0.00    -0.279 A  
HETATM   22  C   UNL     1      -9.487   6.399  73.365  1.00  0.00    -0.151 A  
HETATM   23  C   UNL     1      -8.861   7.206  72.493  1.00  0.00    -0.123 A  
HETATM   24  N   UNL     1      -9.575   7.737  71.456  1.00  0.00    -0.154 N  
HETATM   25  C   UNL     1      -9.160   8.594  70.464  1.00  0.00    -0.165 C  
HETATM   26  O   UNL     1      -8.054   9.097  70.309  1.00  0.00    -0.112 OA 
ENDBRANCH  16  17
ENDBRANCH  15  16
ENDBRANCH  14  15
ENDBRANCH  11  14
ENDBRANCH   6   8
TORSDOF 5
ENDMDL
MODEL      144
REMARK 921   NORMALIZED FREE ENERGY PREDICTED BY IDOCK:   -4.72 KCAL/MOL
REMARK 922        TOTAL FREE ENERGY PREDICTED BY IDOCK:   -6.74 KCAL/MOL
REMARK 923 INTER-LIGAND FREE ENERGY PREDICTED BY IDOCK:   -6.02 KCAL/MOL
REMARK 924 INTRA-LIGAND FREE ENERGY PREDICTED BY IDOCK:   -0.72 KCAL/MOL
REMARK 927      BINDING AFFINITY PREDICTED BY RF-SCORE:    0.00 PKD
ROOT
HETATM    1 CL   UNL     1     -11.693  16.005  64.211  1.00  0.00    -0.282 Cl 
HETATM    2  C   UNL     1     -10.792  15.219  65.451  1.00  0.00    -0.387 A  
HETATM    3  C   UNL     1     -10.318  15.957  66.528  1.00  0.00    -0.304 A  
HETATM    4  C   UNL     1      -9.587  15.314  67.521  1.00  0.00    -0.206 A  
HETATM    5  C   UNL     1      -9.322  13.944  67.416  1.00  0.00    -0.228 A  
HETATM    6  C   UNL     1      -9.768  13.183  66.324  1.00  0.00    -0.265 A  
HETATM    7  C   UNL     1     -10.528  13.851  65.352  1.00  0.00    -0.357 A  
ENDROOT
BRANCH   6   8
HETATM    8  N   UNL     1      -9.390  11.860  66.184  1.00  0.00    -0.227 NA 
HETATM    9  C   UNL     1     -10.387  10.816  65.902  1.00  0.00    -0.238 C  
HETATM   10  C   UNL     1      -9.759   9.728  65.001  1.00  0.00    -0.233 C  
HETATM   11  N   UNL     1      -8.507   9.127  65.524  1.00  0.00    -0.138 NA 
HETATM   12  C   UNL     1      -8.095  11.373  66.690  1.00  0.00    -0.155 C  
HETATM   13  C   UNL     1      -7.555  10.241  65.778  1.00  0.00    -0.143 C  
BRANCH  11  14
HETATM   14  C   UNL     1      -8.715   8.330  66.744  1.00  0.00    -0.133 C  
BRANCH  14  15
HETATM   15  C   UNL     1      -9.552   7.073  66.503  1.00  0.00    -0.201 C  
BRANCH  15  16
HETATM   16  C   UNL     1      -9.202   5.983  67.512  1.00  0.00    -0.111 C  
BRANCH  16  17
HETATM   17  N   UNL     1      -9.724   6.299  68.820  1.00  0.00    -0.127 N  
HETATM   18  N   UNL     1     -11.063   6.560  69.040  1.00  0.00    -0.315 NA 
HETATM   19  C   UNL     1     -11.091   6.966  70.273  1.00  0.00    -0.297 A  
HETATM   20  C   UNL     1     -12.276   7.373  71.057  1.00  0.00    -0.315 A  
HETATM   21  C   UNL     1     -12.079   7.770  72.327  1.00  0.00    -0.332 A  
HETATM   22  C   UNL     1     -10.749   7.810  72.908  1.00  0.00    -0.446 A  
HETATM   23  C   UNL     1      -9.686   7.439  72.177  1.00  0.00    -0.150 A  
HETATM   24  N   UNL     1      -9.883   7.021  70.891  1.00  0.00    -0.185 N  
HETATM   25  C   UNL     1      -8.959   6.617  69.957  1.00  0.00    -0.144 C  
HETATM   26  O   UNL     1      -7.740   6.572  70.066  1.00  0.00    -0.097 OA 
ENDBRANCH  16  17
ENDBRANCH  15  16
ENDBRANCH  14  15
ENDBRANCH  11  14
ENDBRANCH   6   8
TORSDOF 5
ENDMDL
MODEL      145
REMARK 921   NORMALIZED FREE ENERGY PREDICTED BY IDOCK:   -4.70 KCAL/MOL
REMARK 922        TOTAL FREE ENERGY PREDICTED BY IDOCK:   -6.71 KCAL/MOL
REMARK 923 INTER-LIGAND FREE ENERGY PREDICTED BY IDOCK:   -6.37 KCAL/MOL
REMARK 924 INTRA-LIGAND FREE ENERGY PREDICTED BY IDOCK:   -0.34 KCAL/MOL
REMARK 927      BINDING AFFINITY PREDICTED BY RF-SCORE:    0.00 PKD
ROOT
HETATM    1 CL   UNL     1     -10.771   6.649  71.336  1.00  0.00    -0.254 Cl 
HETATM    2  C   UNL     1      -9.444   6.842  70.256  1.00  0.00    -0.162 A  
HETATM    3  C   UNL     1      -8.244   6.194  70.518  1.00  0.00    -0.114 A  
HETATM    4  C   UNL     1      -7.176   6.361  69.643  1.00  0.00    -0.078 A  
HETATM    5  C   UNL     1      -7.315   7.189  68.523  1.00  0.00    -0.100 A  
HETATM    6  C   UNL     1      -8.509   7.874  68.251  1.00  0.00    -0.124 A  
HETATM    7  C   UNL     1      -9.579   7.665  69.135  1.00  0.00    -0.155 A  
ENDROOT
BRANCH   6   8
HETATM    8  N   UNL     1      -8.581   8.780  67.207  1.00  0.00    -0.121 NA 
HETATM    9  C   UNL     1      -7.862  10.060  67.268  1.00  0.00    -0.102 C  
HETATM   10  C   UNL     1      -7.386  10.457  65.851  1.00  0.00    -0.135 C  
HETATM   11  N   UNL     1      -8.454  10.507  64.823  1.00  0.00    -0.170 NA 
HETATM   12  C   UNL     1      -9.655   8.708  66.201  1.00  0.00    -0.235 C  
HETATM   13  C   UNL     1      -9.128   9.180  64.821  1.00  0.00    -0.099 C  
BRANCH  11  14
HETATM   14  C   UNL     1      -9.428  11.586  65.054  1.00  0.00    -0.152 C  
BRANCH  14  15
HETATM   15  C   UNL     1     -10.494  11.677  63.960  1.00  0.00    -0.418 C  
BRANCH  15  16
HETATM   16  C   UNL     1     -11.808  12.211  64.522  1.00  0.00    -0.343 C  
BRANCH  16  17
HETATM   17  N   UNL     1     -11.741  12.349  65.956  1.00  0.00    -0.408 N  
HETATM   18  N   UNL     1     -11.628  11.261  66.802  1.00  0.00    -0.394 NA 
HETATM   19  C   UNL     1     -11.781  11.780  67.981  1.00  0.00    -0.293 A  
HETATM   20  C   UNL     1     -11.739  11.079  69.283  1.00  0.00    -0.397 A  
HETATM   21  C   UNL     1     -11.931  11.813  70.393  1.00  0.00    -0.422 A  
HETATM   22  C   UNL     1     -12.180  13.242  70.322  1.00  0.00    -0.391 A  
HETATM   23  C   UNL     1     -12.216  13.857  69.129  1.00  0.00    -0.267 A  
HETATM   24  N   UNL     1     -12.008  13.119  67.999  1.00  0.00    -0.342 N  
HETATM   25  C   UNL     1     -12.018  13.520  66.684  1.00  0.00    -0.404 C  
HETATM   26  O   UNL     1     -12.247  14.636  66.233  1.00  0.00    -0.293 OA 
ENDBRANCH  16  17
ENDBRANCH  15  16
ENDBRANCH  14  15
ENDBRANCH  11  14
ENDBRANCH   6   8
TORSDOF 5
ENDMDL
MODEL      146
REMARK 921   NORMALIZED FREE ENERGY PREDICTED BY IDOCK:   -4.69 KCAL/MOL
REMARK 922        TOTAL FREE ENERGY PREDICTED BY IDOCK:   -6.70 KCAL/MOL
REMARK 923 INTER-LIGAND FREE ENERGY PREDICTED BY IDOCK:   -6.22 KCAL/MOL
REMARK 924 INTRA-LIGAND FREE ENERGY PREDICTED BY IDOCK:   -0.47 KCAL/MOL
REMARK 927      BINDING AFFINITY PREDICTED BY RF-SCORE:    0.00 PKD
ROOT
HETATM    1 CL   UNL     1      -9.131  16.218  65.873  1.00  0.00    -0.320 Cl 
HETATM    2  C   UNL     1     -10.247  14.908  65.927  1.00  0.00    -0.314 A  
HETATM    3  C   UNL     1     -11.351  14.910  65.084  1.00  0.00    -0.379 A  
HETATM    4  C   UNL     1     -12.250  13.851  65.140  1.00  0.00    -0.443 A  
HETATM    5  C   UNL     1     -12.044  12.809  66.051  1.00  0.00    -0.458 A  
HETATM    6  C   UNL     1     -10.950  12.796  66.930  1.00  0.00    -0.260 A  
HETATM    7  C   UNL     1     -10.044  13.863  66.833  1.00  0.00    -0.260 A  
ENDROOT
BRANCH   6   8
HETATM    8  N   UNL     1     -10.836  11.818  67.902  1.00  0.00    -0.201 NA 
HETATM    9  C   UNL     1      -9.781  10.797  67.825  1.00  0.00    -0.162 C  
HETATM   10  C   UNL     1      -9.313  10.424  69.250  1.00  0.00    -0.187 C  
HETATM   11  N   UNL     1     -10.393   9.991  70.171  1.00  0.00    -0.274 NA 
HETATM   12  C   UNL     1     -11.954  11.502  68.807  1.00  0.00    -0.271 C  
HETATM   13  C   UNL     1     -11.412  11.074  70.196  1.00  0.00    -0.296 C  
BRANCH  11  14
HETATM   14  C   UNL     1     -11.004   8.709  69.781  1.00  0.00    -0.127 C  
BRANCH  14  15
HETATM   15  C   UNL     1     -10.108   7.504  70.075  1.00  0.00    -0.199 C  
BRANCH  15  16
HETATM   16  C   UNL     1     -10.884   6.199  69.922  1.00  0.00    -0.353 C  
BRANCH  16  17
HETATM   17  N   UNL     1     -10.494   5.242  70.929  1.00  0.00    -0.236 N  
HETATM   18  N   UNL     1      -9.739   4.122  70.635  1.00  0.00    -0.197 NA 
HETATM   19  C   UNL     1      -9.760   3.446  71.742  1.00  0.00    -0.166 A  
HETATM   20  C   UNL     1      -9.098   2.154  72.018  1.00  0.00    -0.132 A  
HETATM   21  C   UNL     1      -9.256   1.618  73.242  1.00  0.00    -0.074 A  
HETATM   22  C   UNL     1     -10.058   2.278  74.257  1.00  0.00    -0.163 A  
HETATM   23  C   UNL     1     -10.653   3.450  73.984  1.00  0.00    -0.201 A  
HETATM   24  N   UNL     1     -10.483   4.005  72.748  1.00  0.00    -0.170 N  
HETATM   25  C   UNL     1     -11.003   5.171  72.238  1.00  0.00    -0.143 C  
HETATM   26  O   UNL     1     -11.766   5.962  72.781  1.00  0.00    -0.240 OA 
ENDBRANCH  16  17
ENDBRANCH  15  16
ENDBRANCH  14  15
ENDBRANCH  11  14
ENDBRANCH   6   8
TORSDOF 5
ENDMDL
MODEL      147
REMARK 921   NORMALIZED FREE ENERGY PREDICTED BY IDOCK:   -4.67 KCAL/MOL
REMARK 922        TOTAL FREE ENERGY PREDICTED BY IDOCK:   -6.67 KCAL/MOL
REMARK 923 INTER-LIGAND FREE ENERGY PREDICTED BY IDOCK:   -5.37 KCAL/MOL
REMARK 924 INTRA-LIGAND FREE ENERGY PREDICTED BY IDOCK:   -1.29 KCAL/MOL
REMARK 927      BINDING AFFINITY PREDICTED BY RF-SCORE:    0.00 PKD
ROOT
HETATM    1 CL   UNL     1     -11.886  11.803  69.130  1.00  0.00    -0.376 Cl 
HETATM    2  C   UNL     1     -12.171  10.599  70.328  1.00  0.00    -0.334 A  
HETATM    3  C   UNL     1     -13.146  10.809  71.295  1.00  0.00    -0.427 A  
HETATM    4  C   UNL     1     -13.365   9.833  72.261  1.00  0.00    -0.472 A  
HETATM    5  C   UNL     1     -12.593   8.666  72.261  1.00  0.00    -0.457 A  
HETATM    6  C   UNL     1     -11.585   8.443  71.311  1.00  0.00    -0.283 A  
HETATM    7  C   UNL     1     -11.405   9.430  70.331  1.00  0.00    -0.295 A  
ENDROOT
BRANCH   6   8
HETATM    8  N   UNL     1     -10.757   7.339  71.407  1.00  0.00    -0.227 NA 
HETATM    9  C   UNL     1      -9.339   7.422  71.023  1.00  0.00    -0.157 C  
HETATM   10  C   UNL     1      -8.499   6.499  71.934  1.00  0.00    -0.119 C  
HETATM   11  N   UNL     1      -8.945   5.084  71.975  1.00  0.00    -0.131 NA 
HETATM   12  C   UNL     1     -11.303   5.974  71.500  1.00  0.00    -0.246 C  
HETATM   13  C   UNL     1     -10.379   5.086  72.373  1.00  0.00    -0.206 C  
BRANCH  11  14
HETATM   14  C   UNL     1      -8.761   4.383  70.694  1.00  0.00    -0.090 C  
BRANCH  14  15
HETATM   15  C   UNL     1      -7.380   4.615  70.077  1.00  0.00    -0.054 C  
BRANCH  15  16
HETATM   16  C   UNL     1      -7.479   4.761  68.562  1.00  0.00    -0.066 C  
BRANCH  16  17
HETATM   17  N   UNL     1      -8.002   6.055  68.197  1.00  0.00    -0.109 N  
HETATM   18  N   UNL     1      -9.249   6.216  67.621  1.00  0.00    -0.109 NA 
HETATM   19  C   UNL     1      -9.267   7.470  67.289  1.00  0.00    -0.131 A  
HETATM   20  C   UNL     1     -10.370   8.212  66.642  1.00  0.00    -0.284 A  
HETATM   21  C   UNL     1     -10.175   9.516  66.376  1.00  0.00    -0.302 A  
HETATM   22  C   UNL     1      -8.923  10.174  66.702  1.00  0.00    -0.156 A  
HETATM   23  C   UNL     1      -7.933   9.481  67.287  1.00  0.00    -0.106 A  
HETATM   24  N   UNL     1      -8.131   8.160  67.572  1.00  0.00    -0.121 N  
HETATM   25  C   UNL     1      -7.269   7.254  68.142  1.00  0.00    -0.091 C  
HETATM   26  O   UNL     1      -6.109   7.431  68.497  1.00  0.00    -0.026 OA 
ENDBRANCH  16  17
ENDBRANCH  15  16
ENDBRANCH  14  15
ENDBRANCH  11  14
ENDBRANCH   6   8
TORSDOF 5
ENDMDL
MODEL      148
REMARK 921   NORMALIZED FREE ENERGY PREDICTED BY IDOCK:   -4.67 KCAL/MOL
REMARK 922        TOTAL FREE ENERGY PREDICTED BY IDOCK:   -6.66 KCAL/MOL
REMARK 923 INTER-LIGAND FREE ENERGY PREDICTED BY IDOCK:   -6.21 KCAL/MOL
REMARK 924 INTRA-LIGAND FREE ENERGY PREDICTED BY IDOCK:   -0.45 KCAL/MOL
REMARK 927      BINDING AFFINITY PREDICTED BY RF-SCORE:    0.00 PKD
ROOT
HETATM    1 CL   UNL     1     -12.052  16.440  72.507  1.00  0.00    -0.586 Cl 
HETATM    2  C   UNL     1     -12.395  14.853  71.931  1.00  0.00    -0.344 A  
HETATM    3  C   UNL     1     -13.201  14.008  72.683  1.00  0.00    -0.606 A  
HETATM    4  C   UNL     1     -13.466  12.727  72.212  1.00  0.00    -0.591 A  
HETATM    5  C   UNL     1     -12.908  12.299  71.003  1.00  0.00    -0.251 A  
HETATM    6  C   UNL     1     -12.070  13.125  70.238  1.00  0.00    -0.328 A  
HETATM    7  C   UNL     1     -11.842  14.422  70.722  1.00  0.00    -0.349 A  
ENDROOT
BRANCH   6   8
HETATM    8  N   UNL     1     -11.434  12.636  69.110  1.00  0.00    -0.288 NA 
HETATM    9  C   UNL     1     -12.023  12.815  67.775  1.00  0.00    -0.260 C  
HETATM   10  C   UNL     1     -10.898  12.998  66.731  1.00  0.00    -0.268 C  
HETATM   11  N   UNL     1      -9.879  11.919  66.712  1.00  0.00    -0.195 NA 
HETATM   12  C   UNL     1     -10.392  11.601  69.205  1.00  0.00    -0.014 C  
HETATM   13  C   UNL     1      -9.332  11.805  68.090  1.00  0.00    -0.190 C  
BRANCH  11  14
HETATM   14  C   UNL     1     -10.416  10.626  66.255  1.00  0.00    -0.203 C  
BRANCH  14  15
HETATM   15  C   UNL     1      -9.526   9.441  66.633  1.00  0.00    -0.230 C  
BRANCH  15  16
HETATM   16  C   UNL     1     -10.325   8.141  66.641  1.00  0.00    -0.213 C  
BRANCH  16  17
HETATM   17  N   UNL     1      -9.627   7.106  67.364  1.00  0.00    -0.132 N  
HETATM   18  N   UNL     1      -8.339   6.718  67.045  1.00  0.00    -0.113 NA 
HETATM   19  C   UNL     1      -8.148   5.671  67.786  1.00  0.00    -0.101 A  
HETATM   20  C   UNL     1      -6.927   4.842  67.872  1.00  0.00    -0.061 A  
HETATM   21  C   UNL     1      -6.945   3.787  68.707  1.00  0.00    -0.047 A  
HETATM   22  C   UNL     1      -8.124   3.463  69.490  1.00  0.00    -0.064 A  
HETATM   23  C   UNL     1      -9.224   4.228  69.394  1.00  0.00    -0.137 A  
HETATM   24  N   UNL     1      -9.205   5.308  68.559  1.00  0.00    -0.110 N  
HETATM   25  C   UNL     1     -10.204   6.212  68.285  1.00  0.00    -0.175 C  
HETATM   26  O   UNL     1     -11.352   6.228  68.713  1.00  0.00    -0.356 OA 
ENDBRANCH  16  17
ENDBRANCH  15  16
ENDBRANCH  14  15
ENDBRANCH  11  14
ENDBRANCH   6   8
TORSDOF 5
ENDMDL
MODEL      149
REMARK 921   NORMALIZED FREE ENERGY PREDICTED BY IDOCK:   -4.67 KCAL/MOL
REMARK 922        TOTAL FREE ENERGY PREDICTED BY IDOCK:   -6.66 KCAL/MOL
REMARK 923 INTER-LIGAND FREE ENERGY PREDICTED BY IDOCK:   -6.14 KCAL/MOL
REMARK 924 INTRA-LIGAND FREE ENERGY PREDICTED BY IDOCK:   -0.53 KCAL/MOL
REMARK 927      BINDING AFFINITY PREDICTED BY RF-SCORE:    0.00 PKD
ROOT
HETATM    1 CL   UNL     1     -10.269   5.168  70.092  1.00  0.00    -0.340 Cl 
HETATM    2  C   UNL     1      -9.414   6.641  69.838  1.00  0.00    -0.156 A  
HETATM    3  C   UNL     1      -8.092   6.748  70.250  1.00  0.00    -0.120 A  
HETATM    4  C   UNL     1      -7.412   7.944  70.045  1.00  0.00    -0.079 A  
HETATM    5  C   UNL     1      -8.068   9.026  69.447  1.00  0.00    -0.108 A  
HETATM    6  C   UNL     1      -9.411   8.950  69.046  1.00  0.00    -0.156 A  
HETATM    7  C   UNL     1     -10.064   7.723  69.239  1.00  0.00    -0.199 A  
ENDROOT
BRANCH   6   8
HETATM    8  N   UNL     1     -10.070  10.070  68.570  1.00  0.00    -0.163 NA 
HETATM    9  C   UNL     1      -9.749  10.629  67.249  1.00  0.00    -0.168 C  
HETATM   10  C   UNL     1     -11.029  11.214  66.607  1.00  0.00    -0.228 C  
HETATM   11  N   UNL     1     -11.745  12.214  67.438  1.00  0.00    -0.509 NA 
HETATM   12  C   UNL     1     -10.803  10.972  69.474  1.00  0.00    -0.216 C  
HETATM   13  C   UNL     1     -12.035  11.573  68.748  1.00  0.00    -0.271 C  
BRANCH  11  14
HETATM   14  C   UNL     1     -10.984  13.460  67.624  1.00  0.00    -0.259 C  
BRANCH  14  15
HETATM   15  C   UNL     1     -11.716  14.694  67.092  1.00  0.00    -0.392 C  
BRANCH  15  16
HETATM   16  C   UNL     1     -11.516  15.888  68.022  1.00  0.00    -0.236 C  
BRANCH  16  17
HETATM   17  N   UNL     1     -10.179  16.418  67.907  1.00  0.00    -0.260 N  
HETATM   18  N   UNL     1      -9.219  16.226  68.882  1.00  0.00    -0.239 NA 
HETATM   19  C   UNL     1      -8.243  16.991  68.498  1.00  0.00    -0.259 A  
HETATM   20  C   UNL     1      -6.933  17.175  69.158  1.00  0.00    -0.224 A  
HETATM   21  C   UNL     1      -6.062  18.029  68.591  1.00  0.00    -0.195 A  
HETATM   22  C   UNL     1      -6.396  18.754  67.378  1.00  0.00    -0.191 A  
HETATM   23  C   UNL     1      -7.592  18.573  66.796  1.00  0.00    -0.229 A  
HETATM   24  N   UNL     1      -8.475  17.697  67.361  1.00  0.00    -0.219 N  
HETATM   25  C   UNL     1      -9.749  17.367  66.962  1.00  0.00    -0.276 C  
HETATM   26  O   UNL     1     -10.387  17.816  66.017  1.00  0.00    -0.442 OA 
ENDBRANCH  16  17
ENDBRANCH  15  16
ENDBRANCH  14  15
ENDBRANCH  11  14
ENDBRANCH   6   8
TORSDOF 5
ENDMDL
MODEL      150
REMARK 921   NORMALIZED FREE ENERGY PREDICTED BY IDOCK:   -4.66 KCAL/MOL
REMARK 922        TOTAL FREE ENERGY PREDICTED BY IDOCK:   -6.66 KCAL/MOL
REMARK 923 INTER-LIGAND FREE ENERGY PREDICTED BY IDOCK:   -6.22 KCAL/MOL
REMARK 924 INTRA-LIGAND FREE ENERGY PREDICTED BY IDOCK:   -0.44 KCAL/MOL
REMARK 927      BINDING AFFINITY PREDICTED BY RF-SCORE:    0.00 PKD
ROOT
HETATM    1 CL   UNL     1      -9.594  20.073  67.028  1.00  0.00    -0.509 Cl 
HETATM    2  C   UNL     1     -10.165  18.556  67.608  1.00  0.00    -0.387 A  
HETATM    3  C   UNL     1     -10.244  18.328  68.976  1.00  0.00    -0.217 A  
HETATM    4  C   UNL     1     -10.700  17.098  69.434  1.00  0.00    -0.086 A  
HETATM    5  C   UNL     1     -11.057  16.101  68.519  1.00  0.00    -0.357 A  
HETATM    6  C   UNL     1     -10.962  16.298  67.133  1.00  0.00    -0.114 A  
HETATM    7  C   UNL     1     -10.525  17.558  66.698  1.00  0.00    -0.270 A  
ENDROOT
BRANCH   6   8
HETATM    8  N   UNL     1     -11.204  15.257  66.254  1.00  0.00    -0.278 NA 
HETATM    9  C   UNL     1     -11.113  13.858  66.696  1.00  0.00    -0.306 C  
HETATM   10  C   UNL     1     -12.160  13.005  65.943  1.00  0.00    -0.444 C  
HETATM   11  N   UNL     1     -12.090  13.090  64.463  1.00  0.00    -0.387 NA 
HETATM   12  C   UNL     1     -11.166  15.460  64.795  1.00  0.00    -0.395 C  
HETATM   13  C   UNL     1     -12.192  14.529  64.099  1.00  0.00    -0.342 C  
BRANCH  11  14
HETATM   14  C   UNL     1     -10.861  12.498  63.909  1.00  0.00    -0.431 C  
BRANCH  14  15
HETATM   15  C   UNL     1     -10.454  11.199  64.607  1.00  0.00    -0.400 C  
BRANCH  15  16
HETATM   16  C   UNL     1      -9.626  10.318  63.677  1.00  0.00    -0.277 C  
BRANCH  16  17
HETATM   17  N   UNL     1      -8.754   9.446  64.427  1.00  0.00    -0.198 N  
HETATM   18  N   UNL     1      -9.056   9.017  65.705  1.00  0.00    -0.215 NA 
HETATM   19  C   UNL     1      -7.969   8.420  66.086  1.00  0.00    -0.100 A  
HETATM   20  C   UNL     1      -7.719   7.746  67.378  1.00  0.00    -0.113 A  
HETATM   21  C   UNL     1      -6.508   7.193  67.572  1.00  0.00    -0.054 A  
HETATM   22  C   UNL     1      -5.475   7.262  66.554  1.00  0.00    -0.024 A  
HETATM   23  C   UNL     1      -5.722   7.881  65.388  1.00  0.00    -0.037 A  
HETATM   24  N   UNL     1      -6.955   8.431  65.181  1.00  0.00    -0.073 N  
HETATM   25  C   UNL     1      -7.427   9.123  64.091  1.00  0.00    -0.109 C  
HETATM   26  O   UNL     1      -6.826   9.425  63.066  1.00  0.00    -0.097 OA 
ENDBRANCH  16  17
ENDBRANCH  15  16
ENDBRANCH  14  15
ENDBRANCH  11  14
ENDBRANCH   6   8
TORSDOF 5
ENDMDL
MODEL      151
REMARK 921   NORMALIZED FREE ENERGY PREDICTED BY IDOCK:   -4.65 KCAL/MOL
REMARK 922        TOTAL FREE ENERGY PREDICTED BY IDOCK:   -6.64 KCAL/MOL
REMARK 923 INTER-LIGAND FREE ENERGY PREDICTED BY IDOCK:   -6.19 KCAL/MOL
REMARK 924 INTRA-LIGAND FREE ENERGY PREDICTED BY IDOCK:   -0.45 KCAL/MOL
REMARK 927      BINDING AFFINITY PREDICTED BY RF-SCORE:    0.00 PKD
ROOT
HETATM    1 CL   UNL     1     -10.900  19.824  67.029  1.00  0.00    -0.549 Cl 
HETATM    2  C   UNL     1      -9.847  18.464  66.943  1.00  0.00    -0.338 A  
HETATM    3  C   UNL     1      -8.495  18.656  66.689  1.00  0.00    -0.301 A  
HETATM    4  C   UNL     1      -7.655  17.550  66.615  1.00  0.00    -0.286 A  
HETATM    5  C   UNL     1      -8.179  16.263  66.780  1.00  0.00    -0.294 A  
HETATM    6  C   UNL     1      -9.546  16.042  67.012  1.00  0.00    -0.219 A  
HETATM    7  C   UNL     1     -10.365  17.177  67.110  1.00  0.00    -0.307 A  
ENDROOT
BRANCH   6   8
HETATM    8  N   UNL     1     -10.057  14.758  67.050  1.00  0.00    -0.243 NA 
HETATM    9  C   UNL     1     -10.627  14.208  68.289  1.00  0.00    -0.251 C  
HETATM   10  C   UNL     1     -11.801  13.262  67.946  1.00  0.00    -0.349 C  
HETATM   11  N   UNL     1     -11.468  12.171  66.996  1.00  0.00    -0.367 NA 
HETATM   12  C   UNL     1      -9.708  13.762  66.023  1.00  0.00    -0.237 C  
HETATM   13  C   UNL     1     -10.904  12.806  65.775  1.00  0.00    -0.272 C  
BRANCH  11  14
HETATM   14  C   UNL     1     -10.527  11.186  67.554  1.00  0.00    -0.204 C  
BRANCH  14  15
HETATM   15  C   UNL     1     -10.901   9.742  67.217  1.00  0.00    -0.247 C  
BRANCH  15  16
HETATM   16  C   UNL     1     -10.199   8.764  68.155  1.00  0.00    -0.205 C  
BRANCH  16  17
HETATM   17  N   UNL     1      -9.824   7.557  67.461  1.00  0.00    -0.151 N  
HETATM   18  N   UNL     1      -9.107   7.572  66.279  1.00  0.00    -0.168 NA 
HETATM   19  C   UNL     1      -9.132   6.333  65.896  1.00  0.00    -0.067 A  
HETATM   20  C   UNL     1      -8.505   5.753  64.689  1.00  0.00    -0.061 A  
HETATM   21  C   UNL     1      -8.662   4.434  64.476  1.00  0.00    -0.144 A  
HETATM   22  C   UNL     1      -9.428   3.606  65.390  1.00  0.00    -0.160 A  
HETATM   23  C   UNL     1      -9.991   4.154  66.479  1.00  0.00    -0.141 A  
HETATM   24  N   UNL     1      -9.823   5.490  66.708  1.00  0.00    -0.152 N  
HETATM   25  C   UNL     1     -10.315   6.266  67.730  1.00  0.00    -0.195 C  
HETATM   26  O   UNL     1     -11.045   5.929  68.655  1.00  0.00    -0.284 OA 
ENDBRANCH  16  17
ENDBRANCH  15  16
ENDBRANCH  14  15
ENDBRANCH  11  14
ENDBRANCH   6   8
TORSDOF 5
ENDMDL
MODEL      152
REMARK 921   NORMALIZED FREE ENERGY PREDICTED BY IDOCK:   -4.65 KCAL/MOL
REMARK 922        TOTAL FREE ENERGY PREDICTED BY IDOCK:   -6.64 KCAL/MOL
REMARK 923 INTER-LIGAND FREE ENERGY PREDICTED BY IDOCK:   -5.66 KCAL/MOL
REMARK 924 INTRA-LIGAND FREE ENERGY PREDICTED BY IDOCK:   -0.98 KCAL/MOL
REMARK 927      BINDING AFFINITY PREDICTED BY RF-SCORE:    0.00 PKD
ROOT
HETATM    1 CL   UNL     1     -12.037  14.243  67.285  1.00  0.00    -0.436 Cl 
HETATM    2  C   UNL     1     -10.715  13.223  67.712  1.00  0.00    -0.244 A  
HETATM    3  C   UNL     1      -9.473  13.427  67.126  1.00  0.00    -0.244 A  
HETATM    4  C   UNL     1      -8.414  12.596  67.474  1.00  0.00    -0.176 A  
HETATM    5  C   UNL     1      -8.614  11.557  68.390  1.00  0.00    -0.159 A  
HETATM    6  C   UNL     1      -9.867  11.315  68.975  1.00  0.00    -0.082 A  
HETATM    7  C   UNL     1     -10.910  12.187  68.629  1.00  0.00    -0.268 A  
ENDROOT
BRANCH   6   8
HETATM    8  N   UNL     1     -10.067  10.210  69.783  1.00  0.00    -0.238 NA 
HETATM    9  C   UNL     1      -8.929   9.431  70.293  1.00  0.00    -0.240 C  
HETATM   10  C   UNL     1      -9.259   8.890  71.703  1.00  0.00    -0.231 C  
HETATM   11  N   UNL     1     -10.513   8.101  71.793  1.00  0.00    -0.227 NA 
HETATM   12  C   UNL     1     -11.372   9.529  69.844  1.00  0.00    -0.126 C  
HETATM   13  C   UNL     1     -11.610   8.955  71.265  1.00  0.00    -0.304 C  
BRANCH  11  14
HETATM   14  C   UNL     1     -10.446   6.826  71.061  1.00  0.00    -0.212 C  
BRANCH  14  15
HETATM   15  C   UNL     1     -11.507   6.709  69.964  1.00  0.00    -0.434 C  
BRANCH  15  16
HETATM   16  C   UNL     1     -10.913   6.102  68.696  1.00  0.00    -0.336 C  
BRANCH  16  17
HETATM   17  N   UNL     1     -10.200   7.094  67.930  1.00  0.00    -0.176 N  
HETATM   18  N   UNL     1     -10.844   8.017  67.128  1.00  0.00    -0.203 NA 
HETATM   19  C   UNL     1      -9.872   8.591  66.489  1.00  0.00    -0.272 A  
HETATM   20  C   UNL     1      -9.971   9.681  65.495  1.00  0.00    -0.279 A  
HETATM   21  C   UNL     1      -8.829  10.129  64.943  1.00  0.00    -0.214 A  
HETATM   22  C   UNL     1      -7.542   9.558  65.300  1.00  0.00    -0.111 A  
HETATM   23  C   UNL     1      -7.476   8.567  66.203  1.00  0.00    -0.089 A  
HETATM   24  N   UNL     1      -8.632   8.118  66.777  1.00  0.00    -0.128 N  
HETATM   25  C   UNL     1      -8.812   7.114  67.699  1.00  0.00    -0.119 C  
HETATM   26  O   UNL     1      -7.968   6.375  68.190  1.00  0.00    -0.106 OA 
ENDBRANCH  16  17
ENDBRANCH  15  16
ENDBRANCH  14  15
ENDBRANCH  11  14
ENDBRANCH   6   8
TORSDOF 5
ENDMDL
MODEL      153
REMARK 921   NORMALIZED FREE ENERGY PREDICTED BY IDOCK:   -4.64 KCAL/MOL
REMARK 922        TOTAL FREE ENERGY PREDICTED BY IDOCK:   -6.63 KCAL/MOL
REMARK 923 INTER-LIGAND FREE ENERGY PREDICTED BY IDOCK:   -6.09 KCAL/MOL
REMARK 924 INTRA-LIGAND FREE ENERGY PREDICTED BY IDOCK:   -0.54 KCAL/MOL
REMARK 927      BINDING AFFINITY PREDICTED BY RF-SCORE:    0.00 PKD
ROOT
HETATM    1 CL   UNL     1      -9.346   3.528  65.616  1.00  0.00    -0.158 Cl 
HETATM    2  C   UNL     1      -8.453   4.990  65.793  1.00  0.00    -0.124 A  
HETATM    3  C   UNL     1      -7.064   4.950  65.805  1.00  0.00    -0.067 A  
HETATM    4  C   UNL     1      -6.352   6.135  65.954  1.00  0.00    -0.038 A  
HETATM    5  C   UNL     1      -7.037   7.345  66.107  1.00  0.00    -0.069 A  
HETATM    6  C   UNL     1      -8.439   7.408  66.124  1.00  0.00    -0.145 A  
HETATM    7  C   UNL     1      -9.132   6.202  65.943  1.00  0.00    -0.101 A  
ENDROOT
BRANCH   6   8
HETATM    8  N   UNL     1      -9.089   8.598  66.398  1.00  0.00    -0.162 NA 
HETATM    9  C   UNL     1     -10.438   8.604  66.985  1.00  0.00    -0.284 C  
HETATM   10  C   UNL     1     -10.589   9.819  67.928  1.00  0.00    -0.259 C  
HETATM   11  N   UNL     1     -10.283  11.134  67.312  1.00  0.00    -0.188 NA 
HETATM   12  C   UNL     1      -8.669   9.864  65.774  1.00  0.00    -0.141 C  
HETATM   13  C   UNL     1      -8.908  11.047  66.749  1.00  0.00    -0.156 C  
BRANCH  11  14
HETATM   14  C   UNL     1     -11.248  11.522  66.271  1.00  0.00    -0.222 C  
BRANCH  14  15
HETATM   15  C   UNL     1     -11.254  13.026  65.991  1.00  0.00    -0.320 C  
BRANCH  15  16
HETATM   16  C   UNL     1     -11.923  13.790  67.130  1.00  0.00    -0.405 C  
BRANCH  16  17
HETATM   17  N   UNL     1     -11.383  15.122  67.250  1.00  0.00    -0.330 N  
HETATM   18  N   UNL     1     -10.612  15.702  66.260  1.00  0.00    -0.303 NA 
HETATM   19  C   UNL     1     -10.184  16.795  66.813  1.00  0.00    -0.304 A  
HETATM   20  C   UNL     1      -9.320  17.830  66.207  1.00  0.00    -0.219 A  
HETATM   21  C   UNL     1      -8.987  18.889  66.966  1.00  0.00    -0.306 A  
HETATM   22  C   UNL     1      -9.449  19.012  68.337  1.00  0.00    -0.417 A  
HETATM   23  C   UNL     1     -10.231  18.059  68.869  1.00  0.00    -0.311 A  
HETATM   24  N   UNL     1     -10.584  16.988  68.097  1.00  0.00    -0.356 N  
HETATM   25  C   UNL     1     -11.349  15.894  68.426  1.00  0.00    -0.361 C  
HETATM   26  O   UNL     1     -11.863  15.624  69.505  1.00  0.00    -0.347 OA 
ENDBRANCH  16  17
ENDBRANCH  15  16
ENDBRANCH  14  15
ENDBRANCH  11  14
ENDBRANCH   6   8
TORSDOF 5
ENDMDL
MODEL      154
REMARK 921   NORMALIZED FREE ENERGY PREDICTED BY IDOCK:   -4.64 KCAL/MOL
REMARK 922        TOTAL FREE ENERGY PREDICTED BY IDOCK:   -6.63 KCAL/MOL
REMARK 923 INTER-LIGAND FREE ENERGY PREDICTED BY IDOCK:   -5.78 KCAL/MOL
REMARK 924 INTRA-LIGAND FREE ENERGY PREDICTED BY IDOCK:   -0.85 KCAL/MOL
REMARK 927      BINDING AFFINITY PREDICTED BY RF-SCORE:    0.00 PKD
ROOT
HETATM    1 CL   UNL     1     -12.590  11.210  71.399  1.00  0.00    -0.493 Cl 
HETATM    2  C   UNL     1     -12.226   9.544  71.155  1.00  0.00    -0.338 A  
HETATM    3  C   UNL     1     -12.928   8.577  71.864  1.00  0.00    -0.394 A  
HETATM    4  C   UNL     1     -12.622   7.235  71.665  1.00  0.00    -0.403 A  
HETATM    5  C   UNL     1     -11.606   6.876  70.772  1.00  0.00    -0.397 A  
HETATM    6  C   UNL     1     -10.866   7.835  70.064  1.00  0.00    -0.241 A  
HETATM    7  C   UNL     1     -11.215   9.180  70.263  1.00  0.00    -0.249 A  
ENDROOT
BRANCH   6   8
HETATM    8  N   UNL     1      -9.789   7.460  69.282  1.00  0.00    -0.166 NA 
HETATM    9  C   UNL     1      -8.458   8.048  69.498  1.00  0.00    -0.131 C  
HETATM   10  C   UNL     1      -7.369   6.992  69.200  1.00  0.00    -0.092 C  
HETATM   11  N   UNL     1      -7.452   6.368  67.856  1.00  0.00    -0.092 NA 
HETATM   12  C   UNL     1      -9.978   6.792  67.983  1.00  0.00    -0.144 C  
HETATM   13  C   UNL     1      -8.819   5.797  67.719  1.00  0.00    -0.105 C  
BRANCH  11  14
HETATM   14  C   UNL     1      -7.170   7.312  66.763  1.00  0.00    -0.083 C  
BRANCH  14  15
HETATM   15  C   UNL     1      -8.006   7.045  65.509  1.00  0.00    -0.130 C  
BRANCH  15  16
HETATM   16  C   UNL     1      -8.347   8.349  64.794  1.00  0.00    -0.141 C  
BRANCH  16  17
HETATM   17  N   UNL     1      -8.834   9.339  65.723  1.00  0.00    -0.165 N  
HETATM   18  N   UNL     1     -10.160   9.407  66.107  1.00  0.00    -0.284 NA 
HETATM   19  C   UNL     1     -10.221  10.511  66.786  1.00  0.00    -0.234 A  
HETATM   20  C   UNL     1     -11.405  11.088  67.458  1.00  0.00    -0.332 A  
HETATM   21  C   UNL     1     -11.247  12.257  68.105  1.00  0.00    -0.320 A  
HETATM   22  C   UNL     1      -9.965  12.936  68.138  1.00  0.00    -0.234 A  
HETATM   23  C   UNL     1      -8.903  12.396  67.518  1.00  0.00    -0.181 A  
HETATM   24  N   UNL     1      -9.054  11.202  66.871  1.00  0.00    -0.156 N  
HETATM   25  C   UNL     1      -8.129  10.476  66.159  1.00  0.00    -0.145 C  
HETATM   26  O   UNL     1      -6.961  10.759  65.924  1.00  0.00    -0.131 OA 
ENDBRANCH  16  17
ENDBRANCH  15  16
ENDBRANCH  14  15
ENDBRANCH  11  14
ENDBRANCH   6   8
TORSDOF 5
ENDMDL
MODEL      155
REMARK 921   NORMALIZED FREE ENERGY PREDICTED BY IDOCK:   -4.63 KCAL/MOL
REMARK 922        TOTAL FREE ENERGY PREDICTED BY IDOCK:   -6.61 KCAL/MOL
REMARK 923 INTER-LIGAND FREE ENERGY PREDICTED BY IDOCK:   -6.04 KCAL/MOL
REMARK 924 INTRA-LIGAND FREE ENERGY PREDICTED BY IDOCK:   -0.57 KCAL/MOL
REMARK 927      BINDING AFFINITY PREDICTED BY RF-SCORE:    0.00 PKD
ROOT
HETATM    1 CL   UNL     1     -12.012  16.502  72.213  1.00  0.00    -0.499 Cl 
HETATM    2  C   UNL     1     -12.366  14.885  71.737  1.00  0.00    -0.343 A  
HETATM    3  C   UNL     1     -13.149  14.083  72.557  1.00  0.00    -0.547 A  
HETATM    4  C   UNL     1     -13.424  12.777  72.167  1.00  0.00    -0.591 A  
HETATM    5  C   UNL     1     -12.897  12.282  70.969  1.00  0.00    -0.251 A  
HETATM    6  C   UNL     1     -12.082  13.064  70.136  1.00  0.00    -0.307 A  
HETATM    7  C   UNL     1     -11.845  14.387  70.540  1.00  0.00    -0.367 A  
ENDROOT
BRANCH   6   8
HETATM    8  N   UNL     1     -11.476  12.514  69.021  1.00  0.00    -0.284 NA 
HETATM    9  C   UNL     1     -10.814  11.202  69.092  1.00  0.00    -0.238 C  
HETATM   10  C   UNL     1     -10.988  10.459  67.748  1.00  0.00    -0.309 C  
HETATM   11  N   UNL     1     -10.532  11.210  66.552  1.00  0.00    -0.247 NA 
HETATM   12  C   UNL     1     -11.113  13.340  67.858  1.00  0.00    -0.262 C  
HETATM   13  C   UNL     1     -11.247  12.515  66.552  1.00  0.00    -0.307 C  
BRANCH  11  14
HETATM   14  C   UNL     1      -9.074  11.415  66.521  1.00  0.00    -0.186 C  
BRANCH  14  15
HETATM   15  C   UNL     1      -8.287  10.185  66.975  1.00  0.00    -0.125 C  
BRANCH  15  16
HETATM   16  C   UNL     1      -7.244  10.562  68.023  1.00  0.00    -0.087 C  
BRANCH  16  17
HETATM   17  N   UNL     1      -7.376   9.747  69.206  1.00  0.00    -0.076 N  
HETATM   18  N   UNL     1      -8.525   9.033  69.489  1.00  0.00    -0.121 NA 
HETATM   19  C   UNL     1      -8.317   8.593  70.692  1.00  0.00    -0.143 A  
HETATM   20  C   UNL     1      -9.214   7.746  71.507  1.00  0.00    -0.164 A  
HETATM   21  C   UNL     1      -8.803   7.408  72.742  1.00  0.00    -0.168 A  
HETATM   22  C   UNL     1      -7.528   7.865  73.266  1.00  0.00    -0.157 A  
HETATM   23  C   UNL     1      -6.730   8.635  72.509  1.00  0.00    -0.020 A  
HETATM   24  N   UNL     1      -7.136   8.969  71.249  1.00  0.00    -0.098 N  
HETATM   25  C   UNL     1      -6.506   9.753  70.311  1.00  0.00    -0.093 C  
HETATM   26  O   UNL     1      -5.443  10.353  70.415  1.00  0.00    -0.051 OA 
ENDBRANCH  16  17
ENDBRANCH  15  16
ENDBRANCH  14  15
ENDBRANCH  11  14
ENDBRANCH   6   8
TORSDOF 5
ENDMDL
MODEL      156
REMARK 921   NORMALIZED FREE ENERGY PREDICTED BY IDOCK:   -4.62 KCAL/MOL
REMARK 922        TOTAL FREE ENERGY PREDICTED BY IDOCK:   -6.60 KCAL/MOL
REMARK 923 INTER-LIGAND FREE ENERGY PREDICTED BY IDOCK:   -6.09 KCAL/MOL
REMARK 924 INTRA-LIGAND FREE ENERGY PREDICTED BY IDOCK:   -0.51 KCAL/MOL
REMARK 927      BINDING AFFINITY PREDICTED BY RF-SCORE:    0.00 PKD
ROOT
HETATM    1 CL   UNL     1     -10.540  20.421  65.341  1.00  0.00    -0.130 Cl 
HETATM    2  C   UNL     1     -10.418  19.343  66.679  1.00  0.00    -0.469 A  
HETATM    3  C   UNL     1     -10.088  19.839  67.934  1.00  0.00    -0.558 A  
HETATM    4  C   UNL     1      -9.987  18.960  69.006  1.00  0.00    -0.365 A  
HETATM    5  C   UNL     1     -10.198  17.591  68.807  1.00  0.00    -0.373 A  
HETATM    6  C   UNL     1     -10.506  17.062  67.544  1.00  0.00    -0.334 A  
HETATM    7  C   UNL     1     -10.631  17.975  66.486  1.00  0.00    -0.263 A  
ENDROOT
BRANCH   6   8
HETATM    8  N   UNL     1     -10.590  15.695  67.352  1.00  0.00    -0.296 NA 
HETATM    9  C   UNL     1     -11.443  14.862  68.214  1.00  0.00    -0.324 C  
HETATM   10  C   UNL     1     -12.034  13.696  67.388  1.00  0.00    -0.376 C  
HETATM   11  N   UNL     1     -11.033  12.860  66.680  1.00  0.00    -0.271 NA 
HETATM   12  C   UNL     1      -9.570  14.963  66.582  1.00  0.00    -0.266 C  
HETATM   13  C   UNL     1     -10.218  13.771  65.832  1.00  0.00    -0.313 C  
BRANCH  11  14
HETATM   14  C   UNL     1     -10.173  12.090  67.594  1.00  0.00    -0.199 C  
BRANCH  14  15
HETATM   15  C   UNL     1     -10.454  10.586  67.557  1.00  0.00    -0.284 C  
BRANCH  15  16
HETATM   16  C   UNL     1     -10.299  10.038  66.141  1.00  0.00    -0.155 C  
BRANCH  16  17
HETATM   17  N   UNL     1      -9.218   9.086  66.068  1.00  0.00    -0.208 N  
HETATM   18  N   UNL     1      -8.024   9.366  65.432  1.00  0.00    -0.103 NA 
HETATM   19  C   UNL     1      -7.409   8.224  65.429  1.00  0.00    -0.083 A  
HETATM   20  C   UNL     1      -6.066   7.928  64.886  1.00  0.00    -0.045 A  
HETATM   21  C   UNL     1      -5.618   6.663  64.981  1.00  0.00    -0.030 A  
HETATM   22  C   UNL     1      -6.425   5.619  65.586  1.00  0.00    -0.040 A  
HETATM   23  C   UNL     1      -7.644   5.909  66.070  1.00  0.00    -0.086 A  
HETATM   24  N   UNL     1      -8.097   7.195  65.989  1.00  0.00    -0.108 N  
HETATM   25  C   UNL     1      -9.302   7.720  66.393  1.00  0.00    -0.181 C  
HETATM   26  O   UNL     1     -10.255   7.134  66.893  1.00  0.00    -0.230 OA 
ENDBRANCH  16  17
ENDBRANCH  15  16
ENDBRANCH  14  15
ENDBRANCH  11  14
ENDBRANCH   6   8
TORSDOF 5
ENDMDL
MODEL      157
REMARK 921   NORMALIZED FREE ENERGY PREDICTED BY IDOCK:   -4.59 KCAL/MOL
REMARK 922        TOTAL FREE ENERGY PREDICTED BY IDOCK:   -6.56 KCAL/MOL
REMARK 923 INTER-LIGAND FREE ENERGY PREDICTED BY IDOCK:   -6.26 KCAL/MOL
REMARK 924 INTRA-LIGAND FREE ENERGY PREDICTED BY IDOCK:   -0.30 KCAL/MOL
REMARK 927      BINDING AFFINITY PREDICTED BY RF-SCORE:    0.00 PKD
ROOT
HETATM    1 CL   UNL     1     -10.280  18.778  68.328  1.00  0.00    -0.420 Cl 
HETATM    2  C   UNL     1     -10.819  17.146  68.435  1.00  0.00    -0.309 A  
HETATM    3  C   UNL     1     -11.027  16.570  69.681  1.00  0.00    -0.287 A  
HETATM    4  C   UNL     1     -11.457  15.250  69.756  1.00  0.00    -0.332 A  
HETATM    5  C   UNL     1     -11.656  14.513  68.583  1.00  0.00    -0.346 A  
HETATM    6  C   UNL     1     -11.427  15.064  67.313  1.00  0.00    -0.304 A  
HETATM    7  C   UNL     1     -11.022  16.407  67.266  1.00  0.00    -0.118 A  
ENDROOT
BRANCH   6   8
HETATM    8  N   UNL     1     -11.514  14.280  66.177  1.00  0.00    -0.346 NA 
HETATM    9  C   UNL     1     -11.729  12.828  66.276  1.00  0.00    -0.402 C  
HETATM   10  C   UNL     1     -12.592  12.349  65.087  1.00  0.00    -0.134 C  
HETATM   11  N   UNL     1     -12.066  12.707  63.746  1.00  0.00    -0.480 NA 
HETATM   12  C   UNL     1     -11.011  14.753  64.876  1.00  0.00    -0.412 C  
HETATM   13  C   UNL     1     -11.881  14.183  63.726  1.00  0.00    -0.044 C  
BRANCH  11  14
HETATM   14  C   UNL     1     -10.808  12.019  63.417  1.00  0.00    -0.405 C  
BRANCH  14  15
HETATM   15  C   UNL     1     -10.500  10.851  64.355  1.00  0.00    -0.403 C  
BRANCH  15  16
HETATM   16  C   UNL     1      -9.051  10.901  64.830  1.00  0.00    -0.182 C  
BRANCH  16  17
HETATM   17  N   UNL     1      -8.774   9.839  65.767  1.00  0.00    -0.137 N  
HETATM   18  N   UNL     1      -8.761   8.508  65.396  1.00  0.00    -0.176 NA 
HETATM   19  C   UNL     1      -8.658   7.881  66.528  1.00  0.00    -0.142 A  
HETATM   20  C   UNL     1      -8.581   6.420  66.742  1.00  0.00    -0.113 A  
HETATM   21  C   UNL     1      -8.484   5.979  68.009  1.00  0.00    -0.115 A  
HETATM   22  C   UNL     1      -8.466   6.900  69.131  1.00  0.00    -0.129 A  
HETATM   23  C   UNL     1      -8.540   8.223  68.914  1.00  0.00    -0.132 A  
HETATM   24  N   UNL     1      -8.624   8.677  67.628  1.00  0.00    -0.135 N  
HETATM   25  C   UNL     1      -8.728   9.968  67.167  1.00  0.00    -0.128 C  
HETATM   26  O   UNL     1      -8.798  11.003  67.819  1.00  0.00    -0.130 OA 
ENDBRANCH  16  17
ENDBRANCH  15  16
ENDBRANCH  14  15
ENDBRANCH  11  14
ENDBRANCH   6   8
TORSDOF 5
ENDMDL
MODEL      158
REMARK 921   NORMALIZED FREE ENERGY PREDICTED BY IDOCK:   -4.58 KCAL/MOL
REMARK 922        TOTAL FREE ENERGY PREDICTED BY IDOCK:   -6.55 KCAL/MOL
REMARK 923 INTER-LIGAND FREE ENERGY PREDICTED BY IDOCK:   -6.10 KCAL/MOL
REMARK 924 INTRA-LIGAND FREE ENERGY PREDICTED BY IDOCK:   -0.44 KCAL/MOL
REMARK 927      BINDING AFFINITY PREDICTED BY RF-SCORE:    0.00 PKD
ROOT
HETATM    1 CL   UNL     1      -5.344   9.681  72.020  1.00  0.00    -0.075 Cl 
HETATM    2  C   UNL     1      -5.837  10.901  70.909  1.00  0.00    -0.020 A  
HETATM    3  C   UNL     1      -5.294  12.176  71.003  1.00  0.00    -0.126 A  
HETATM    4  C   UNL     1      -5.703  13.156  70.106  1.00  0.00    -0.141 A  
HETATM    5  C   UNL     1      -6.664  12.855  69.135  1.00  0.00    -0.086 A  
HETATM    6  C   UNL     1      -7.247  11.581  69.036  1.00  0.00    -0.106 A  
HETATM    7  C   UNL     1      -6.795  10.605  69.936  1.00  0.00    -0.149 A  
ENDROOT
BRANCH   6   8
HETATM    8  N   UNL     1      -8.281  11.345  68.148  1.00  0.00    -0.136 NA 
HETATM    9  C   UNL     1      -8.061  11.422  66.696  1.00  0.00    -0.155 C  
HETATM   10  C   UNL     1      -8.951  10.380  65.980  1.00  0.00    -0.159 C  
HETATM   11  N   UNL     1     -10.399  10.470  66.295  1.00  0.00    -0.230 NA 
HETATM   12  C   UNL     1      -9.689  11.403  68.576  1.00  0.00    -0.197 C  
HETATM   13  C   UNL     1     -10.535  10.381  67.773  1.00  0.00    -0.226 C  
BRANCH  11  14
HETATM   14  C   UNL     1     -11.024  11.702  65.787  1.00  0.00    -0.274 C  
BRANCH  14  15
HETATM   15  C   UNL     1     -10.216  12.369  64.672  1.00  0.00    -0.312 C  
BRANCH  15  16
HETATM   16  C   UNL     1     -10.863  13.682  64.241  1.00  0.00    -0.280 C  
BRANCH  16  17
HETATM   17  N   UNL     1     -10.265  14.804  64.923  1.00  0.00    -0.356 N  
HETATM   18  N   UNL     1      -9.305  14.650  65.905  1.00  0.00    -0.200 NA 
HETATM   19  C   UNL     1      -9.164  15.849  66.379  1.00  0.00    -0.309 A  
HETATM   20  C   UNL     1      -8.247  16.289  67.452  1.00  0.00    -0.181 A  
HETATM   21  C   UNL     1      -8.267  17.589  67.797  1.00  0.00    -0.219 A  
HETATM   22  C   UNL     1      -9.162  18.530  67.148  1.00  0.00    -0.280 A  
HETATM   23  C   UNL     1      -9.989  18.108  66.178  1.00  0.00    -0.299 A  
HETATM   24  N   UNL     1      -9.963  16.792  65.814  1.00  0.00    -0.261 N  
HETATM   25  C   UNL     1     -10.720  16.134  64.873  1.00  0.00    -0.274 C  
HETATM   26  O   UNL     1     -11.614  16.587  64.169  1.00  0.00    -1.052 OA 
ENDBRANCH  16  17
ENDBRANCH  15  16
ENDBRANCH  14  15
ENDBRANCH  11  14
ENDBRANCH   6   8
TORSDOF 5
ENDMDL
MODEL      159
REMARK 921   NORMALIZED FREE ENERGY PREDICTED BY IDOCK:   -4.58 KCAL/MOL
REMARK 922        TOTAL FREE ENERGY PREDICTED BY IDOCK:   -6.55 KCAL/MOL
REMARK 923 INTER-LIGAND FREE ENERGY PREDICTED BY IDOCK:   -6.08 KCAL/MOL
REMARK 924 INTRA-LIGAND FREE ENERGY PREDICTED BY IDOCK:   -0.47 KCAL/MOL
REMARK 927      BINDING AFFINITY PREDICTED BY RF-SCORE:    0.00 PKD
ROOT
HETATM    1 CL   UNL     1     -10.374  17.222  65.848  1.00  0.00    -0.337 Cl 
HETATM    2  C   UNL     1     -10.919  15.619  65.531  1.00  0.00    -0.300 A  
HETATM    3  C   UNL     1     -11.758  15.379  64.451  1.00  0.00    -0.261 A  
HETATM    4  C   UNL     1     -12.197  14.082  64.207  1.00  0.00    -0.453 A  
HETATM    5  C   UNL     1     -11.806  13.042  65.058  1.00  0.00    -0.401 A  
HETATM    6  C   UNL     1     -10.980  13.264  66.171  1.00  0.00    -0.279 A  
HETATM    7  C   UNL     1     -10.529  14.576  66.376  1.00  0.00    -0.295 A  
ENDROOT
BRANCH   6   8
HETATM    8  N   UNL     1     -10.708  12.242  67.063  1.00  0.00    -0.226 NA 
HETATM    9  C   UNL     1     -11.743  11.263  67.427  1.00  0.00    -0.027 C  
HETATM   10  C   UNL     1     -11.090   9.882  67.668  1.00  0.00    -0.101 C  
HETATM   11  N   UNL     1      -9.990   9.875  68.665  1.00  0.00    -0.159 NA 
HETATM   12  C   UNL     1      -9.554  12.306  67.975  1.00  0.00    -0.206 C  
HETATM   13  C   UNL     1      -8.989  10.883  68.224  1.00  0.00    -0.150 C  
BRANCH  11  14
HETATM   14  C   UNL     1     -10.450  10.160  70.034  1.00  0.00    -0.274 C  
BRANCH  14  15
HETATM   15  C   UNL     1     -10.675   8.896  70.866  1.00  0.00    -0.292 C  
BRANCH  15  16
HETATM   16  C   UNL     1      -9.370   8.421  71.498  1.00  0.00    -0.200 C  
BRANCH  16  17
HETATM   17  N   UNL     1      -9.483   7.059  71.962  1.00  0.00    -0.140 N  
HETATM   18  N   UNL     1      -9.069   5.980  71.204  1.00  0.00    -0.146 NA 
HETATM   19  C   UNL     1      -9.497   4.958  71.878  1.00  0.00    -0.149 A  
HETATM   20  C   UNL     1      -9.326   3.527  71.545  1.00  0.00    -0.209 A  
HETATM   21  C   UNL     1      -9.860   2.622  72.384  1.00  0.00    -0.224 A  
HETATM   22  C   UNL     1     -10.589   3.030  73.572  1.00  0.00    -0.270 A  
HETATM   23  C   UNL     1     -10.735   4.335  73.854  1.00  0.00    -0.264 A  
HETATM   24  N   UNL     1     -10.182   5.258  73.012  1.00  0.00    -0.175 N  
HETATM   25  C   UNL     1     -10.217   6.630  73.083  1.00  0.00    -0.219 C  
HETATM   26  O   UNL     1     -10.784   7.333  73.911  1.00  0.00    -0.318 OA 
ENDBRANCH  16  17
ENDBRANCH  15  16
ENDBRANCH  14  15
ENDBRANCH  11  14
ENDBRANCH   6   8
TORSDOF 5
ENDMDL
MODEL      160
REMARK 921   NORMALIZED FREE ENERGY PREDICTED BY IDOCK:   -4.57 KCAL/MOL
REMARK 922        TOTAL FREE ENERGY PREDICTED BY IDOCK:   -6.55 KCAL/MOL
REMARK 923 INTER-LIGAND FREE ENERGY PREDICTED BY IDOCK:   -5.99 KCAL/MOL
REMARK 924 INTRA-LIGAND FREE ENERGY PREDICTED BY IDOCK:   -0.55 KCAL/MOL
REMARK 927      BINDING AFFINITY PREDICTED BY RF-SCORE:    0.00 PKD
ROOT
HETATM    1 CL   UNL     1     -10.284   1.563  73.733  1.00  0.00    -0.125 Cl 
HETATM    2  C   UNL     1      -9.619   3.117  73.400  1.00  0.00    -0.103 A  
HETATM    3  C   UNL     1      -8.946   3.806  74.401  1.00  0.00    -0.098 A  
HETATM    4  C   UNL     1      -8.418   5.062  74.124  1.00  0.00    -0.109 A  
HETATM    5  C   UNL     1      -8.584   5.623  72.853  1.00  0.00    -0.122 A  
HETATM    6  C   UNL     1      -9.283   4.958  71.833  1.00  0.00    -0.140 A  
HETATM    7  C   UNL     1      -9.780   3.681  72.132  1.00  0.00    -0.231 A  
ENDROOT
BRANCH   6   8
HETATM    8  N   UNL     1      -9.538   5.586  70.627  1.00  0.00    -0.164 NA 
HETATM    9  C   UNL     1      -9.311   4.890  69.352  1.00  0.00    -0.127 C  
HETATM   10  C   UNL     1     -10.366   5.345  68.317  1.00  0.00    -0.146 C  
HETATM   11  N   UNL     1     -10.442   6.812  68.105  1.00  0.00    -0.194 NA 
HETATM   12  C   UNL     1      -9.652   7.051  70.533  1.00  0.00    -0.169 C  
HETATM   13  C   UNL     1     -10.675   7.438  69.434  1.00  0.00    -0.211 C  
BRANCH  11  14
HETATM   14  C   UNL     1      -9.235   7.367  67.471  1.00  0.00    -0.130 C  
BRANCH  14  15
HETATM   15  C   UNL     1      -9.517   8.025  66.118  1.00  0.00    -0.193 C  
BRANCH  15  16
HETATM   16  C   UNL     1      -8.911   9.424  66.056  1.00  0.00    -0.168 C  
BRANCH  16  17
HETATM   17  N   UNL     1      -9.916  10.412  65.747  1.00  0.00    -0.255 N  
HETATM   18  N   UNL     1     -10.144  10.860  64.460  1.00  0.00    -0.315 NA 
HETATM   19  C   UNL     1     -10.972  11.845  64.626  1.00  0.00    -0.316 A  
HETATM   20  C   UNL     1     -11.578  12.696  63.580  1.00  0.00    -0.584 A  
HETATM   21  C   UNL     1     -12.411  13.675  63.976  1.00  0.00    -0.382 A  
HETATM   22  C   UNL     1     -12.700  13.899  65.381  1.00  0.00    -0.525 A  
HETATM   23  C   UNL     1     -12.137  13.116  66.315  1.00  0.00    -0.397 A  
HETATM   24  N   UNL     1     -11.301  12.112  65.917  1.00  0.00    -0.344 N  
HETATM   25  C   UNL     1     -10.602  11.208  66.682  1.00  0.00    -0.264 C  
HETATM   26  O   UNL     1     -10.554  11.125  67.903  1.00  0.00    -0.180 OA 
ENDBRANCH  16  17
ENDBRANCH  15  16
ENDBRANCH  14  15
ENDBRANCH  11  14
ENDBRANCH   6   8
TORSDOF 5
ENDMDL
MODEL      161
REMARK 921   NORMALIZED FREE ENERGY PREDICTED BY IDOCK:   -4.57 KCAL/MOL
REMARK 922        TOTAL FREE ENERGY PREDICTED BY IDOCK:   -6.54 KCAL/MOL
REMARK 923 INTER-LIGAND FREE ENERGY PREDICTED BY IDOCK:   -5.75 KCAL/MOL
REMARK 924 INTRA-LIGAND FREE ENERGY PREDICTED BY IDOCK:   -0.79 KCAL/MOL
REMARK 927      BINDING AFFINITY PREDICTED BY RF-SCORE:    0.00 PKD
ROOT
HETATM    1 CL   UNL     1     -11.093   2.576  63.091  1.00  0.00    -0.227 Cl 
HETATM    2  C   UNL     1     -10.077   3.694  63.919  1.00  0.00    -0.208 A  
HETATM    3  C   UNL     1      -8.976   4.234  63.268  1.00  0.00    -0.130 A  
HETATM    4  C   UNL     1      -8.159   5.131  63.947  1.00  0.00    -0.119 A  
HETATM    5  C   UNL     1      -8.442   5.463  65.277  1.00  0.00    -0.149 A  
HETATM    6  C   UNL     1      -9.533   4.910  65.964  1.00  0.00    -0.163 A  
HETATM    7  C   UNL     1     -10.357   4.031  65.245  1.00  0.00    -0.121 A  
ENDROOT
BRANCH   6   8
HETATM    8  N   UNL     1      -9.720   5.161  67.312  1.00  0.00    -0.145 NA 
HETATM    9  C   UNL     1     -10.292   6.436  67.770  1.00  0.00    -0.193 C  
HETATM   10  C   UNL     1     -11.150   6.196  69.034  1.00  0.00    -0.367 C  
HETATM   11  N   UNL     1     -10.447   5.509  70.146  1.00  0.00    -0.285 NA 
HETATM   12  C   UNL     1      -9.015   4.381  68.343  1.00  0.00    -0.115 C  
HETATM   13  C   UNL     1      -9.905   4.234  69.605  1.00  0.00    -0.174 C  
BRANCH  11  14
HETATM   14  C   UNL     1      -9.374   6.322  70.741  1.00  0.00    -0.158 C  
BRANCH  14  15
HETATM   15  C   UNL     1      -9.749   6.904  72.105  1.00  0.00    -0.158 C  
BRANCH  15  16
HETATM   16  C   UNL     1      -9.304   8.359  72.217  1.00  0.00    -0.286 C  
BRANCH  16  17
HETATM   17  N   UNL     1      -9.821   9.145  71.123  1.00  0.00    -0.295 N  
HETATM   18  N   UNL     1      -9.000   9.738  70.183  1.00  0.00    -0.228 NA 
HETATM   19  C   UNL     1      -9.813  10.482  69.499  1.00  0.00    -0.142 A  
HETATM   20  C   UNL     1      -9.486  11.342  68.342  1.00  0.00    -0.194 A  
HETATM   21  C   UNL     1     -10.489  12.041  67.780  1.00  0.00    -0.223 A  
HETATM   22  C   UNL     1     -11.845  11.965  68.294  1.00  0.00    -0.343 A  
HETATM   23  C   UNL     1     -12.119  11.180  69.348  1.00  0.00    -0.326 A  
HETATM   24  N   UNL     1     -11.107  10.457  69.913  1.00  0.00    -0.284 N  
HETATM   25  C   UNL     1     -11.142   9.611  70.997  1.00  0.00    -0.368 C  
HETATM   26  O   UNL     1     -12.096   9.342  71.718  1.00  0.00    -0.354 OA 
ENDBRANCH  16  17
ENDBRANCH  15  16
ENDBRANCH  14  15
ENDBRANCH  11  14
ENDBRANCH   6   8
TORSDOF 5
ENDMDL
MODEL      162
REMARK 921   NORMALIZED FREE ENERGY PREDICTED BY IDOCK:   -4.56 KCAL/MOL
REMARK 922        TOTAL FREE ENERGY PREDICTED BY IDOCK:   -6.53 KCAL/MOL
REMARK 923 INTER-LIGAND FREE ENERGY PREDICTED BY IDOCK:   -5.56 KCAL/MOL
REMARK 924 INTRA-LIGAND FREE ENERGY PREDICTED BY IDOCK:   -0.97 KCAL/MOL
REMARK 927      BINDING AFFINITY PREDICTED BY RF-SCORE:    0.00 PKD
ROOT
HETATM    1 CL   UNL     1     -12.030  16.536  73.364  1.00  0.00    -0.517 Cl 
HETATM    2  C   UNL     1     -12.481  15.099  72.529  1.00  0.00    -0.357 A  
HETATM    3  C   UNL     1     -13.400  14.230  73.103  1.00  0.00    -0.252 A  
HETATM    4  C   UNL     1     -13.754  13.070  72.423  1.00  0.00    -0.593 A  
HETATM    5  C   UNL     1     -13.170  12.782  71.184  1.00  0.00    -0.034 A  
HETATM    6  C   UNL     1     -12.220  13.631  70.596  1.00  0.00    -0.360 A  
HETATM    7  C   UNL     1     -11.903  14.808  71.290  1.00  0.00    -0.390 A  
ENDROOT
BRANCH   6   8
HETATM    8  N   UNL     1     -11.569  13.263  69.432  1.00  0.00    -0.297 NA 
HETATM    9  C   UNL     1     -11.900  12.005  68.747  1.00  0.00    -0.302 C  
HETATM   10  C   UNL     1     -11.759  12.192  67.219  1.00  0.00    -0.299 C  
HETATM   11  N   UNL     1     -10.438  12.699  66.769  1.00  0.00    -0.239 NA 
HETATM   12  C   UNL     1     -10.284  13.871  69.045  1.00  0.00    -0.059 C  
HETATM   13  C   UNL     1     -10.181  13.968  67.501  1.00  0.00    -0.244 C  
BRANCH  11  14
HETATM   14  C   UNL     1      -9.345  11.739  66.991  1.00  0.00    -0.184 C  
BRANCH  14  15
HETATM   15  C   UNL     1      -7.957  12.363  66.833  1.00  0.00    -0.041 C  
BRANCH  15  16
HETATM   16  C   UNL     1      -6.995  11.825  67.888  1.00  0.00    -0.085 C  
BRANCH  16  17
HETATM   17  N   UNL     1      -6.682  12.835  68.869  1.00  0.00    -0.094 N  
HETATM   18  N   UNL     1      -6.508  14.165  68.536  1.00  0.00    -0.088 NA 
HETATM   19  C   UNL     1      -6.073  14.697  69.637  1.00  0.00    -0.121 A  
HETATM   20  C   UNL     1      -5.728  16.115  69.875  1.00  0.00    -0.172 A  
HETATM   21  C   UNL     1      -5.286  16.453  71.099  1.00  0.00    -0.076 A  
HETATM   22  C   UNL     1      -5.140  15.463  72.151  1.00  0.00    -0.009 A  
HETATM   23  C   UNL     1      -5.456  14.180  71.912  1.00  0.00    -0.217 A  
HETATM   24  N   UNL     1      -5.920  13.833  70.675  1.00  0.00    -0.179 N  
HETATM   25  C   UNL     1      -6.283  12.597  70.197  1.00  0.00    -0.026 C  
HETATM   26  O   UNL     1      -6.242  11.518  70.776  1.00  0.00    -0.325 OA 
ENDBRANCH  16  17
ENDBRANCH  15  16
ENDBRANCH  14  15
ENDBRANCH  11  14
ENDBRANCH   6   8
TORSDOF 5
ENDMDL
MODEL      163
REMARK 921   NORMALIZED FREE ENERGY PREDICTED BY IDOCK:   -4.55 KCAL/MOL
REMARK 922        TOTAL FREE ENERGY PREDICTED BY IDOCK:   -6.52 KCAL/MOL
REMARK 923 INTER-LIGAND FREE ENERGY PREDICTED BY IDOCK:   -6.21 KCAL/MOL
REMARK 924 INTRA-LIGAND FREE ENERGY PREDICTED BY IDOCK:   -0.31 KCAL/MOL
REMARK 927      BINDING AFFINITY PREDICTED BY RF-SCORE:    0.00 PKD
ROOT
HETATM    1 CL   UNL     1     -12.668  15.518  71.496  1.00  0.00    -0.459 Cl 
HETATM    2  C   UNL     1     -12.586  13.818  71.229  1.00  0.00    -0.362 A  
HETATM    3  C   UNL     1     -13.276  12.956  72.073  1.00  0.00    -0.549 A  
HETATM    4  C   UNL     1     -13.199  11.585  71.852  1.00  0.00    -0.479 A  
HETATM    5  C   UNL     1     -12.418  11.091  70.801  1.00  0.00    -0.491 A  
HETATM    6  C   UNL     1     -11.692  11.940  69.952  1.00  0.00    -0.308 A  
HETATM    7  C   UNL     1     -11.811  13.319  70.179  1.00  0.00    -0.333 A  
ENDROOT
BRANCH   6   8
HETATM    8  N   UNL     1     -10.834  11.421  68.999  1.00  0.00    -0.213 NA 
HETATM    9  C   UNL     1     -10.135  10.147  69.227  1.00  0.00    -0.222 C  
HETATM   10  C   UNL     1      -9.978   9.393  67.886  1.00  0.00    -0.182 C  
HETATM   11  N   UNL     1      -9.317  10.166  66.806  1.00  0.00    -0.157 NA 
HETATM   12  C   UNL     1     -10.274  12.264  67.929  1.00  0.00    -0.200 C  
HETATM   13  C   UNL     1     -10.083  11.430  66.635  1.00  0.00    -0.212 C  
BRANCH  11  14
HETATM   14  C   UNL     1      -7.899  10.449  67.083  1.00  0.00    -0.110 C  
BRANCH  14  15
HETATM   15  C   UNL     1      -7.527  11.917  66.865  1.00  0.00    -0.079 C  
BRANCH  15  16
HETATM   16  C   UNL     1      -6.866  12.502  68.110  1.00  0.00    -0.084 C  
BRANCH  16  17
HETATM   17  N   UNL     1      -7.133  13.915  68.224  1.00  0.00    -0.095 N  
HETATM   18  N   UNL     1      -7.708  14.647  67.202  1.00  0.00    -0.160 NA 
HETATM   19  C   UNL     1      -7.613  15.872  67.619  1.00  0.00    -0.150 A  
HETATM   20  C   UNL     1      -8.083  17.093  66.932  1.00  0.00    -0.247 A  
HETATM   21  C   UNL     1      -7.875  18.273  67.543  1.00  0.00    -0.228 A  
HETATM   22  C   UNL     1      -7.203  18.351  68.827  1.00  0.00    -0.300 A  
HETATM   23  C   UNL     1      -6.782  17.229  69.433  1.00  0.00    -0.193 A  
HETATM   24  N   UNL     1      -7.003  16.027  68.823  1.00  0.00    -0.131 N  
HETATM   25  C   UNL     1      -6.649  14.764  69.236  1.00  0.00    -0.128 C  
HETATM   26  O   UNL     1      -6.024  14.442  70.239  1.00  0.00    -0.134 OA 
ENDBRANCH  16  17
ENDBRANCH  15  16
ENDBRANCH  14  15
ENDBRANCH  11  14
ENDBRANCH   6   8
TORSDOF 5
ENDMDL
MODEL      164
REMARK 921   NORMALIZED FREE ENERGY PREDICTED BY IDOCK:   -4.53 KCAL/MOL
REMARK 922        TOTAL FREE ENERGY PREDICTED BY IDOCK:   -6.48 KCAL/MOL
REMARK 923 INTER-LIGAND FREE ENERGY PREDICTED BY IDOCK:   -6.13 KCAL/MOL
REMARK 924 INTRA-LIGAND FREE ENERGY PREDICTED BY IDOCK:   -0.35 KCAL/MOL
REMARK 927      BINDING AFFINITY PREDICTED BY RF-SCORE:    0.00 PKD
ROOT
HETATM    1 CL   UNL     1     -11.899  13.018  63.309  1.00  0.00    -0.550 Cl 
HETATM    2  C   UNL     1     -11.598  13.620  64.894  1.00  0.00    -0.344 A  
HETATM    3  C   UNL     1     -11.072  14.895  65.057  1.00  0.00    -0.422 A  
HETATM    4  C   UNL     1     -10.827  15.370  66.341  1.00  0.00    -0.303 A  
HETATM    5  C   UNL     1     -11.093  14.556  67.448  1.00  0.00    -0.320 A  
HETATM    6  C   UNL     1     -11.600  13.255  67.308  1.00  0.00    -0.359 A  
HETATM    7  C   UNL     1     -11.865  12.813  66.003  1.00  0.00    -0.495 A  
ENDROOT
BRANCH   6   8
HETATM    8  N   UNL     1     -11.740  12.429  68.409  1.00  0.00    -0.322 NA 
HETATM    9  C   UNL     1     -11.450  12.923  69.764  1.00  0.00    -0.132 C  
HETATM   10  C   UNL     1     -12.406  12.252  70.777  1.00  0.00    -0.290 C  
HETATM   11  N   UNL     1     -12.406  10.768  70.751  1.00  0.00    -0.349 NA 
HETATM   12  C   UNL     1     -11.786  10.964  68.270  1.00  0.00    -0.184 C  
HETATM   13  C   UNL     1     -12.709  10.352  69.355  1.00  0.00     0.700 C  
BRANCH  11  14
HETATM   14  C   UNL     1     -11.133  10.183  71.205  1.00  0.00    -0.074 C  
BRANCH  14  15
HETATM   15  C   UNL     1     -11.270   8.727  71.653  1.00  0.00    -0.394 C  
BRANCH  15  16
HETATM   16  C   UNL     1     -10.936   7.772  70.511  1.00  0.00    -0.245 C  
BRANCH  16  17
HETATM   17  N   UNL     1     -10.847   6.410  70.981  1.00  0.00    -0.250 N  
HETATM   18  N   UNL     1     -11.123   6.058  72.289  1.00  0.00    -0.263 NA 
HETATM   19  C   UNL     1     -10.761   4.813  72.348  1.00  0.00    -0.149 A  
HETATM   20  C   UNL     1     -10.843   3.908  73.514  1.00  0.00    -0.330 A  
HETATM   21  C   UNL     1     -10.401   2.647  73.358  1.00  0.00    -0.218 A  
HETATM   22  C   UNL     1      -9.852   2.189  72.094  1.00  0.00    -0.216 A  
HETATM   23  C   UNL     1      -9.784   3.029  71.049  1.00  0.00    -0.103 A  
HETATM   24  N   UNL     1     -10.244   4.306  71.198  1.00  0.00    -0.091 N  
HETATM   25  C   UNL     1     -10.260   5.337  70.288  1.00  0.00    -0.275 C  
HETATM   26  O   UNL     1      -9.831   5.341  69.140  1.00  0.00    -0.156 OA 
ENDBRANCH  16  17
ENDBRANCH  15  16
ENDBRANCH  14  15
ENDBRANCH  11  14
ENDBRANCH   6   8
TORSDOF 5
ENDMDL
MODEL      165
REMARK 921   NORMALIZED FREE ENERGY PREDICTED BY IDOCK:   -4.52 KCAL/MOL
REMARK 922        TOTAL FREE ENERGY PREDICTED BY IDOCK:   -6.48 KCAL/MOL
REMARK 923 INTER-LIGAND FREE ENERGY PREDICTED BY IDOCK:   -5.96 KCAL/MOL
REMARK 924 INTRA-LIGAND FREE ENERGY PREDICTED BY IDOCK:   -0.52 KCAL/MOL
REMARK 927      BINDING AFFINITY PREDICTED BY RF-SCORE:    0.00 PKD
ROOT
HETATM    1 CL   UNL     1     -13.875   7.775  71.684  1.00  0.00    -0.449 Cl 
HETATM    2  C   UNL     1     -12.178   8.052  71.782  1.00  0.00    -0.316 A  
HETATM    3  C   UNL     1     -11.456   7.526  72.846  1.00  0.00    -0.311 A  
HETATM    4  C   UNL     1     -10.088   7.760  72.919  1.00  0.00    -0.363 A  
HETATM    5  C   UNL     1      -9.458   8.532  71.936  1.00  0.00    -0.350 A  
HETATM    6  C   UNL     1     -10.171   9.095  70.866  1.00  0.00    -0.282 A  
HETATM    7  C   UNL     1     -11.545   8.820  70.802  1.00  0.00    -0.288 A  
ENDROOT
BRANCH   6   8
HETATM    8  N   UNL     1      -9.548   9.953  69.977  1.00  0.00    -0.236 NA 
HETATM    9  C   UNL     1      -8.089  10.137  70.001  1.00  0.00    -0.061 C  
HETATM   10  C   UNL     1      -7.571  10.373  68.564  1.00  0.00    -0.095 C  
HETATM   11  N   UNL     1      -8.226  11.490  67.838  1.00  0.00    -0.128 NA 
HETATM   12  C   UNL     1     -10.301  10.997  69.261  1.00  0.00    -0.154 C  
HETATM   13  C   UNL     1      -9.690  11.229  67.855  1.00  0.00    -0.177 C  
BRANCH  11  14
HETATM   14  C   UNL     1      -7.925  12.810  68.417  1.00  0.00    -0.137 C  
BRANCH  14  15
HETATM   15  C   UNL     1      -7.111  13.704  67.479  1.00  0.00    -0.166 C  
BRANCH  15  16
HETATM   16  C   UNL     1      -6.530  14.897  68.232  1.00  0.00    -0.118 C  
BRANCH  16  17
HETATM   17  N   UNL     1      -6.929  16.142  67.622  1.00  0.00    -0.137 N  
HETATM   18  N   UNL     1      -6.086  16.872  66.806  1.00  0.00    -0.205 NA 
HETATM   19  C   UNL     1      -6.736  17.978  66.615  1.00  0.00    -0.200 A  
HETATM   20  C   UNL     1      -6.315  19.137  65.799  1.00  0.00    -0.260 A  
HETATM   21  C   UNL     1      -7.144  20.195  65.743  1.00  0.00    -0.311 A  
HETATM   22  C   UNL     1      -8.404  20.208  66.464  1.00  0.00    -0.314 A  
HETATM   23  C   UNL     1      -8.765  19.145  67.201  1.00  0.00    -0.285 A  
HETATM   24  N   UNL     1      -7.934  18.063  67.251  1.00  0.00    -0.210 N  
HETATM   25  C   UNL     1      -8.079  16.885  67.945  1.00  0.00    -0.188 C  
HETATM   26  O   UNL     1      -8.985  16.559  68.703  1.00  0.00    -0.218 OA 
ENDBRANCH  16  17
ENDBRANCH  15  16
ENDBRANCH  14  15
ENDBRANCH  11  14
ENDBRANCH   6   8
TORSDOF 5
ENDMDL
MODEL      166
REMARK 921   NORMALIZED FREE ENERGY PREDICTED BY IDOCK:   -4.51 KCAL/MOL
REMARK 922        TOTAL FREE ENERGY PREDICTED BY IDOCK:   -6.47 KCAL/MOL
REMARK 923 INTER-LIGAND FREE ENERGY PREDICTED BY IDOCK:   -5.85 KCAL/MOL
REMARK 924 INTRA-LIGAND FREE ENERGY PREDICTED BY IDOCK:   -0.62 KCAL/MOL
REMARK 927      BINDING AFFINITY PREDICTED BY RF-SCORE:    0.00 PKD
ROOT
HETATM    1 CL   UNL     1     -13.091  10.651  72.012  1.00  0.00    -0.578 Cl 
HETATM    2  C   UNL     1     -12.612  11.940  70.974  1.00  0.00    -0.283 A  
HETATM    3  C   UNL     1     -12.812  13.255  71.375  1.00  0.00    -0.411 A  
HETATM    4  C   UNL     1     -12.427  14.289  70.528  1.00  0.00    -0.428 A  
HETATM    5  C   UNL     1     -11.864  13.995  69.281  1.00  0.00    -0.389 A  
HETATM    6  C   UNL     1     -11.676  12.675  68.843  1.00  0.00    -0.325 A  
HETATM    7  C   UNL     1     -12.046  11.653  69.730  1.00  0.00    -0.357 A  
ENDROOT
BRANCH   6   8
HETATM    8  N   UNL     1     -11.231  12.413  67.560  1.00  0.00    -0.275 NA 
HETATM    9  C   UNL     1     -12.159  12.431  66.420  1.00  0.00    -0.140 C  
HETATM   10  C   UNL     1     -11.428  12.954  65.162  1.00  0.00    -0.313 C  
HETATM   11  N   UNL     1     -10.185  12.224  64.811  1.00  0.00    -0.284 NA 
HETATM   12  C   UNL     1      -9.949  11.730  67.316  1.00  0.00    -0.192 C  
HETATM   13  C   UNL     1      -9.302  12.255  66.008  1.00  0.00    -0.141 C  
BRANCH  11  14
HETATM   14  C   UNL     1     -10.431  10.838  64.381  1.00  0.00    -0.274 C  
BRANCH  14  15
HETATM   15  C   UNL     1      -9.646  10.452  63.125  1.00  0.00    -0.346 C  
BRANCH  15  16
HETATM   16  C   UNL     1      -8.224  10.031  63.481  1.00  0.00    -0.163 C  
BRANCH  16  17
HETATM   17  N   UNL     1      -8.215   8.772  64.186  1.00  0.00    -0.163 N  
HETATM   18  N   UNL     1      -8.014   8.687  65.550  1.00  0.00    -0.102 NA 
HETATM   19  C   UNL     1      -7.899   7.411  65.758  1.00  0.00    -0.108 A  
HETATM   20  C   UNL     1      -7.684   6.728  67.052  1.00  0.00    -0.100 A  
HETATM   21  C   UNL     1      -7.585   5.387  67.041  1.00  0.00    -0.092 A  
HETATM   22  C   UNL     1      -7.675   4.632  65.804  1.00  0.00    -0.094 A  
HETATM   23  C   UNL     1      -7.868   5.273  64.640  1.00  0.00    -0.098 A  
HETATM   24  N   UNL     1      -7.983   6.634  64.647  1.00  0.00    -0.119 N  
HETATM   25  C   UNL     1      -8.162   7.497  63.592  1.00  0.00     0.062 C  
HETATM   26  O   UNL     1      -8.227   7.232  62.398  1.00  0.00    -0.134 OA 
ENDBRANCH  16  17
ENDBRANCH  15  16
ENDBRANCH  14  15
ENDBRANCH  11  14
ENDBRANCH   6   8
TORSDOF 5
ENDMDL
MODEL      167
REMARK 921   NORMALIZED FREE ENERGY PREDICTED BY IDOCK:   -4.51 KCAL/MOL
REMARK 922        TOTAL FREE ENERGY PREDICTED BY IDOCK:   -6.46 KCAL/MOL
REMARK 923 INTER-LIGAND FREE ENERGY PREDICTED BY IDOCK:   -5.86 KCAL/MOL
REMARK 924 INTRA-LIGAND FREE ENERGY PREDICTED BY IDOCK:   -0.60 KCAL/MOL
REMARK 927      BINDING AFFINITY PREDICTED BY RF-SCORE:    0.00 PKD
ROOT
HETATM    1 CL   UNL     1      -8.431  18.299  68.132  1.00  0.00    -0.279 Cl 
HETATM    2  C   UNL     1      -9.339  17.388  66.986  1.00  0.00    -0.260 A  
HETATM    3  C   UNL     1     -10.144  18.048  66.067  1.00  0.00    -0.268 A  
HETATM    4  C   UNL     1     -10.877  17.304  65.149  1.00  0.00     0.051 A  
HETATM    5  C   UNL     1     -10.812  15.906  65.174  1.00  0.00    -0.438 A  
HETATM    6  C   UNL     1     -10.026  15.216  66.110  1.00  0.00    -0.295 A  
HETATM    7  C   UNL     1      -9.275  15.993  67.005  1.00  0.00    -0.229 A  
ENDROOT
BRANCH   6   8
HETATM    8  N   UNL     1     -10.074  13.836  66.191  1.00  0.00    -0.300 NA 
HETATM    9  C   UNL     1      -9.458  13.124  67.321  1.00  0.00    -0.225 C  
HETATM   10  C   UNL     1     -10.290  11.866  67.659  1.00  0.00    -0.200 C  
HETATM   11  N   UNL     1     -10.518  10.941  66.521  1.00  0.00    -0.251 NA 
HETATM   12  C   UNL     1     -10.365  13.007  65.009  1.00  0.00    -0.318 C  
HETATM   13  C   UNL     1     -11.144  11.732  65.428  1.00  0.00    -0.279 C  
BRANCH  11  14
HETATM   14  C   UNL     1      -9.285  10.288  66.053  1.00  0.00    -0.164 C  
BRANCH  14  15
HETATM   15  C   UNL     1      -9.371   8.760  66.073  1.00  0.00    -0.296 C  
BRANCH  15  16
HETATM   16  C   UNL     1     -10.514   8.291  66.968  1.00  0.00    -0.314 C  
BRANCH  16  17
HETATM   17  N   UNL     1     -10.044   7.992  68.298  1.00  0.00    -0.190 N  
HETATM   18  N   UNL     1     -10.335   8.794  69.386  1.00  0.00    -0.211 NA 
HETATM   19  C   UNL     1      -9.599   8.297  70.331  1.00  0.00    -0.168 A  
HETATM   20  C   UNL     1      -9.514   8.751  71.736  1.00  0.00    -0.363 A  
HETATM   21  C   UNL     1      -8.674   8.094  72.556  1.00  0.00    -0.266 A  
HETATM   22  C   UNL     1      -7.869   6.983  72.080  1.00  0.00    -0.093 A  
HETATM   23  C   UNL     1      -7.960   6.588  70.800  1.00  0.00    -0.115 A  
HETATM   24  N   UNL     1      -8.822   7.244  69.967  1.00  0.00    -0.141 N  
HETATM   25  C   UNL     1      -9.068   7.035  68.630  1.00  0.00    -0.132 C  
HETATM   26  O   UNL     1      -8.538   6.225  67.880  1.00  0.00    -0.116 OA 
ENDBRANCH  16  17
ENDBRANCH  15  16
ENDBRANCH  14  15
ENDBRANCH  11  14
ENDBRANCH   6   8
TORSDOF 5
ENDMDL
MODEL      168
REMARK 921   NORMALIZED FREE ENERGY PREDICTED BY IDOCK:   -4.50 KCAL/MOL
REMARK 922        TOTAL FREE ENERGY PREDICTED BY IDOCK:   -6.44 KCAL/MOL
REMARK 923 INTER-LIGAND FREE ENERGY PREDICTED BY IDOCK:   -5.69 KCAL/MOL
REMARK 924 INTRA-LIGAND FREE ENERGY PREDICTED BY IDOCK:   -0.75 KCAL/MOL
REMARK 927      BINDING AFFINITY PREDICTED BY RF-SCORE:    0.00 PKD
ROOT
HETATM    1 CL   UNL     1     -10.584   5.687  69.861  1.00  0.00    -0.379 Cl 
HETATM    2  C   UNL     1      -9.675   6.656  68.764  1.00  0.00    -0.130 A  
HETATM    3  C   UNL     1      -8.501   6.156  68.217  1.00  0.00    -0.113 A  
HETATM    4  C   UNL     1      -7.771   6.949  67.338  1.00  0.00    -0.110 A  
HETATM    5  C   UNL     1      -8.215   8.240  67.029  1.00  0.00    -0.104 A  
HETATM    6  C   UNL     1      -9.385   8.776  67.590  1.00  0.00    -0.137 A  
HETATM    7  C   UNL     1     -10.116   7.944  68.451  1.00  0.00    -0.218 A  
ENDROOT
BRANCH   6   8
HETATM    8  N   UNL     1      -9.736  10.095  67.364  1.00  0.00    -0.157 NA 
HETATM    9  C   UNL     1     -10.938  10.434  66.588  1.00  0.00     0.003 C  
HETATM   10  C   UNL     1     -11.570  11.729  67.148  1.00  0.00    -0.266 C  
HETATM   11  N   UNL     1     -10.653  12.892  67.224  1.00  0.00    -0.233 NA 
HETATM   12  C   UNL     1      -8.761  11.187  67.523  1.00  0.00    -0.129 C  
HETATM   13  C   UNL     1      -9.472  12.471  68.024  1.00  0.00    -0.209 C  
BRANCH  11  14
HETATM   14  C   UNL     1     -10.236  13.387  65.902  1.00  0.00    -0.299 C  
BRANCH  14  15
HETATM   15  C   UNL     1     -11.020  14.621  65.450  1.00  0.00    -0.358 C  
BRANCH  15  16
HETATM   16  C   UNL     1     -11.563  15.391  66.650  1.00  0.00     0.062 C  
BRANCH  16  17
HETATM   17  N   UNL     1     -10.717  16.514  66.973  1.00  0.00    -0.247 N  
HETATM   18  N   UNL     1     -10.337  17.451  66.030  1.00  0.00    -0.468 NA 
HETATM   19  C   UNL     1      -9.459  18.171  66.659  1.00  0.00    -0.302 A  
HETATM   20  C   UNL     1      -8.720  19.341  66.140  1.00  0.00    -0.259 A  
HETATM   21  C   UNL     1      -7.843  19.942  66.965  1.00  0.00    -0.325 A  
HETATM   22  C   UNL     1      -7.619  19.455  68.314  1.00  0.00    -0.345 A  
HETATM   23  C   UNL     1      -8.299  18.389  68.764  1.00  0.00    -0.232 A  
HETATM   24  N   UNL     1      -9.201  17.784  67.936  1.00  0.00    -0.260 N  
HETATM   25  C   UNL     1      -9.989  16.681  68.165  1.00  0.00    -0.259 C  
HETATM   26  O   UNL     1     -10.032  15.974  69.165  1.00  0.00    -0.218 OA 
ENDBRANCH  16  17
ENDBRANCH  15  16
ENDBRANCH  14  15
ENDBRANCH  11  14
ENDBRANCH   6   8
TORSDOF 5
ENDMDL
MODEL      169
REMARK 921   NORMALIZED FREE ENERGY PREDICTED BY IDOCK:   -4.45 KCAL/MOL
REMARK 922        TOTAL FREE ENERGY PREDICTED BY IDOCK:   -6.38 KCAL/MOL
REMARK 923 INTER-LIGAND FREE ENERGY PREDICTED BY IDOCK:   -5.75 KCAL/MOL
REMARK 924 INTRA-LIGAND FREE ENERGY PREDICTED BY IDOCK:   -0.63 KCAL/MOL
REMARK 927      BINDING AFFINITY PREDICTED BY RF-SCORE:    0.00 PKD
ROOT
HETATM    1 CL   UNL     1     -12.285  13.306  63.284  1.00  0.00    -0.536 Cl 
HETATM    2  C   UNL     1     -11.580  13.597  64.828  1.00  0.00    -0.355 A  
HETATM    3  C   UNL     1     -10.921  14.796  65.069  1.00  0.00    -0.426 A  
HETATM    4  C   UNL     1     -10.350  15.018  66.317  1.00  0.00    -0.304 A  
HETATM    5  C   UNL     1     -10.428  14.031  67.305  1.00  0.00    -0.268 A  
HETATM    6  C   UNL     1     -11.066  12.801  67.078  1.00  0.00    -0.278 A  
HETATM    7  C   UNL     1     -11.658  12.615  65.819  1.00  0.00    -0.431 A  
ENDROOT
BRANCH   6   8
HETATM    8  N   UNL     1     -11.023  11.797  68.029  1.00  0.00    -0.212 NA 
HETATM    9  C   UNL     1     -11.665  11.972  69.340  1.00  0.00    -0.340 C  
HETATM   10  C   UNL     1     -12.224  10.617  69.830  1.00  0.00    -0.275 C  
HETATM   11  N   UNL     1     -11.236   9.511  69.876  1.00  0.00    -0.214 NA 
HETATM   12  C   UNL     1     -10.035  10.708  67.952  1.00  0.00    -0.166 C  
HETATM   13  C   UNL     1     -10.638   9.396  68.518  1.00  0.00    -0.197 C  
BRANCH  11  14
HETATM   14  C   UNL     1     -10.188   9.714  70.891  1.00  0.00    -0.232 C  
BRANCH  14  15
HETATM   15  C   UNL     1     -10.370   8.827  72.125  1.00  0.00    -0.378 C  
BRANCH  15  16
HETATM   16  C   UNL     1     -10.721   7.398  71.722  1.00  0.00    -0.214 C  
BRANCH  16  17
HETATM   17  N   UNL     1      -9.622   6.500  71.981  1.00  0.00    -0.151 N  
HETATM   18  N   UNL     1      -9.499   5.802  73.167  1.00  0.00    -0.146 NA 
HETATM   19  C   UNL     1      -8.320   5.266  73.079  1.00  0.00    -0.112 A  
HETATM   20  C   UNL     1      -7.657   4.388  74.067  1.00  0.00    -0.085 A  
HETATM   21  C   UNL     1      -6.421   3.945  73.778  1.00  0.00    -0.041 A  
HETATM   22  C   UNL     1      -5.751   4.321  72.546  1.00  0.00    -0.011 A  
HETATM   23  C   UNL     1      -6.371   5.122  71.664  1.00  0.00    -0.031 A  
HETATM   24  N   UNL     1      -7.633   5.563  71.946  1.00  0.00    -0.097 N  
HETATM   25  C   UNL     1      -8.447   6.396  71.215  1.00  0.00    -0.123 C  
HETATM   26  O   UNL     1      -8.202   6.953  70.152  1.00  0.00    -0.128 OA 
ENDBRANCH  16  17
ENDBRANCH  15  16
ENDBRANCH  14  15
ENDBRANCH  11  14
ENDBRANCH   6   8
TORSDOF 5
ENDMDL
MODEL      170
REMARK 921   NORMALIZED FREE ENERGY PREDICTED BY IDOCK:   -4.43 KCAL/MOL
REMARK 922        TOTAL FREE ENERGY PREDICTED BY IDOCK:   -6.36 KCAL/MOL
REMARK 923 INTER-LIGAND FREE ENERGY PREDICTED BY IDOCK:   -6.00 KCAL/MOL
REMARK 924 INTRA-LIGAND FREE ENERGY PREDICTED BY IDOCK:   -0.36 KCAL/MOL
REMARK 927      BINDING AFFINITY PREDICTED BY RF-SCORE:    0.00 PKD
ROOT
HETATM    1 CL   UNL     1     -11.840  16.546  72.211  1.00  0.00    -0.532 Cl 
HETATM    2  C   UNL     1     -12.328  14.923  71.903  1.00  0.00    -0.344 A  
HETATM    3  C   UNL     1     -13.230  14.302  72.757  1.00  0.00    -0.614 A  
HETATM    4  C   UNL     1     -13.613  12.990  72.502  1.00  0.00    -0.537 A  
HETATM    5  C   UNL     1     -13.074  12.306  71.406  1.00  0.00    -0.285 A  
HETATM    6  C   UNL     1     -12.142  12.904  70.544  1.00  0.00    -0.282 A  
HETATM    7  C   UNL     1     -11.795  14.237  70.808  1.00  0.00    -0.336 A  
ENDROOT
BRANCH   6   8
HETATM    8  N   UNL     1     -11.535  12.168  69.542  1.00  0.00    -0.280 NA 
HETATM    9  C   UNL     1     -10.326  12.665  68.867  1.00  0.00    -0.031 C  
HETATM   10  C   UNL     1      -9.412  11.474  68.495  1.00  0.00    -0.174 C  
HETATM   11  N   UNL     1     -10.063  10.414  67.686  1.00  0.00    -0.180 NA 
HETATM   12  C   UNL     1     -12.253  11.094  68.835  1.00  0.00    -0.076 C  
HETATM   13  C   UNL     1     -11.268   9.965  68.434  1.00  0.00    -0.074 C  
BRANCH  11  14
HETATM   14  C   UNL     1     -10.428  10.863  66.332  1.00  0.00    -0.250 C  
BRANCH  14  15
HETATM   15  C   UNL     1      -9.338  11.706  65.667  1.00  0.00    -0.195 C  
BRANCH  15  16
HETATM   16  C   UNL     1      -9.931  12.961  65.034  1.00  0.00    -0.143 C  
BRANCH  16  17
HETATM   17  N   UNL     1      -9.936  14.061  65.967  1.00  0.00    -0.308 N  
HETATM   18  N   UNL     1     -10.974  14.971  66.037  1.00  0.00    -0.331 NA 
HETATM   19  C   UNL     1     -10.525  15.879  66.847  1.00  0.00    -0.309 A  
HETATM   20  C   UNL     1     -11.224  17.098  67.307  1.00  0.00     0.282 A  
HETATM   21  C   UNL     1     -10.567  17.915  68.149  1.00  0.00    -0.351 A  
HETATM   22  C   UNL     1      -9.214  17.621  68.586  1.00  0.00    -0.266 A  
HETATM   23  C   UNL     1      -8.597  16.509  68.154  1.00  0.00    -0.193 A  
HETATM   24  N   UNL     1      -9.266  15.668  67.310  1.00  0.00    -0.201 N  
HETATM   25  C   UNL     1      -8.837  14.498  66.729  1.00  0.00    -0.220 C  
HETATM   26  O   UNL     1      -7.738  13.964  66.820  1.00  0.00     0.233 OA 
ENDBRANCH  16  17
ENDBRANCH  15  16
ENDBRANCH  14  15
ENDBRANCH  11  14
ENDBRANCH   6   8
TORSDOF 5
ENDMDL
MODEL      171
REMARK 921   NORMALIZED FREE ENERGY PREDICTED BY IDOCK:   -4.42 KCAL/MOL
REMARK 922        TOTAL FREE ENERGY PREDICTED BY IDOCK:   -6.35 KCAL/MOL
REMARK 923 INTER-LIGAND FREE ENERGY PREDICTED BY IDOCK:   -5.73 KCAL/MOL
REMARK 924 INTRA-LIGAND FREE ENERGY PREDICTED BY IDOCK:   -0.62 KCAL/MOL
REMARK 927      BINDING AFFINITY PREDICTED BY RF-SCORE:    0.00 PKD
ROOT
HETATM    1 CL   UNL     1     -13.368  11.506  71.801  1.00  0.00    -0.450 Cl 
HETATM    2  C   UNL     1     -12.420  10.070  71.712  1.00  0.00    -0.383 A  
HETATM    3  C   UNL     1     -12.751   8.978  72.504  1.00  0.00    -0.373 A  
HETATM    4  C   UNL     1     -11.976   7.826  72.429  1.00  0.00    -0.338 A  
HETATM    5  C   UNL     1     -10.868   7.785  71.576  1.00  0.00    -0.260 A  
HETATM    6  C   UNL     1     -10.498   8.884  70.786  1.00  0.00    -0.227 A  
HETATM    7  C   UNL     1     -11.314  10.023  70.860  1.00  0.00    -0.439 A  
ENDROOT
BRANCH   6   8
HETATM    8  N   UNL     1      -9.331   8.860  70.044  1.00  0.00    -0.166 NA 
HETATM    9  C   UNL     1      -8.189   9.715  70.405  1.00  0.00    -0.160 C  
HETATM   10  C   UNL     1      -6.868   8.982  70.079  1.00  0.00    -0.045 C  
HETATM   11  N   UNL     1      -6.743   8.509  68.678  1.00  0.00    -0.058 NA 
HETATM   12  C   UNL     1      -9.300   8.315  68.677  1.00  0.00    -0.143 C  
HETATM   13  C   UNL     1      -7.927   7.653  68.394  1.00  0.00    -0.123 C  
BRANCH  11  14
HETATM   14  C   UNL     1      -6.649   9.609  67.704  1.00  0.00    -0.066 C  
BRANCH  14  15
HETATM   15  C   UNL     1      -7.485   9.367  66.445  1.00  0.00    -0.093 C  
BRANCH  15  16
HETATM   16  C   UNL     1      -7.791  10.682  65.734  1.00  0.00    -0.141 C  
BRANCH  16  17
HETATM   17  N   UNL     1      -8.539  11.572  66.588  1.00  0.00    -0.173 N  
HETATM   18  N   UNL     1      -9.915  11.510  66.702  1.00  0.00    -0.203 NA 
HETATM   19  C   UNL     1     -10.207  12.563  67.401  1.00  0.00    -0.213 A  
HETATM   20  C   UNL     1     -11.547  13.002  67.847  1.00  0.00    -0.385 A  
HETATM   21  C   UNL     1     -11.626  14.138  68.563  1.00  0.00    -0.351 A  
HETATM   22  C   UNL     1     -10.441  14.915  68.881  1.00  0.00    -0.242 A  
HETATM   23  C   UNL     1      -9.235  14.500  68.463  1.00  0.00    -0.195 A  
HETATM   24  N   UNL     1      -9.147  13.339  67.748  1.00  0.00    -0.192 N  
HETATM   25  C   UNL     1      -8.039  12.733  67.206  1.00  0.00    -0.172 C  
HETATM   26  O   UNL     1      -6.877  13.123  67.221  1.00  0.00    -0.139 OA 
ENDBRANCH  16  17
ENDBRANCH  15  16
ENDBRANCH  14  15
ENDBRANCH  11  14
ENDBRANCH   6   8
TORSDOF 5
ENDMDL
MODEL      172
REMARK 921   NORMALIZED FREE ENERGY PREDICTED BY IDOCK:   -4.41 KCAL/MOL
REMARK 922        TOTAL FREE ENERGY PREDICTED BY IDOCK:   -6.34 KCAL/MOL
REMARK 923 INTER-LIGAND FREE ENERGY PREDICTED BY IDOCK:   -5.37 KCAL/MOL
REMARK 924 INTRA-LIGAND FREE ENERGY PREDICTED BY IDOCK:   -0.96 KCAL/MOL
REMARK 927      BINDING AFFINITY PREDICTED BY RF-SCORE:    0.00 PKD
ROOT
HETATM    1 CL   UNL     1     -12.104  15.340  64.265  1.00  0.00    -0.351 Cl 
HETATM    2  C   UNL     1     -11.163  14.951  65.654  1.00  0.00    -0.347 A  
HETATM    3  C   UNL     1      -9.899  15.506  65.806  1.00  0.00    -0.392 A  
HETATM    4  C   UNL     1      -9.146  15.181  66.928  1.00  0.00    -0.270 A  
HETATM    5  C   UNL     1      -9.656  14.289  67.877  1.00  0.00    -0.221 A  
HETATM    6  C   UNL     1     -10.920  13.695  67.733  1.00  0.00    -0.259 A  
HETATM    7  C   UNL     1     -11.670  14.063  66.606  1.00  0.00    -0.420 A  
ENDROOT
BRANCH   6   8
HETATM    8  N   UNL     1     -11.350  12.725  68.621  1.00  0.00    -0.271 NA 
HETATM    9  C   UNL     1     -11.838  13.091  69.959  1.00  0.00    -0.285 C  
HETATM   10  C   UNL     1     -12.964  12.120  70.385  1.00  0.00     0.405 C  
HETATM   11  N   UNL     1     -12.602  10.682  70.337  1.00  0.00    -0.340 NA 
HETATM   12  C   UNL     1     -10.980  11.310  68.452  1.00  0.00    -0.219 C  
HETATM   13  C   UNL     1     -12.124  10.393  68.957  1.00  0.00     0.203 C  
BRANCH  11  14
HETATM   14  C   UNL     1     -11.582  10.309  71.330  1.00  0.00    -0.235 C  
BRANCH  14  15
HETATM   15  C   UNL     1     -11.781   8.902  71.896  1.00  0.00    -0.439 C  
BRANCH  15  16
HETATM   16  C   UNL     1     -10.531   8.052  71.694  1.00  0.00    -0.219 C  
BRANCH  16  17
HETATM   17  N   UNL     1     -10.354   7.708  70.304  1.00  0.00    -0.210 N  
HETATM   18  N   UNL     1     -11.171   6.802  69.655  1.00  0.00    -0.300 NA 
HETATM   19  C   UNL     1     -10.587   6.638  68.508  1.00  0.00    -0.233 A  
HETATM   20  C   UNL     1     -11.031   5.781  67.388  1.00  0.00    -0.164 A  
HETATM   21  C   UNL     1     -10.266   5.752  66.282  1.00  0.00    -0.129 A  
HETATM   22  C   UNL     1      -9.041   6.526  66.190  1.00  0.00    -0.146 A  
HETATM   23  C   UNL     1      -8.655   7.296  67.220  1.00  0.00    -0.121 A  
HETATM   24  N   UNL     1      -9.436   7.340  68.340  1.00  0.00    -0.142 N  
HETATM   25  C   UNL     1      -9.238   8.031  69.512  1.00  0.00    -0.152 C  
HETATM   26  O   UNL     1      -8.290   8.743  69.821  1.00  0.00    -0.119 OA 
ENDBRANCH  16  17
ENDBRANCH  15  16
ENDBRANCH  14  15
ENDBRANCH  11  14
ENDBRANCH   6   8
TORSDOF 5
ENDMDL
MODEL      173
REMARK 921   NORMALIZED FREE ENERGY PREDICTED BY IDOCK:   -4.41 KCAL/MOL
REMARK 922        TOTAL FREE ENERGY PREDICTED BY IDOCK:   -6.33 KCAL/MOL
REMARK 923 INTER-LIGAND FREE ENERGY PREDICTED BY IDOCK:   -5.84 KCAL/MOL
REMARK 924 INTRA-LIGAND FREE ENERGY PREDICTED BY IDOCK:   -0.49 KCAL/MOL
REMARK 927      BINDING AFFINITY PREDICTED BY RF-SCORE:    0.00 PKD
ROOT
HETATM    1 CL   UNL     1     -11.293  16.173  68.562  1.00  0.00    -0.373 Cl 
HETATM    2  C   UNL     1     -11.967  15.008  69.636  1.00  0.00    -0.321 A  
HETATM    3  C   UNL     1     -12.786  15.425  70.677  1.00  0.00    -0.484 A  
HETATM    4  C   UNL     1     -13.320  14.477  71.542  1.00  0.00    -0.435 A  
HETATM    5  C   UNL     1     -13.015  13.123  71.368  1.00  0.00    -0.386 A  
HETATM    6  C   UNL     1     -12.169  12.679  70.339  1.00  0.00    -0.288 A  
HETATM    7  C   UNL     1     -11.668  13.654  69.464  1.00  0.00    -0.380 A  
ENDROOT
BRANCH   6   8
HETATM    8  N   UNL     1     -11.787  11.352  70.262  1.00  0.00    -0.346 NA 
HETATM    9  C   UNL     1     -11.345  10.766  68.988  1.00  0.00    -0.284 C  
HETATM   10  C   UNL     1     -10.250   9.707  69.254  1.00  0.00    -0.205 C  
HETATM   11  N   UNL     1     -10.629   8.642  70.215  1.00  0.00    -0.217 NA 
HETATM   12  C   UNL     1     -12.169  10.381  71.302  1.00  0.00    -0.389 C  
HETATM   13  C   UNL     1     -11.057   9.313  71.472  1.00  0.00    -0.373 C  
BRANCH  11  14
HETATM   14  C   UNL     1     -11.692   7.758  69.708  1.00  0.00     0.447 C  
BRANCH  14  15
HETATM   15  C   UNL     1     -11.242   6.303  69.561  1.00  0.00    -0.500 C  
BRANCH  15  16
HETATM   16  C   UNL     1      -9.720   6.203  69.541  1.00  0.00    -0.146 C  
BRANCH  16  17
HETATM   17  N   UNL     1      -9.273   5.269  68.536  1.00  0.00    -0.110 N  
HETATM   18  N   UNL     1      -8.904   5.667  67.265  1.00  0.00    -0.107 NA 
HETATM   19  C   UNL     1      -8.748   4.545  66.633  1.00  0.00    -0.111 A  
HETATM   20  C   UNL     1      -8.337   4.357  65.225  1.00  0.00    -0.112 A  
HETATM   21  C   UNL     1      -8.244   3.097  64.764  1.00  0.00    -0.090 A  
HETATM   22  C   UNL     1      -8.546   1.958  65.611  1.00  0.00    -0.110 A  
HETATM   23  C   UNL     1      -8.921   2.151  66.886  1.00  0.00    -0.121 A  
HETATM   24  N   UNL     1      -9.003   3.428  67.363  1.00  0.00    -0.136 N  
HETATM   25  C   UNL     1      -9.379   3.868  68.611  1.00  0.00    -0.164 C  
HETATM   26  O   UNL     1      -9.755   3.203  69.568  1.00  0.00    -0.098 OA 
ENDBRANCH  16  17
ENDBRANCH  15  16
ENDBRANCH  14  15
ENDBRANCH  11  14
ENDBRANCH   6   8
TORSDOF 5
ENDMDL
MODEL      174
REMARK 921   NORMALIZED FREE ENERGY PREDICTED BY IDOCK:   -4.40 KCAL/MOL
REMARK 922        TOTAL FREE ENERGY PREDICTED BY IDOCK:   -6.32 KCAL/MOL
REMARK 923 INTER-LIGAND FREE ENERGY PREDICTED BY IDOCK:   -5.82 KCAL/MOL
REMARK 924 INTRA-LIGAND FREE ENERGY PREDICTED BY IDOCK:   -0.50 KCAL/MOL
REMARK 927      BINDING AFFINITY PREDICTED BY RF-SCORE:    0.00 PKD
ROOT
HETATM    1 CL   UNL     1      -9.682  17.516  66.092  1.00  0.00    -0.259 Cl 
HETATM    2  C   UNL     1     -10.157  16.601  67.472  1.00  0.00    -0.273 A  
HETATM    3  C   UNL     1     -10.335  17.240  68.693  1.00  0.00    -0.357 A  
HETATM    4  C   UNL     1     -10.713  16.492  69.802  1.00  0.00    -0.298 A  
HETATM    5  C   UNL     1     -10.891  15.110  69.683  1.00  0.00    -0.297 A  
HETATM    6  C   UNL     1     -10.693  14.437  68.467  1.00  0.00    -0.253 A  
HETATM    7  C   UNL     1     -10.340  15.221  67.357  1.00  0.00    -0.256 A  
ENDROOT
BRANCH   6   8
HETATM    8  N   UNL     1     -10.757  13.057  68.404  1.00  0.00    -0.249 NA 
HETATM    9  C   UNL     1     -11.449  12.285  69.447  1.00  0.00    -0.277 C  
HETATM   10  C   UNL     1     -12.113  11.039  68.818  1.00  0.00    -0.114 C  
HETATM   11  N   UNL     1     -11.197  10.165  68.044  1.00  0.00    -0.240 NA 
HETATM   12  C   UNL     1      -9.835  12.282  67.557  1.00  0.00    -0.193 C  
HETATM   13  C   UNL     1     -10.544  11.015  67.013  1.00  0.00    -0.256 C  
BRANCH  11  14
HETATM   14  C   UNL     1     -10.190   9.497  68.884  1.00  0.00    -0.199 C  
BRANCH  14  15
HETATM   15  C   UNL     1     -10.186   7.976  68.718  1.00  0.00    -0.220 C  
BRANCH  15  16
HETATM   16  C   UNL     1     -11.348   7.342  69.478  1.00  0.00     0.102 C  
BRANCH  16  17
HETATM   17  N   UNL     1     -10.871   6.453  70.509  1.00  0.00    -0.258 N  
HETATM   18  N   UNL     1      -9.911   5.489  70.272  1.00  0.00    -0.184 NA 
HETATM   19  C   UNL     1      -9.895   4.803  71.373  1.00  0.00    -0.187 A  
HETATM   20  C   UNL     1      -9.037   3.642  71.696  1.00  0.00    -0.171 A  
HETATM   21  C   UNL     1      -9.190   3.069  72.903  1.00  0.00    -0.120 A  
HETATM   22  C   UNL     1     -10.169   3.562  73.855  1.00  0.00    -0.208 A  
HETATM   23  C   UNL     1     -10.939   4.615  73.540  1.00  0.00    -0.318 A  
HETATM   24  N   UNL     1     -10.778   5.210  72.321  1.00  0.00    -0.218 N  
HETATM   25  C   UNL     1     -11.457   6.274  71.776  1.00  0.00    -0.301 C  
HETATM   26  O   UNL     1     -12.385   6.910  72.260  1.00  0.00    -0.216 OA 
ENDBRANCH  16  17
ENDBRANCH  15  16
ENDBRANCH  14  15
ENDBRANCH  11  14
ENDBRANCH   6   8
TORSDOF 5
ENDMDL
MODEL      175
REMARK 921   NORMALIZED FREE ENERGY PREDICTED BY IDOCK:   -4.40 KCAL/MOL
REMARK 922        TOTAL FREE ENERGY PREDICTED BY IDOCK:   -6.32 KCAL/MOL
REMARK 923 INTER-LIGAND FREE ENERGY PREDICTED BY IDOCK:   -6.22 KCAL/MOL
REMARK 924 INTRA-LIGAND FREE ENERGY PREDICTED BY IDOCK:   -0.10 KCAL/MOL
REMARK 927      BINDING AFFINITY PREDICTED BY RF-SCORE:    0.00 PKD
ROOT
HETATM    1 CL   UNL     1      -8.582   4.444  64.815  1.00  0.00    -0.126 Cl 
HETATM    2  C   UNL     1      -9.187   5.394  66.118  1.00  0.00    -0.156 A  
HETATM    3  C   UNL     1      -9.831   4.773  67.181  1.00  0.00    -0.222 A  
HETATM    4  C   UNL     1     -10.321   5.550  68.224  1.00  0.00    -0.237 A  
HETATM    5  C   UNL     1     -10.178   6.941  68.186  1.00  0.00    -0.203 A  
HETATM    6  C   UNL     1      -9.555   7.594  67.111  1.00  0.00    -0.162 A  
HETATM    7  C   UNL     1      -9.044   6.784  66.085  1.00  0.00    -0.138 A  
ENDROOT
BRANCH   6   8
HETATM    8  N   UNL     1      -9.535   8.975  67.039  1.00  0.00    -0.155 NA 
HETATM    9  C   UNL     1      -8.475   9.750  67.702  1.00  0.00    -0.122 C  
HETATM   10  C   UNL     1      -8.148  11.007  66.863  1.00  0.00    -0.142 C  
HETATM   11  N   UNL     1      -9.313  11.874  66.553  1.00  0.00    -0.211 NA 
HETATM   12  C   UNL     1     -10.735   9.743  66.666  1.00  0.00    -0.036 C  
HETATM   13  C   UNL     1     -10.332  11.021  65.885  1.00  0.00    -0.257 C  
BRANCH  11  14
HETATM   14  C   UNL     1      -9.879  12.527  67.745  1.00  0.00    -0.204 C  
BRANCH  14  15
HETATM   15  C   UNL     1     -10.618  13.827  67.421  1.00  0.00    -0.260 C  
BRANCH  15  16
HETATM   16  C   UNL     1     -10.559  14.794  68.599  1.00  0.00    -0.255 C  
BRANCH  16  17
HETATM   17  N   UNL     1     -10.063  16.085  68.187  1.00  0.00    -0.231 N  
HETATM   18  N   UNL     1     -10.695  17.266  68.528  1.00  0.00    -0.339 NA 
HETATM   19  C   UNL     1     -10.059  18.158  67.833  1.00  0.00    -0.357 A  
HETATM   20  C   UNL     1     -10.298  19.617  67.811  1.00  0.00    -0.586 A  
HETATM   21  C   UNL     1      -9.523  20.366  67.006  1.00  0.00    -0.544 A  
HETATM   22  C   UNL     1      -8.493  19.766  66.178  1.00  0.00    -0.367 A  
HETATM   23  C   UNL     1      -8.295  18.438  66.211  1.00  0.00    -0.207 A  
HETATM   24  N   UNL     1      -9.070  17.675  67.037  1.00  0.00    -0.244 N  
HETATM   25  C   UNL     1      -9.064  16.313  67.223  1.00  0.00    -0.203 C  
HETATM   26  O   UNL     1      -8.373  15.474  66.658  1.00  0.00    -0.255 OA 
ENDBRANCH  16  17
ENDBRANCH  15  16
ENDBRANCH  14  15
ENDBRANCH  11  14
ENDBRANCH   6   8
TORSDOF 5
ENDMDL
MODEL      176
REMARK 921   NORMALIZED FREE ENERGY PREDICTED BY IDOCK:   -4.33 KCAL/MOL
REMARK 922        TOTAL FREE ENERGY PREDICTED BY IDOCK:   -6.23 KCAL/MOL
REMARK 923 INTER-LIGAND FREE ENERGY PREDICTED BY IDOCK:   -5.49 KCAL/MOL
REMARK 924 INTRA-LIGAND FREE ENERGY PREDICTED BY IDOCK:   -0.74 KCAL/MOL
REMARK 927      BINDING AFFINITY PREDICTED BY RF-SCORE:    0.00 PKD
ROOT
HETATM    1 CL   UNL     1     -12.082  12.263  63.327  1.00  0.00    -0.568 Cl 
HETATM    2  C   UNL     1     -10.618  11.533  63.865  1.00  0.00    -0.391 A  
HETATM    3  C   UNL     1     -10.108  10.434  63.185  1.00  0.00     0.055 A  
HETATM    4  C   UNL     1      -8.929   9.848  63.630  1.00  0.00    -0.278 A  
HETATM    5  C   UNL     1      -8.282  10.355  64.763  1.00  0.00    -0.141 A  
HETATM    6  C   UNL     1      -8.792  11.447  65.482  1.00  0.00    -0.030 A  
HETATM    7  C   UNL     1      -9.967  12.037  64.994  1.00  0.00    -0.259 A  
ENDROOT
BRANCH   6   8
HETATM    8  N   UNL     1      -8.201  11.851  66.666  1.00  0.00    -0.134 NA 
HETATM    9  C   UNL     1      -8.755  12.969  67.444  1.00  0.00    -0.205 C  
HETATM   10  C   UNL     1      -8.547  12.706  68.953  1.00  0.00     0.325 C  
HETATM   11  N   UNL     1      -7.144  12.436  69.354  1.00  0.00     0.070 NA 
HETATM   12  C   UNL     1      -6.814  11.482  66.997  1.00  0.00    -0.147 C  
HETATM   13  C   UNL     1      -6.660  11.297  68.529  1.00  0.00    -0.060 C  
BRANCH  11  14
HETATM   14  C   UNL     1      -6.264  13.606  69.195  1.00  0.00    -0.098 C  
BRANCH  14  15
HETATM   15  C   UNL     1      -6.868  14.892  69.761  1.00  0.00    -0.182 C  
BRANCH  15  16
HETATM   16  C   UNL     1      -6.254  16.121  69.096  1.00  0.00    -0.153 C  
BRANCH  16  17
HETATM   17  N   UNL     1      -7.276  17.002  68.588  1.00  0.00    -0.210 N  
HETATM   18  N   UNL     1      -8.202  16.599  67.644  1.00  0.00    -0.170 NA 
HETATM   19  C   UNL     1      -8.809  17.701  67.328  1.00  0.00    -0.236 A  
HETATM   20  C   UNL     1      -9.917  17.871  66.364  1.00  0.00    -0.358 A  
HETATM   21  C   UNL     1     -10.399  19.113  66.179  1.00  0.00    -0.561 A  
HETATM   22  C   UNL     1      -9.847  20.252  66.891  1.00  0.00    -0.597 A  
HETATM   23  C   UNL     1      -8.839  20.075  67.759  1.00  0.00    -0.302 A  
HETATM   24  N   UNL     1      -8.355  18.814  67.961  1.00  0.00    -0.281 N  
HETATM   25  C   UNL     1      -7.329  18.396  68.775  1.00  0.00    -0.287 C  
HETATM   26  O   UNL     1      -6.596  19.077  69.482  1.00  0.00    -0.292 OA 
ENDBRANCH  16  17
ENDBRANCH  15  16
ENDBRANCH  14  15
ENDBRANCH  11  14
ENDBRANCH   6   8
TORSDOF 5
ENDMDL
MODEL      177
REMARK 921   NORMALIZED FREE ENERGY PREDICTED BY IDOCK:   -4.29 KCAL/MOL
REMARK 922        TOTAL FREE ENERGY PREDICTED BY IDOCK:   -6.18 KCAL/MOL
REMARK 923 INTER-LIGAND FREE ENERGY PREDICTED BY IDOCK:   -5.64 KCAL/MOL
REMARK 924 INTRA-LIGAND FREE ENERGY PREDICTED BY IDOCK:   -0.54 KCAL/MOL
REMARK 927      BINDING AFFINITY PREDICTED BY RF-SCORE:    0.00 PKD
ROOT
HETATM    1 CL   UNL     1     -11.321  16.144  68.587  1.00  0.00    -0.370 Cl 
HETATM    2  C   UNL     1     -12.023  15.022  69.690  1.00  0.00    -0.321 A  
HETATM    3  C   UNL     1     -12.870  15.480  70.690  1.00  0.00    -0.466 A  
HETATM    4  C   UNL     1     -13.427  14.567  71.579  1.00  0.00    -0.449 A  
HETATM    5  C   UNL     1     -13.115  13.208  71.468  1.00  0.00    -0.404 A  
HETATM    6  C   UNL     1     -12.241  12.724  70.482  1.00  0.00    -0.307 A  
HETATM    7  C   UNL     1     -11.717  13.663  69.582  1.00  0.00    -0.383 A  
ENDROOT
BRANCH   6   8
HETATM    8  N   UNL     1     -11.855  11.396  70.471  1.00  0.00    -0.340 NA 
HETATM    9  C   UNL     1     -11.330  10.773  69.247  1.00  0.00    -0.286 C  
HETATM   10  C   UNL     1     -10.256   9.724  69.617  1.00  0.00    -0.233 C  
HETATM   11  N   UNL     1     -10.698   8.687  70.582  1.00  0.00    -0.215 NA 
HETATM   12  C   UNL     1     -12.306  10.456  71.511  1.00  0.00    -0.368 C  
HETATM   13  C   UNL     1     -11.209   9.395  71.786  1.00  0.00    -0.289 C  
BRANCH  11  14
HETATM   14  C   UNL     1     -11.725   7.788  70.031  1.00  0.00     0.236 C  
BRANCH  14  15
HETATM   15  C   UNL     1     -11.270   6.329  69.962  1.00  0.00    -0.480 C  
BRANCH  15  16
HETATM   16  C   UNL     1     -11.209   5.711  71.355  1.00  0.00    -0.097 C  
BRANCH  16  17
HETATM   17  N   UNL     1     -10.009   4.928  71.525  1.00  0.00    -0.186 N  
HETATM   18  N   UNL     1      -9.310   4.401  70.456  1.00  0.00    -0.128 NA 
HETATM   19  C   UNL     1      -8.428   3.636  71.021  1.00  0.00    -0.071 A  
HETATM   20  C   UNL     1      -7.387   2.822  70.357  1.00  0.00    -0.037 A  
HETATM   21  C   UNL     1      -6.573   2.089  71.139  1.00  0.00    -0.023 A  
HETATM   22  C   UNL     1      -6.716   2.085  72.584  1.00  0.00    -0.018 A  
HETATM   23  C   UNL     1      -7.670   2.829  73.166  1.00  0.00    -0.051 A  
HETATM   24  N   UNL     1      -8.489   3.586  72.378  1.00  0.00    -0.084 N  
HETATM   25  C   UNL     1      -9.535   4.401  72.740  1.00  0.00    -0.132 C  
HETATM   26  O   UNL     1      -9.985   4.604  73.862  1.00  0.00    -0.144 OA 
ENDBRANCH  16  17
ENDBRANCH  15  16
ENDBRANCH  14  15
ENDBRANCH  11  14
ENDBRANCH   6   8
TORSDOF 5
ENDMDL
MODEL      178
REMARK 921   NORMALIZED FREE ENERGY PREDICTED BY IDOCK:   -4.26 KCAL/MOL
REMARK 922        TOTAL FREE ENERGY PREDICTED BY IDOCK:   -6.14 KCAL/MOL
REMARK 923 INTER-LIGAND FREE ENERGY PREDICTED BY IDOCK:   -5.16 KCAL/MOL
REMARK 924 INTRA-LIGAND FREE ENERGY PREDICTED BY IDOCK:   -0.98 KCAL/MOL
REMARK 927      BINDING AFFINITY PREDICTED BY RF-SCORE:    0.00 PKD
ROOT
HETATM    1 CL   UNL     1      -8.604  13.700  67.033  1.00  0.00    -0.204 Cl 
HETATM    2  C   UNL     1      -9.483  12.246  67.315  1.00  0.00    -0.186 A  
HETATM    3  C   UNL     1     -10.810  12.313  67.722  1.00  0.00    -0.256 A  
HETATM    4  C   UNL     1     -11.509  11.134  67.954  1.00  0.00    -0.359 A  
HETATM    5  C   UNL     1     -10.869   9.900  67.792  1.00  0.00    -0.321 A  
HETATM    6  C   UNL     1      -9.522   9.807  67.407  1.00  0.00    -0.152 A  
HETATM    7  C   UNL     1      -8.849  11.012  67.153  1.00  0.00    -0.140 A  
ENDROOT
BRANCH   6   8
HETATM    8  N   UNL     1      -8.880   8.582  67.373  1.00  0.00    -0.133 NA 
HETATM    9  C   UNL     1      -8.804   7.804  66.127  1.00  0.00    -0.162 C  
HETATM   10  C   UNL     1      -7.463   7.036  66.075  1.00  0.00    -0.080 C  
HETATM   11  N   UNL     1      -7.191   6.170  67.249  1.00  0.00    -0.074 NA 
HETATM   12  C   UNL     1      -8.606   7.825  68.606  1.00  0.00    -0.129 C  
HETATM   13  C   UNL     1      -7.283   7.028  68.461  1.00  0.00    -0.091 C  
BRANCH  11  14
HETATM   14  C   UNL     1      -8.113   5.027  67.349  1.00  0.00    -0.103 C  
BRANCH  14  15
HETATM   15  C   UNL     1      -8.012   4.290  68.686  1.00  0.00    -0.073 C  
BRANCH  15  16
HETATM   16  C   UNL     1      -9.372   3.743  69.111  1.00  0.00    -0.173 C  
BRANCH  16  17
HETATM   17  N   UNL     1     -10.014   4.623  70.056  1.00  0.00    -0.231 N  
HETATM   18  N   UNL     1     -10.902   5.609  69.668  1.00  0.00    -0.337 NA 
HETATM   19  C   UNL     1     -11.107   6.277  70.761  1.00  0.00    -0.316 A  
HETATM   20  C   UNL     1     -11.992   7.447  70.946  1.00  0.00    -0.308 A  
HETATM   21  C   UNL     1     -12.052   7.997  72.172  1.00  0.00    -0.391 A  
HETATM   22  C   UNL     1     -11.269   7.471  73.276  1.00  0.00    -0.201 A  
HETATM   23  C   UNL     1     -10.469   6.409  73.085  1.00  0.00    -0.243 A  
HETATM   24  N   UNL     1     -10.416   5.838  71.845  1.00  0.00    -0.214 N  
HETATM   25  C   UNL     1      -9.666   4.771  71.411  1.00  0.00    -0.175 C  
HETATM   26  O   UNL     1      -8.849   4.111  72.043  1.00  0.00    -0.107 OA 
ENDBRANCH  16  17
ENDBRANCH  15  16
ENDBRANCH  14  15
ENDBRANCH  11  14
ENDBRANCH   6   8
TORSDOF 5
ENDMDL
MODEL      179
REMARK 921   NORMALIZED FREE ENERGY PREDICTED BY IDOCK:   -4.24 KCAL/MOL
REMARK 922        TOTAL FREE ENERGY PREDICTED BY IDOCK:   -6.11 KCAL/MOL
REMARK 923 INTER-LIGAND FREE ENERGY PREDICTED BY IDOCK:   -5.34 KCAL/MOL
REMARK 924 INTRA-LIGAND FREE ENERGY PREDICTED BY IDOCK:   -0.77 KCAL/MOL
REMARK 927      BINDING AFFINITY PREDICTED BY RF-SCORE:    0.00 PKD
ROOT
HETATM    1 CL   UNL     1     -12.217  13.597  70.393  1.00  0.00    -0.424 Cl 
HETATM    2  C   UNL     1     -11.735  12.661  69.030  1.00  0.00    -0.318 A  
HETATM    3  C   UNL     1     -11.750  13.232  67.764  1.00  0.00    -0.398 A  
HETATM    4  C   UNL     1     -11.365  12.466  66.669  1.00  0.00    -0.394 A  
HETATM    5  C   UNL     1     -10.986  11.131  66.850  1.00  0.00    -0.333 A  
HETATM    6  C   UNL     1     -10.988  10.524  68.116  1.00  0.00    -0.277 A  
HETATM    7  C   UNL     1     -11.353  11.328  69.206  1.00  0.00    -0.354 A  
ENDROOT
BRANCH   6   8
HETATM    8  N   UNL     1     -10.727   9.172  68.251  1.00  0.00    -0.168 NA 
HETATM    9  C   UNL     1     -10.482   8.579  69.574  1.00  0.00    -0.220 C  
HETATM   10  C   UNL     1     -11.047   7.140  69.611  1.00  0.00    -0.179 C  
HETATM   11  N   UNL     1     -10.549   6.244  68.538  1.00  0.00    -0.232 NA 
HETATM   12  C   UNL     1     -10.291   8.356  67.106  1.00  0.00    -0.311 C  
HETATM   13  C   UNL     1     -10.837   6.911  67.239  1.00  0.00    -0.356 C  
BRANCH  11  14
HETATM   14  C   UNL     1      -9.115   5.938  68.660  1.00  0.00    -0.115 C  
BRANCH  14  15
HETATM   15  C   UNL     1      -8.565   6.195  70.065  1.00  0.00    -0.136 C  
BRANCH  15  16
HETATM   16  C   UNL     1      -7.167   6.803  69.999  1.00  0.00    -0.076 C  
BRANCH  16  17
HETATM   17  N   UNL     1      -7.203   8.128  69.429  1.00  0.00    -0.066 N  
HETATM   18  N   UNL     1      -7.052   8.357  68.074  1.00  0.00    -0.084 NA 
HETATM   19  C   UNL     1      -6.965   9.649  67.995  1.00  0.00    -0.078 A  
HETATM   20  C   UNL     1      -6.806  10.465  66.773  1.00  0.00    -0.091 A  
HETATM   21  C   UNL     1      -6.728  11.800  66.919  1.00  0.00    -0.105 A  
HETATM   22  C   UNL     1      -6.787  12.422  68.230  1.00  0.00    -0.080 A  
HETATM   23  C   UNL     1      -6.928  11.661  69.327  1.00  0.00    -0.083 A  
HETATM   24  N   UNL     1      -7.022  10.306  69.183  1.00  0.00    -0.060 N  
HETATM   25  C   UNL     1      -7.149   9.336  70.149  1.00  0.00    -0.072 C  
HETATM   26  O   UNL     1      -7.177   9.476  71.365  1.00  0.00    -0.330 OA 
ENDBRANCH  16  17
ENDBRANCH  15  16
ENDBRANCH  14  15
ENDBRANCH  11  14
ENDBRANCH   6   8
TORSDOF 5
ENDMDL
MODEL      180
REMARK 921   NORMALIZED FREE ENERGY PREDICTED BY IDOCK:   -4.21 KCAL/MOL
REMARK 922        TOTAL FREE ENERGY PREDICTED BY IDOCK:   -6.08 KCAL/MOL
REMARK 923 INTER-LIGAND FREE ENERGY PREDICTED BY IDOCK:   -5.55 KCAL/MOL
REMARK 924 INTRA-LIGAND FREE ENERGY PREDICTED BY IDOCK:   -0.53 KCAL/MOL
REMARK 927      BINDING AFFINITY PREDICTED BY RF-SCORE:    0.00 PKD
ROOT
HETATM    1 CL   UNL     1      -7.092   2.440  70.701  1.00  0.00    -0.033 Cl 
HETATM    2  C   UNL     1      -8.360   3.593  70.879  1.00  0.00    -0.066 A  
HETATM    3  C   UNL     1      -9.296   3.435  71.892  1.00  0.00    -0.193 A  
HETATM    4  C   UNL     1     -10.319   4.368  72.023  1.00  0.00    -0.189 A  
HETATM    5  C   UNL     1     -10.405   5.439  71.127  1.00  0.00    -0.304 A  
HETATM    6  C   UNL     1      -9.486   5.606  70.079  1.00  0.00    -0.158 A  
HETATM    7  C   UNL     1      -8.448   4.666  69.988  1.00  0.00    -0.089 A  
ENDROOT
BRANCH   6   8
HETATM    8  N   UNL     1      -9.664   6.602  69.136  1.00  0.00    -0.145 NA 
HETATM    9  C   UNL     1      -9.848   6.273  67.715  1.00  0.00    -0.121 C  
HETATM   10  C   UNL     1     -10.808   7.295  67.064  1.00  0.00    -0.280 C  
HETATM   11  N   UNL     1     -10.412   8.716  67.223  1.00  0.00    -0.294 NA 
HETATM   12  C   UNL     1      -9.288   7.999  69.414  1.00  0.00    -0.155 C  
HETATM   13  C   UNL     1     -10.251   8.969  68.681  1.00  0.00    -0.205 C  
BRANCH  11  14
HETATM   14  C   UNL     1      -9.178   9.056  66.496  1.00  0.00    -0.179 C  
BRANCH  14  15
HETATM   15  C   UNL     1      -9.426   9.409  65.028  1.00  0.00    -0.204 C  
BRANCH  15  16
HETATM   16  C   UNL     1      -8.827  10.771  64.687  1.00  0.00    -0.143 C  
BRANCH  16  17
HETATM   17  N   UNL     1      -9.448  11.819  65.460  1.00  0.00    -0.206 N  
HETATM   18  N   UNL     1      -8.887  12.318  66.620  1.00  0.00    -0.195 NA 
HETATM   19  C   UNL     1      -9.814  13.092  67.094  1.00  0.00    -0.230 A  
HETATM   20  C   UNL     1      -9.759  13.908  68.326  1.00  0.00    -0.223 A  
HETATM   21  C   UNL     1     -10.844  14.639  68.640  1.00  0.00    -0.261 A  
HETATM   22  C   UNL     1     -12.033  14.622  67.807  1.00  0.00    -0.302 A  
HETATM   23  C   UNL     1     -12.062  13.872  66.695  1.00  0.00    -0.448 A  
HETATM   24  N   UNL     1     -10.958  13.139  66.364  1.00  0.00    -0.286 N  
HETATM   25  C   UNL     1     -10.763  12.292  65.298  1.00  0.00    -0.292 C  
HETATM   26  O   UNL     1     -11.559  11.985  64.419  1.00  0.00    -0.345 OA 
ENDBRANCH  16  17
ENDBRANCH  15  16
ENDBRANCH  14  15
ENDBRANCH  11  14
ENDBRANCH   6   8
TORSDOF 5
ENDMDL
MODEL      181
REMARK 921   NORMALIZED FREE ENERGY PREDICTED BY IDOCK:   -4.21 KCAL/MOL
REMARK 922        TOTAL FREE ENERGY PREDICTED BY IDOCK:   -6.08 KCAL/MOL
REMARK 923 INTER-LIGAND FREE ENERGY PREDICTED BY IDOCK:   -5.63 KCAL/MOL
REMARK 924 INTRA-LIGAND FREE ENERGY PREDICTED BY IDOCK:   -0.45 KCAL/MOL
REMARK 927      BINDING AFFINITY PREDICTED BY RF-SCORE:    0.00 PKD
ROOT
HETATM    1 CL   UNL     1     -11.813  13.689  64.803  1.00  0.00    -0.389 Cl 
HETATM    2  C   UNL     1     -11.644  13.767  66.515  1.00  0.00    -0.365 A  
HETATM    3  C   UNL     1     -11.447  14.996  67.131  1.00  0.00    -0.304 A  
HETATM    4  C   UNL     1     -11.306  15.048  68.513  1.00  0.00    -0.317 A  
HETATM    5  C   UNL     1     -11.346  13.867  69.263  1.00  0.00    -0.321 A  
HETATM    6  C   UNL     1     -11.518  12.611  68.661  1.00  0.00    -0.308 A  
HETATM    7  C   UNL     1     -11.686  12.591  67.268  1.00  0.00    -0.431 A  
ENDROOT
BRANCH   6   8
HETATM    8  N   UNL     1     -11.431  11.451  69.410  1.00  0.00    -0.282 NA 
HETATM    9  C   UNL     1     -10.475  10.392  69.054  1.00  0.00    -0.219 C  
HETATM   10  C   UNL     1      -9.958   9.706  70.340  1.00  0.00    -0.271 C  
HETATM   11  N   UNL     1     -11.015   9.175  71.236  1.00  0.00    -0.301 NA 
HETATM   12  C   UNL     1     -12.517  11.040  70.317  1.00  0.00    -0.285 C  
HETATM   13  C   UNL     1     -11.933  10.303  71.550  1.00  0.00    -0.268 C  
BRANCH  11  14
HETATM   14  C   UNL     1     -11.756   8.047  70.649  1.00  0.00    -0.150 C  
BRANCH  14  15
HETATM   15  C   UNL     1     -10.864   7.091  69.855  1.00  0.00    -0.280 C  
BRANCH  15  16
HETATM   16  C   UNL     1     -10.984   5.666  70.386  1.00  0.00    -0.208 C  
BRANCH  16  17
HETATM   17  N   UNL     1      -9.832   5.307  71.176  1.00  0.00    -0.180 N  
HETATM   18  N   UNL     1      -9.240   6.184  72.066  1.00  0.00    -0.146 NA 
HETATM   19  C   UNL     1      -8.161   5.562  72.428  1.00  0.00    -0.107 A  
HETATM   20  C   UNL     1      -7.137   6.024  73.389  1.00  0.00    -0.085 A  
HETATM   21  C   UNL     1      -6.084   5.219  73.616  1.00  0.00    -0.047 A  
HETATM   22  C   UNL     1      -5.947   3.944  72.936  1.00  0.00    -0.011 A  
HETATM   23  C   UNL     1      -6.887   3.544  72.065  1.00  0.00    -0.023 A  
HETATM   24  N   UNL     1      -7.966   4.352  71.841  1.00  0.00    -0.094 N  
HETATM   25  C   UNL     1      -9.030   4.166  70.991  1.00  0.00    -0.109 C  
HETATM   26  O   UNL     1      -9.230   3.237  70.218  1.00  0.00    -0.125 OA 
ENDBRANCH  16  17
ENDBRANCH  15  16
ENDBRANCH  14  15
ENDBRANCH  11  14
ENDBRANCH   6   8
TORSDOF 5
ENDMDL
MODEL      182
REMARK 921   NORMALIZED FREE ENERGY PREDICTED BY IDOCK:   -4.21 KCAL/MOL
REMARK 922        TOTAL FREE ENERGY PREDICTED BY IDOCK:   -6.08 KCAL/MOL
REMARK 923 INTER-LIGAND FREE ENERGY PREDICTED BY IDOCK:   -5.72 KCAL/MOL
REMARK 924 INTRA-LIGAND FREE ENERGY PREDICTED BY IDOCK:   -0.36 KCAL/MOL
REMARK 927      BINDING AFFINITY PREDICTED BY RF-SCORE:    0.00 PKD
ROOT
HETATM    1 CL   UNL     1      -8.895  17.675  67.479  1.00  0.00    -0.230 Cl 
HETATM    2  C   UNL     1      -9.592  16.389  66.571  1.00  0.00    -0.270 A  
HETATM    3  C   UNL     1     -10.339  16.675  65.435  1.00  0.00    -0.214 A  
HETATM    4  C   UNL     1     -10.903  15.630  64.712  1.00  0.00    -0.377 A  
HETATM    5  C   UNL     1     -10.729  14.310  65.143  1.00  0.00    -0.407 A  
HETATM    6  C   UNL     1     -10.000  13.997  66.301  1.00  0.00    -0.307 A  
HETATM    7  C   UNL     1      -9.419  15.069  66.995  1.00  0.00    -0.240 A  
ENDROOT
BRANCH   6   8
HETATM    8  N   UNL     1      -9.946  12.697  66.771  1.00  0.00    -0.229 NA 
HETATM    9  C   UNL     1      -8.730  12.178  67.415  1.00  0.00    -0.177 C  
HETATM   10  C   UNL     1      -9.118  11.177  68.528  1.00  0.00    -0.175 C  
HETATM   11  N   UNL     1      -9.993  10.062  68.090  1.00  0.00    -0.149 NA 
HETATM   12  C   UNL     1     -10.901  11.674  66.314  1.00  0.00    -0.286 C  
HETATM   13  C   UNL     1     -11.195  10.667  67.456  1.00  0.00    -0.253 C  
BRANCH  11  14
HETATM   14  C   UNL     1      -9.326   9.135  67.161  1.00  0.00    -0.143 C  
BRANCH  14  15
HETATM   15  C   UNL     1     -10.126   7.854  66.915  1.00  0.00    -0.362 C  
BRANCH  15  16
HETATM   16  C   UNL     1     -10.908   7.452  68.162  1.00  0.00    -0.037 C  
BRANCH  16  17
HETATM   17  N   UNL     1     -10.315   6.301  68.798  1.00  0.00    -0.184 N  
HETATM   18  N   UNL     1      -9.885   5.198  68.084  1.00  0.00    -0.147 NA 
HETATM   19  C   UNL     1      -9.594   4.336  69.009  1.00  0.00    -0.170 A  
HETATM   20  C   UNL     1      -9.065   2.968  68.827  1.00  0.00    -0.211 A  
HETATM   21  C   UNL     1      -8.838   2.233  69.931  1.00  0.00    -0.138 A  
HETATM   22  C   UNL     1      -9.112   2.758  71.257  1.00  0.00    -0.179 A  
HETATM   23  C   UNL     1      -9.595   4.002  71.400  1.00  0.00    -0.171 A  
HETATM   24  N   UNL     1      -9.813   4.757  70.282  1.00  0.00    -0.224 N  
HETATM   25  C   UNL     1     -10.315   6.033  70.179  1.00  0.00    -0.224 C  
HETATM   26  O   UNL     1     -10.707   6.769  71.077  1.00  0.00    -0.223 OA 
ENDBRANCH  16  17
ENDBRANCH  15  16
ENDBRANCH  14  15
ENDBRANCH  11  14
ENDBRANCH   6   8
TORSDOF 5
ENDMDL
MODEL      183
REMARK 921   NORMALIZED FREE ENERGY PREDICTED BY IDOCK:   -4.21 KCAL/MOL
REMARK 922        TOTAL FREE ENERGY PREDICTED BY IDOCK:   -6.08 KCAL/MOL
REMARK 923 INTER-LIGAND FREE ENERGY PREDICTED BY IDOCK:   -6.18 KCAL/MOL
REMARK 924 INTRA-LIGAND FREE ENERGY PREDICTED BY IDOCK:    0.10 KCAL/MOL
REMARK 927      BINDING AFFINITY PREDICTED BY RF-SCORE:    0.00 PKD
ROOT
HETATM    1 CL   UNL     1     -10.969  17.205  68.336  1.00  0.00    -0.296 Cl 
HETATM    2  C   UNL     1     -11.376  15.585  68.755  1.00  0.00    -0.334 A  
HETATM    3  C   UNL     1     -12.168  15.341  69.870  1.00  0.00    -0.357 A  
HETATM    4  C   UNL     1     -12.485  14.030  70.203  1.00  0.00    -0.380 A  
HETATM    5  C   UNL     1     -11.992  12.974  69.428  1.00  0.00    -0.338 A  
HETATM    6  C   UNL     1     -11.169  13.193  68.313  1.00  0.00    -0.274 A  
HETATM    7  C   UNL     1     -10.889  14.528  67.983  1.00  0.00    -0.249 A  
ENDROOT
BRANCH   6   8
HETATM    8  N   UNL     1     -10.597  12.130  67.637  1.00  0.00    -0.206 NA 
HETATM    9  C   UNL     1     -10.978  11.825  66.250  1.00  0.00    -0.300 C  
HETATM   10  C   UNL     1      -9.753  11.275  65.484  1.00  0.00    -0.229 C  
HETATM   11  N   UNL     1      -9.094  10.104  66.114  1.00  0.00    -0.151 NA 
HETATM   12  C   UNL     1      -9.913  11.042  68.356  1.00  0.00    -0.186 C  
HETATM   13  C   UNL     1      -8.738  10.494  67.505  1.00  0.00    -0.125 C  
BRANCH  11  14
HETATM   14  C   UNL     1      -9.935   8.896  66.110  1.00  0.00    -0.220 C  
BRANCH  14  15
HETATM   15  C   UNL     1     -10.124   8.293  67.504  1.00  0.00    -0.287 C  
BRANCH  15  16
HETATM   16  C   UNL     1     -10.760   6.909  67.416  1.00  0.00    -0.326 C  
BRANCH  16  17
HETATM   17  N   UNL     1     -10.350   6.077  68.521  1.00  0.00    -0.184 N  
HETATM   18  N   UNL     1      -9.440   5.048  68.377  1.00  0.00    -0.127 NA 
HETATM   19  C   UNL     1      -9.479   4.448  69.527  1.00  0.00    -0.181 A  
HETATM   20  C   UNL     1      -8.691   3.272  69.954  1.00  0.00    -0.134 A  
HETATM   21  C   UNL     1      -8.895   2.802  71.198  1.00  0.00    -0.137 A  
HETATM   22  C   UNL     1      -9.861   3.417  72.090  1.00  0.00    -0.236 A  
HETATM   23  C   UNL     1     -10.568   4.483  71.680  1.00  0.00     0.083 A  
HETATM   24  N   UNL     1     -10.355   4.973  70.423  1.00  0.00    -0.256 N  
HETATM   25  C   UNL     1     -10.965   6.027  69.785  1.00  0.00    -0.401 C  
HETATM   26  O   UNL     1     -11.866   6.746  70.201  1.00  0.00    -0.349 OA 
ENDBRANCH  16  17
ENDBRANCH  15  16
ENDBRANCH  14  15
ENDBRANCH  11  14
ENDBRANCH   6   8
TORSDOF 5
ENDMDL
MODEL      184
REMARK 921   NORMALIZED FREE ENERGY PREDICTED BY IDOCK:   -4.21 KCAL/MOL
REMARK 922        TOTAL FREE ENERGY PREDICTED BY IDOCK:   -6.08 KCAL/MOL
REMARK 923 INTER-LIGAND FREE ENERGY PREDICTED BY IDOCK:   -5.45 KCAL/MOL
REMARK 924 INTRA-LIGAND FREE ENERGY PREDICTED BY IDOCK:   -0.63 KCAL/MOL
REMARK 927      BINDING AFFINITY PREDICTED BY RF-SCORE:    0.00 PKD
ROOT
HETATM    1 CL   UNL     1     -11.364  13.684  66.642  1.00  0.00    -0.327 Cl 
HETATM    2  C   UNL     1     -11.737  13.511  68.314  1.00  0.00    -0.359 A  
HETATM    3  C   UNL     1     -11.892  14.642  69.105  1.00  0.00    -0.347 A  
HETATM    4  C   UNL     1     -12.188  14.492  70.455  1.00  0.00    -0.394 A  
HETATM    5  C   UNL     1     -12.308  13.211  71.004  1.00  0.00    -0.355 A  
HETATM    6  C   UNL     1     -12.130  12.052  70.231  1.00  0.00    -0.312 A  
HETATM    7  C   UNL     1     -11.861  12.234  68.866  1.00  0.00    -0.355 A  
ENDROOT
BRANCH   6   8
HETATM    8  N   UNL     1     -12.134  10.802  70.823  1.00  0.00    -0.344 NA 
HETATM    9  C   UNL     1     -12.800  10.580  72.115  1.00  0.00    -0.183 C  
HETATM   10  C   UNL     1     -13.404   9.157  72.151  1.00  0.00    -0.463 C  
HETATM   11  N   UNL     1     -12.445   8.062  71.863  1.00  0.00    -0.318 NA 
HETATM   12  C   UNL     1     -11.172   9.760  70.424  1.00  0.00    -0.300 C  
HETATM   13  C   UNL     1     -11.821   8.357  70.546  1.00  0.00    -0.001 C  
BRANCH  11  14
HETATM   14  C   UNL     1     -11.415   7.907  72.905  1.00  0.00    -0.297 C  
BRANCH  14  15
HETATM   15  C   UNL     1     -10.850   6.487  72.983  1.00  0.00    -0.291 C  
BRANCH  15  16
HETATM   16  C   UNL     1      -9.403   6.504  73.466  1.00  0.00    -0.137 C  
BRANCH  16  17
HETATM   17  N   UNL     1      -8.552   5.743  72.584  1.00  0.00    -0.120 N  
HETATM   18  N   UNL     1      -7.864   4.620  73.003  1.00  0.00    -0.094 NA 
HETATM   19  C   UNL     1      -7.096   4.344  71.994  1.00  0.00    -0.059 A  
HETATM   20  C   UNL     1      -6.140   3.222  71.874  1.00  0.00    -0.014 A  
HETATM   21  C   UNL     1      -5.432   3.124  70.735  1.00  0.00    -0.012 A  
HETATM   22  C   UNL     1      -5.589   4.090  69.662  1.00  0.00    -0.016 A  
HETATM   23  C   UNL     1      -6.460   5.103  69.794  1.00  0.00    -0.035 A  
HETATM   24  N   UNL     1      -7.193   5.198  70.943  1.00  0.00    -0.062 N  
HETATM   25  C   UNL     1      -8.119   6.146  71.308  1.00  0.00    -0.118 C  
HETATM   26  O   UNL     1      -8.472   7.141  70.685  1.00  0.00    -0.134 OA 
ENDBRANCH  16  17
ENDBRANCH  15  16
ENDBRANCH  14  15
ENDBRANCH  11  14
ENDBRANCH   6   8
TORSDOF 5
ENDMDL
MODEL      185
REMARK 921   NORMALIZED FREE ENERGY PREDICTED BY IDOCK:   -4.20 KCAL/MOL
REMARK 922        TOTAL FREE ENERGY PREDICTED BY IDOCK:   -6.07 KCAL/MOL
REMARK 923 INTER-LIGAND FREE ENERGY PREDICTED BY IDOCK:   -5.31 KCAL/MOL
REMARK 924 INTRA-LIGAND FREE ENERGY PREDICTED BY IDOCK:   -0.76 KCAL/MOL
REMARK 927      BINDING AFFINITY PREDICTED BY RF-SCORE:    0.00 PKD
ROOT
HETATM    1 CL   UNL     1     -11.744  12.814  65.170  1.00  0.00    -0.376 Cl 
HETATM    2  C   UNL     1     -10.911  11.402  65.700  1.00  0.00    -0.190 A  
HETATM    3  C   UNL     1     -10.124  10.691  64.803  1.00  0.00    -0.412 A  
HETATM    4  C   UNL     1      -9.460   9.550  65.239  1.00  0.00    -0.326 A  
HETATM    5  C   UNL     1      -9.606   9.121  66.563  1.00  0.00    -0.289 A  
HETATM    6  C   UNL     1     -10.417   9.807  67.481  1.00  0.00    -0.251 A  
HETATM    7  C   UNL     1     -11.051  10.972  67.022  1.00  0.00    -0.311 A  
ENDROOT
BRANCH   6   8
HETATM    8  N   UNL     1     -10.640   9.296  68.747  1.00  0.00    -0.214 NA 
HETATM    9  C   UNL     1     -10.608  10.168  69.930  1.00  0.00    -0.285 C  
HETATM   10  C   UNL     1     -11.636   9.669  70.971  1.00  0.00    -0.359 C  
HETATM   11  N   UNL     1     -11.486   8.246  71.368  1.00  0.00    -0.260 NA 
HETATM   12  C   UNL     1     -10.520   7.854  69.025  1.00  0.00    -0.198 C  
HETATM   13  C   UNL     1     -11.532   7.435  70.122  1.00  0.00    -0.129 C  
BRANCH  11  14
HETATM   14  C   UNL     1     -10.246   7.984  72.116  1.00  0.00    -0.244 C  
BRANCH  14  15
HETATM   15  C   UNL     1     -10.496   7.346  73.484  1.00  0.00    -0.396 C  
BRANCH  15  16
HETATM   16  C   UNL     1     -10.751   5.848  73.349  1.00  0.00    -0.267 C  
BRANCH  16  17
HETATM   17  N   UNL     1      -9.524   5.133  73.091  1.00  0.00    -0.135 N  
HETATM   18  N   UNL     1      -8.407   5.264  73.893  1.00  0.00    -0.111 NA 
HETATM   19  C   UNL     1      -7.490   4.621  73.239  1.00  0.00    -0.083 A  
HETATM   20  C   UNL     1      -6.080   4.415  73.636  1.00  0.00    -0.028 A  
HETATM   21  C   UNL     1      -5.291   3.718  72.799  1.00  0.00     0.000 A  
HETATM   22  C   UNL     1      -5.798   3.192  71.544  1.00  0.00    -0.013 A  
HETATM   23  C   UNL     1      -7.080   3.393  71.202  1.00  0.00    -0.033 A  
HETATM   24  N   UNL     1      -7.890   4.088  72.055  1.00  0.00    -0.077 N  
HETATM   25  C   UNL     1      -9.213   4.431  71.913  1.00  0.00    -0.129 C  
HETATM   26  O   UNL     1      -9.956   4.209  70.964  1.00  0.00    -0.189 OA 
ENDBRANCH  16  17
ENDBRANCH  15  16
ENDBRANCH  14  15
ENDBRANCH  11  14
ENDBRANCH   6   8
TORSDOF 5
ENDMDL
MODEL      186
REMARK 921   NORMALIZED FREE ENERGY PREDICTED BY IDOCK:   -4.20 KCAL/MOL
REMARK 922        TOTAL FREE ENERGY PREDICTED BY IDOCK:   -6.06 KCAL/MOL
REMARK 923 INTER-LIGAND FREE ENERGY PREDICTED BY IDOCK:   -5.51 KCAL/MOL
REMARK 924 INTRA-LIGAND FREE ENERGY PREDICTED BY IDOCK:   -0.55 KCAL/MOL
REMARK 927      BINDING AFFINITY PREDICTED BY RF-SCORE:    0.00 PKD
ROOT
HETATM    1 CL   UNL     1      -8.511  19.626  65.943  1.00  0.00    -0.259 Cl 
HETATM    2  C   UNL     1      -9.032  18.474  67.112  1.00  0.00    -0.277 A  
HETATM    3  C   UNL     1      -9.786  18.893  68.201  1.00  0.00    -0.420 A  
HETATM    4  C   UNL     1     -10.196  17.956  69.143  1.00  0.00    -0.187 A  
HETATM    5  C   UNL     1      -9.832  16.613  68.995  1.00  0.00    -0.267 A  
HETATM    6  C   UNL     1      -9.049  16.170  67.918  1.00  0.00    -0.192 A  
HETATM    7  C   UNL     1      -8.673  17.132  66.968  1.00  0.00    -0.244 A  
ENDROOT
BRANCH   6   8
HETATM    8  N   UNL     1      -8.601  14.862  67.861  1.00  0.00    -0.155 NA 
HETATM    9  C   UNL     1      -9.547  13.748  67.700  1.00  0.00    -0.219 C  
HETATM   10  C   UNL     1      -8.893  12.630  66.856  1.00  0.00    -0.201 C  
HETATM   11  N   UNL     1      -7.590  12.139  67.368  1.00  0.00    -0.146 NA 
HETATM   12  C   UNL     1      -7.263  14.487  68.346  1.00  0.00    -0.116 C  
HETATM   13  C   UNL     1      -6.694  13.319  67.498  1.00  0.00    -0.148 C  
BRANCH  11  14
HETATM   14  C   UNL     1      -7.705  11.427  68.652  1.00  0.00    -0.137 C  
BRANCH  14  15
HETATM   15  C   UNL     1      -6.647  10.337  68.830  1.00  0.00    -0.052 C  
BRANCH  15  16
HETATM   16  C   UNL     1      -6.835   9.607  70.156  1.00  0.00    -0.097 C  
BRANCH  16  17
HETATM   17  N   UNL     1      -8.162   9.051  70.261  1.00  0.00    -0.125 N  
HETATM   18  N   UNL     1      -9.069   9.472  71.215  1.00  0.00    -0.163 NA 
HETATM   19  C   UNL     1     -10.045   8.625  71.095  1.00  0.00    -0.226 A  
HETATM   20  C   UNL     1     -11.310   8.598  71.860  1.00  0.00    -0.417 A  
HETATM   21  C   UNL     1     -12.190   7.621  71.579  1.00  0.00    -0.351 A  
HETATM   22  C   UNL     1     -11.909   6.619  70.566  1.00  0.00    -0.430 A  
HETATM   23  C   UNL     1     -10.752   6.660  69.885  1.00  0.00    -0.250 A  
HETATM   24  N   UNL     1      -9.861   7.659  70.157  1.00  0.00    -0.184 N  
HETATM   25  C   UNL     1      -8.622   7.892  69.610  1.00  0.00    -0.133 C  
HETATM   26  O   UNL     1      -8.027   7.228  68.770  1.00  0.00    -0.119 OA 
ENDBRANCH  16  17
ENDBRANCH  15  16
ENDBRANCH  14  15
ENDBRANCH  11  14
ENDBRANCH   6   8
TORSDOF 5
ENDMDL
MODEL      187
REMARK 921   NORMALIZED FREE ENERGY PREDICTED BY IDOCK:   -4.20 KCAL/MOL
REMARK 922        TOTAL FREE ENERGY PREDICTED BY IDOCK:   -6.06 KCAL/MOL
REMARK 923 INTER-LIGAND FREE ENERGY PREDICTED BY IDOCK:   -5.54 KCAL/MOL
REMARK 924 INTRA-LIGAND FREE ENERGY PREDICTED BY IDOCK:   -0.51 KCAL/MOL
REMARK 927      BINDING AFFINITY PREDICTED BY RF-SCORE:    0.00 PKD
ROOT
HETATM    1 CL   UNL     1      -9.204  15.985  66.007  1.00  0.00    -0.379 Cl 
HETATM    2  C   UNL     1     -10.232  14.612  65.857  1.00  0.00    -0.326 A  
HETATM    3  C   UNL     1     -11.338  14.668  65.018  1.00  0.00    -0.390 A  
HETATM    4  C   UNL     1     -12.165  13.556  64.909  1.00  0.00    -0.447 A  
HETATM    5  C   UNL     1     -11.887  12.405  65.655  1.00  0.00    -0.468 A  
HETATM    6  C   UNL     1     -10.791  12.332  66.529  1.00  0.00    -0.259 A  
HETATM    7  C   UNL     1      -9.958  13.459  66.597  1.00  0.00    -0.277 A  
ENDROOT
BRANCH   6   8
HETATM    8  N   UNL     1     -10.610  11.229  67.343  1.00  0.00    -0.212 NA 
HETATM    9  C   UNL     1      -9.681  10.154  66.962  1.00  0.00    -0.180 C  
HETATM   10  C   UNL     1      -9.021   9.565  68.230  1.00  0.00    -0.124 C  
HETATM   11  N   UNL     1      -9.969   9.091  69.268  1.00  0.00    -0.183 NA 
HETATM   12  C   UNL     1     -11.587  10.876  68.387  1.00  0.00    -0.276 C  
HETATM   13  C   UNL     1     -10.866  10.231  69.599  1.00  0.00    -0.271 C  
BRANCH  11  14
HETATM   14  C   UNL     1     -10.752   7.919  68.844  1.00  0.00    -0.073 C  
BRANCH  14  15
HETATM   15  C   UNL     1      -9.904   6.854  68.146  1.00  0.00    -0.145 C  
BRANCH  15  16
HETATM   16  C   UNL     1     -10.667   6.228  66.982  1.00  0.00    -0.362 C  
BRANCH  16  17
HETATM   17  N   UNL     1      -9.805   5.389  66.186  1.00  0.00    -0.155 N  
HETATM   18  N   UNL     1      -8.427   5.495  66.222  1.00  0.00    -0.119 NA 
HETATM   19  C   UNL     1      -8.040   4.716  65.259  1.00  0.00    -0.104 A  
HETATM   20  C   UNL     1      -6.652   4.426  64.842  1.00  0.00    -0.044 A  
HETATM   21  C   UNL     1      -6.473   3.588  63.805  1.00  0.00    -0.033 A  
HETATM   22  C   UNL     1      -7.601   2.995  63.110  1.00  0.00    -0.062 A  
HETATM   23  C   UNL     1      -8.854   3.274  63.504  1.00  0.00    -0.092 A  
HETATM   24  N   UNL     1      -9.040   4.113  64.566  1.00  0.00    -0.140 N  
HETATM   25  C   UNL     1     -10.214   4.555  65.129  1.00  0.00    -0.119 C  
HETATM   26  O   UNL     1     -11.362   4.312  64.779  1.00  0.00    -0.302 OA 
ENDBRANCH  16  17
ENDBRANCH  15  16
ENDBRANCH  14  15
ENDBRANCH  11  14
ENDBRANCH   6   8
TORSDOF 5
ENDMDL
MODEL      188
REMARK 921   NORMALIZED FREE ENERGY PREDICTED BY IDOCK:   -4.20 KCAL/MOL
REMARK 922        TOTAL FREE ENERGY PREDICTED BY IDOCK:   -6.06 KCAL/MOL
REMARK 923 INTER-LIGAND FREE ENERGY PREDICTED BY IDOCK:   -5.59 KCAL/MOL
REMARK 924 INTRA-LIGAND FREE ENERGY PREDICTED BY IDOCK:   -0.47 KCAL/MOL
REMARK 927      BINDING AFFINITY PREDICTED BY RF-SCORE:    0.00 PKD
ROOT
HETATM    1 CL   UNL     1      -9.233  17.882  66.341  1.00  0.00    -0.280 Cl 
HETATM    2  C   UNL     1      -9.933  16.896  67.568  1.00  0.00    -0.268 A  
HETATM    3  C   UNL     1     -10.265  17.458  68.794  1.00  0.00    -0.361 A  
HETATM    4  C   UNL     1     -10.824  16.653  69.780  1.00  0.00    -0.238 A  
HETATM    5  C   UNL     1     -11.028  15.290  69.535  1.00  0.00    -0.280 A  
HETATM    6  C   UNL     1     -10.677  14.694  68.314  1.00  0.00    -0.239 A  
HETATM    7  C   UNL     1     -10.141  15.536  67.327  1.00  0.00    -0.250 A  
ENDROOT
BRANCH   6   8
HETATM    8  N   UNL     1     -10.776  13.325  68.142  1.00  0.00    -0.242 NA 
HETATM    9  C   UNL     1     -11.070  12.441  69.279  1.00  0.00    -0.147 C  
HETATM   10  C   UNL     1     -11.927  11.246  68.800  1.00  0.00    -0.282 C  
HETATM   11  N   UNL     1     -11.349  10.473  67.673  1.00  0.00    -0.424 NA 
HETATM   12  C   UNL     1     -10.216  12.658  66.954  1.00  0.00    -0.234 C  
HETATM   13  C   UNL     1     -11.085  11.433  66.568  1.00  0.00    -0.251 C  
BRANCH  11  14
HETATM   14  C   UNL     1     -10.120   9.749  68.039  1.00  0.00    -0.171 C  
BRANCH  14  15
HETATM   15  C   UNL     1      -9.596   8.851  66.917  1.00  0.00    -0.248 C  
BRANCH  15  16
HETATM   16  C   UNL     1      -8.356   8.086  67.367  1.00  0.00    -0.123 C  
BRANCH  16  17
HETATM   17  N   UNL     1      -8.597   7.387  68.606  1.00  0.00    -0.129 N  
HETATM   18  N   UNL     1      -9.453   6.306  68.693  1.00  0.00    -0.122 NA 
HETATM   19  C   UNL     1      -9.532   6.087  69.970  1.00  0.00    -0.156 A  
HETATM   20  C   UNL     1     -10.306   5.029  70.654  1.00  0.00    -0.278 A  
HETATM   21  C   UNL     1     -10.253   4.986  71.997  1.00  0.00    -0.262 A  
HETATM   22  C   UNL     1      -9.474   5.949  72.754  1.00  0.00    -0.153 A  
HETATM   23  C   UNL     1      -8.781   6.904  72.113  1.00  0.00    -0.127 A  
HETATM   24  N   UNL     1      -8.820   6.943  70.748  1.00  0.00    -0.149 N  
HETATM   25  C   UNL     1      -8.216   7.828  69.886  1.00  0.00    -0.125 C  
HETATM   26  O   UNL     1      -7.528   8.804  70.161  1.00  0.00    -0.050 OA 
ENDBRANCH  16  17
ENDBRANCH  15  16
ENDBRANCH  14  15
ENDBRANCH  11  14
ENDBRANCH   6   8
TORSDOF 5
ENDMDL
MODEL      189
REMARK 921   NORMALIZED FREE ENERGY PREDICTED BY IDOCK:   -4.19 KCAL/MOL
REMARK 922        TOTAL FREE ENERGY PREDICTED BY IDOCK:   -6.05 KCAL/MOL
REMARK 923 INTER-LIGAND FREE ENERGY PREDICTED BY IDOCK:   -5.58 KCAL/MOL
REMARK 924 INTRA-LIGAND FREE ENERGY PREDICTED BY IDOCK:   -0.47 KCAL/MOL
REMARK 927      BINDING AFFINITY PREDICTED BY RF-SCORE:    0.00 PKD
ROOT
HETATM    1 CL   UNL     1     -10.504  17.393  69.006  1.00  0.00    -0.333 Cl 
HETATM    2  C   UNL     1     -11.218  15.881  69.419  1.00  0.00    -0.336 A  
HETATM    3  C   UNL     1     -12.156  15.819  70.441  1.00  0.00    -0.399 A  
HETATM    4  C   UNL     1     -12.722  14.593  70.770  1.00  0.00    -0.422 A  
HETATM    5  C   UNL     1     -12.329  13.437  70.086  1.00  0.00    -0.322 A  
HETATM    6  C   UNL     1     -11.364  13.469  69.068  1.00  0.00    -0.288 A  
HETATM    7  C   UNL     1     -10.831  14.724  68.736  1.00  0.00    -0.259 A  
ENDROOT
BRANCH   6   8
HETATM    8  N   UNL     1     -10.906  12.298  68.492  1.00  0.00    -0.228 NA 
HETATM    9  C   UNL     1     -11.162  12.003  67.074  1.00  0.00    -0.320 C  
HETATM   10  C   UNL     1      -9.966  11.224  66.480  1.00  0.00    -0.212 C  
HETATM   11  N   UNL     1      -9.600   9.986  67.213  1.00  0.00    -0.153 NA 
HETATM   12  C   UNL     1     -10.512  11.141  69.313  1.00  0.00    -0.151 C  
HETATM   13  C   UNL     1      -9.354  10.368  68.629  1.00  0.00    -0.167 C  
BRANCH  11  14
HETATM   14  C   UNL     1     -10.630   8.938  67.127  1.00  0.00    -0.231 C  
BRANCH  14  15
HETATM   15  C   UNL     1     -10.123   7.651  66.472  1.00  0.00    -0.205 C  
BRANCH  15  16
HETATM   16  C   UNL     1     -11.013   6.467  66.837  1.00  0.00    -0.338 C  
BRANCH  16  17
HETATM   17  N   UNL     1     -10.224   5.311  67.184  1.00  0.00    -0.209 N  
HETATM   18  N   UNL     1      -9.629   5.163  68.423  1.00  0.00    -0.132 NA 
HETATM   19  C   UNL     1      -8.883   4.112  68.275  1.00  0.00    -0.105 A  
HETATM   20  C   UNL     1      -8.020   3.473  69.291  1.00  0.00    -0.057 A  
HETATM   21  C   UNL     1      -7.319   2.386  68.921  1.00  0.00    -0.044 A  
HETATM   22  C   UNL     1      -7.396   1.860  67.570  1.00  0.00    -0.055 A  
HETATM   23  C   UNL     1      -8.185   2.458  66.662  1.00  0.00    -0.086 A  
HETATM   24  N   UNL     1      -8.909   3.554  67.037  1.00  0.00    -0.121 N  
HETATM   25  C   UNL     1      -9.758   4.333  66.286  1.00  0.00    -0.213 C  
HETATM   26  O   UNL     1     -10.029   4.230  65.096  1.00  0.00    -0.191 OA 
ENDBRANCH  16  17
ENDBRANCH  15  16
ENDBRANCH  14  15
ENDBRANCH  11  14
ENDBRANCH   6   8
TORSDOF 5
ENDMDL
MODEL      190
REMARK 921   NORMALIZED FREE ENERGY PREDICTED BY IDOCK:   -4.16 KCAL/MOL
REMARK 922        TOTAL FREE ENERGY PREDICTED BY IDOCK:   -6.01 KCAL/MOL
REMARK 923 INTER-LIGAND FREE ENERGY PREDICTED BY IDOCK:   -5.27 KCAL/MOL
REMARK 924 INTRA-LIGAND FREE ENERGY PREDICTED BY IDOCK:   -0.74 KCAL/MOL
REMARK 927      BINDING AFFINITY PREDICTED BY RF-SCORE:    0.00 PKD
ROOT
HETATM    1 CL   UNL     1      -5.737   8.228  72.292  1.00  0.00    -0.040 Cl 
HETATM    2  C   UNL     1      -6.008   9.602  71.289  1.00  0.00    -0.053 A  
HETATM    3  C   UNL     1      -5.177  10.710  71.401  1.00  0.00    -0.063 A  
HETATM    4  C   UNL     1      -5.408  11.816  70.591  1.00  0.00    -0.145 A  
HETATM    5  C   UNL     1      -6.479  11.810  69.690  1.00  0.00    -0.113 A  
HETATM    6  C   UNL     1      -7.348  10.713  69.578  1.00  0.00    -0.141 A  
HETATM    7  C   UNL     1      -7.074   9.600  70.386  1.00  0.00    -0.138 A  
ENDROOT
BRANCH   6   8
HETATM    8  N   UNL     1      -8.468  10.780  68.769  1.00  0.00    -0.142 NA 
HETATM    9  C   UNL     1      -8.536  11.733  67.651  1.00  0.00    -0.153 C  
HETATM   10  C   UNL     1      -9.342  11.112  66.487  1.00  0.00    -0.180 C  
HETATM   11  N   UNL     1     -10.700  10.635  66.849  1.00  0.00    -0.255 NA 
HETATM   12  C   UNL     1      -9.762  10.224  69.200  1.00  0.00    -0.217 C  
HETATM   13  C   UNL     1     -10.545   9.678  67.978  1.00  0.00    -0.243 C  
BRANCH  11  14
HETATM   14  C   UNL     1     -11.617  11.727  67.214  1.00  0.00    -0.269 C  
BRANCH  14  15
HETATM   15  C   UNL     1     -11.510  12.936  66.283  1.00  0.00    -0.395 C  
BRANCH  15  16
HETATM   16  C   UNL     1     -12.189  14.158  66.896  1.00  0.00    -0.365 C  
BRANCH  16  17
HETATM   17  N   UNL     1     -11.220  15.162  67.262  1.00  0.00    -0.334 N  
HETATM   18  N   UNL     1     -10.932  16.244  66.452  1.00  0.00    -0.089 NA 
HETATM   19  C   UNL     1      -9.911  16.793  67.035  1.00  0.00    -0.262 A  
HETATM   20  C   UNL     1      -9.182  18.008  66.615  1.00  0.00    -0.291 A  
HETATM   21  C   UNL     1      -8.138  18.403  67.366  1.00  0.00    -0.243 A  
HETATM   22  C   UNL     1      -7.731  17.658  68.544  1.00  0.00    -0.281 A  
HETATM   23  C   UNL     1      -8.405  16.555  68.906  1.00  0.00    -0.241 A  
HETATM   24  N   UNL     1      -9.475  16.158  68.155  1.00  0.00    -0.207 N  
HETATM   25  C   UNL     1     -10.294  15.066  68.316  1.00  0.00    -0.236 C  
HETATM   26  O   UNL     1     -10.223  14.184  69.163  1.00  0.00    -0.173 OA 
ENDBRANCH  16  17
ENDBRANCH  15  16
ENDBRANCH  14  15
ENDBRANCH  11  14
ENDBRANCH   6   8
TORSDOF 5
ENDMDL
MODEL      191
REMARK 921   NORMALIZED FREE ENERGY PREDICTED BY IDOCK:   -4.15 KCAL/MOL
REMARK 922        TOTAL FREE ENERGY PREDICTED BY IDOCK:   -6.00 KCAL/MOL
REMARK 923 INTER-LIGAND FREE ENERGY PREDICTED BY IDOCK:   -4.92 KCAL/MOL
REMARK 924 INTRA-LIGAND FREE ENERGY PREDICTED BY IDOCK:   -1.08 KCAL/MOL
REMARK 927      BINDING AFFINITY PREDICTED BY RF-SCORE:    0.00 PKD
ROOT
HETATM    1 CL   UNL     1     -11.604  15.907  64.274  1.00  0.00    -0.322 Cl 
HETATM    2  C   UNL     1     -10.710  15.391  65.652  1.00  0.00    -0.369 A  
HETATM    3  C   UNL     1      -9.503  16.005  65.958  1.00  0.00    -0.384 A  
HETATM    4  C   UNL     1      -8.786  15.577  67.070  1.00  0.00    -0.258 A  
HETATM    5  C   UNL     1      -9.276  14.526  67.853  1.00  0.00    -0.196 A  
HETATM    6  C   UNL     1     -10.480  13.873  67.550  1.00  0.00    -0.248 A  
HETATM    7  C   UNL     1     -11.197  14.344  66.440  1.00  0.00    -0.345 A  
ENDROOT
BRANCH   6   8
HETATM    8  N   UNL     1     -10.880  12.760  68.268  1.00  0.00    -0.238 NA 
HETATM    9  C   UNL     1     -11.550  12.902  69.569  1.00  0.00    -0.282 C  
HETATM   10  C   UNL     1     -12.587  11.768  69.746  1.00  0.00     0.157 C  
HETATM   11  N   UNL     1     -12.048  10.395  69.584  1.00  0.00    -0.159 NA 
HETATM   12  C   UNL     1     -10.323  11.425  67.990  1.00  0.00    -0.184 C  
HETATM   13  C   UNL     1     -11.393  10.333  68.250  1.00  0.00    -0.177 C  
BRANCH  11  14
HETATM   14  C   UNL     1     -11.102  10.018  70.647  1.00  0.00    -0.335 C  
BRANCH  14  15
HETATM   15  C   UNL     1     -11.074   8.512  70.917  1.00  0.00    -0.295 C  
BRANCH  15  16
HETATM   16  C   UNL     1      -9.639   8.006  71.030  1.00  0.00    -0.160 C  
BRANCH  16  17
HETATM   17  N   UNL     1      -8.862   8.383  69.875  1.00  0.00    -0.136 N  
HETATM   18  N   UNL     1      -9.018   7.774  68.645  1.00  0.00    -0.134 NA 
HETATM   19  C   UNL     1      -8.039   8.258  67.943  1.00  0.00    -0.127 A  
HETATM   20  C   UNL     1      -7.718   7.967  66.529  1.00  0.00    -0.093 A  
HETATM   21  C   UNL     1      -6.645   8.576  65.995  1.00  0.00    -0.054 A  
HETATM   22  C   UNL     1      -5.820   9.480  66.777  1.00  0.00    -0.055 A  
HETATM   23  C   UNL     1      -6.128   9.727  68.061  1.00  0.00    -0.054 A  
HETATM   24  N   UNL     1      -7.226   9.122  68.604  1.00  0.00    -0.074 N  
HETATM   25  C   UNL     1      -7.720   9.205  69.884  1.00  0.00    -0.087 C  
HETATM   26  O   UNL     1      -7.261   9.825  70.836  1.00  0.00    -0.310 OA 
ENDBRANCH  16  17
ENDBRANCH  15  16
ENDBRANCH  14  15
ENDBRANCH  11  14
ENDBRANCH   6   8
TORSDOF 5
ENDMDL
MODEL      192
REMARK 921   NORMALIZED FREE ENERGY PREDICTED BY IDOCK:   -4.13 KCAL/MOL
REMARK 922        TOTAL FREE ENERGY PREDICTED BY IDOCK:   -5.97 KCAL/MOL
REMARK 923 INTER-LIGAND FREE ENERGY PREDICTED BY IDOCK:   -4.80 KCAL/MOL
REMARK 924 INTRA-LIGAND FREE ENERGY PREDICTED BY IDOCK:   -1.17 KCAL/MOL
REMARK 927      BINDING AFFINITY PREDICTED BY RF-SCORE:    0.00 PKD
ROOT
HETATM    1 CL   UNL     1      -9.055  15.735  65.792  1.00  0.00    -0.296 Cl 
HETATM    2  C   UNL     1     -10.052  14.357  66.062  1.00  0.00    -0.322 A  
HETATM    3  C   UNL     1     -11.322  14.307  65.502  1.00  0.00    -0.325 A  
HETATM    4  C   UNL     1     -12.121  13.192  65.730  1.00  0.00    -0.502 A  
HETATM    5  C   UNL     1     -11.648  12.147  66.532  1.00  0.00    -0.425 A  
HETATM    6  C   UNL     1     -10.378  12.187  67.130  1.00  0.00    -0.214 A  
HETATM    7  C   UNL     1      -9.583  13.310  66.859  1.00  0.00    -0.249 A  
ENDROOT
BRANCH   6   8
HETATM    8  N   UNL     1      -9.984  11.199  68.015  1.00  0.00    -0.172 NA 
HETATM    9  C   UNL     1      -8.589  10.733  68.053  1.00  0.00    -0.128 C  
HETATM   10  C   UNL     1      -8.206  10.360  69.504  1.00  0.00    -0.126 C  
HETATM   11  N   UNL     1      -9.104   9.374  70.156  1.00  0.00    -0.213 NA 
HETATM   12  C   UNL     1     -10.963  10.305  68.655  1.00  0.00    -0.244 C  
HETATM   13  C   UNL     1     -10.486   9.919  70.079  1.00  0.00    -0.284 C  
BRANCH  11  14
HETATM   14  C   UNL     1      -9.035   8.038  69.543  1.00  0.00    -0.148 C  
BRANCH  14  15
HETATM   15  C   UNL     1      -7.635   7.424  69.599  1.00  0.00    -0.095 C  
BRANCH  15  16
HETATM   16  C   UNL     1      -7.411   6.470  68.429  1.00  0.00    -0.087 C  
BRANCH  16  17
HETATM   17  N   UNL     1      -7.162   7.196  67.207  1.00  0.00    -0.083 N  
HETATM   18  N   UNL     1      -6.142   8.122  67.089  1.00  0.00    -0.053 NA 
HETATM   19  C   UNL     1      -6.363   8.666  65.932  1.00  0.00    -0.056 A  
HETATM   20  C   UNL     1      -5.569   9.723  65.271  1.00  0.00    -0.059 A  
HETATM   21  C   UNL     1      -5.982  10.154  64.065  1.00  0.00    -0.140 A  
HETATM   22  C   UNL     1      -7.173   9.610  63.436  1.00  0.00    -0.113 A  
HETATM   23  C   UNL     1      -7.881   8.652  64.056  1.00  0.00    -0.146 A  
HETATM   24  N   UNL     1      -7.457   8.202  65.274  1.00  0.00    -0.076 N  
HETATM   25  C   UNL     1      -8.022   7.255  66.096  1.00  0.00    -0.112 C  
HETATM   26  O   UNL     1      -9.058   6.624  65.925  1.00  0.00    -0.130 OA 
ENDBRANCH  16  17
ENDBRANCH  15  16
ENDBRANCH  14  15
ENDBRANCH  11  14
ENDBRANCH   6   8
TORSDOF 5
ENDMDL
MODEL      193
REMARK 921   NORMALIZED FREE ENERGY PREDICTED BY IDOCK:   -4.13 KCAL/MOL
REMARK 922        TOTAL FREE ENERGY PREDICTED BY IDOCK:   -5.97 KCAL/MOL
REMARK 923 INTER-LIGAND FREE ENERGY PREDICTED BY IDOCK:   -5.43 KCAL/MOL
REMARK 924 INTRA-LIGAND FREE ENERGY PREDICTED BY IDOCK:   -0.54 KCAL/MOL
REMARK 927      BINDING AFFINITY PREDICTED BY RF-SCORE:    0.00 PKD
ROOT
HETATM    1 CL   UNL     1     -13.221  10.677  72.076  1.00  0.00    -0.555 Cl 
HETATM    2  C   UNL     1     -12.658  12.013  71.145  1.00  0.00    -0.271 A  
HETATM    3  C   UNL     1     -12.847  13.307  71.615  1.00  0.00    -0.397 A  
HETATM    4  C   UNL     1     -12.395  14.378  70.854  1.00  0.00    -0.419 A  
HETATM    5  C   UNL     1     -11.773  14.146  69.622  1.00  0.00    -0.372 A  
HETATM    6  C   UNL     1     -11.594  12.850  69.114  1.00  0.00    -0.322 A  
HETATM    7  C   UNL     1     -12.035  11.786  69.916  1.00  0.00    -0.405 A  
ENDROOT
BRANCH   6   8
HETATM    8  N   UNL     1     -11.088  12.654  67.841  1.00  0.00    -0.234 NA 
HETATM    9  C   UNL     1     -11.982  12.371  66.709  1.00  0.00    -0.212 C  
HETATM   10  C   UNL     1     -11.409  13.007  65.422  1.00  0.00    -0.297 C  
HETATM   11  N   UNL     1     -10.015  12.616  65.097  1.00  0.00    -0.221 NA 
HETATM   12  C   UNL     1      -9.670  12.323  67.621  1.00  0.00    -0.194 C  
HETATM   13  C   UNL     1      -9.178  12.937  66.285  1.00  0.00    -0.077 C  
BRANCH  11  14
HETATM   14  C   UNL     1      -9.883  11.195  64.735  1.00  0.00    -0.277 C  
BRANCH  14  15
HETATM   15  C   UNL     1      -9.074  10.975  63.455  1.00  0.00    -0.175 C  
BRANCH  15  16
HETATM   16  C   UNL     1      -7.754  10.274  63.760  1.00  0.00    -0.100 C  
BRANCH  16  17
HETATM   17  N   UNL     1      -7.676   9.892  65.149  1.00  0.00    -0.125 N  
HETATM   18  N   UNL     1      -6.914  10.588  66.068  1.00  0.00    -0.128 NA 
HETATM   19  C   UNL     1      -6.966   9.841  67.128  1.00  0.00    -0.085 A  
HETATM   20  C   UNL     1      -6.337  10.100  68.441  1.00  0.00    -0.049 A  
HETATM   21  C   UNL     1      -6.512   9.184  69.409  1.00  0.00    -0.044 A  
HETATM   22  C   UNL     1      -7.282   7.975  69.176  1.00  0.00    -0.077 A  
HETATM   23  C   UNL     1      -7.842   7.758  67.975  1.00  0.00    -0.124 A  
HETATM   24  N   UNL     1      -7.679   8.693  66.992  1.00  0.00    -0.095 N  
HETATM   25  C   UNL     1      -8.136   8.680  65.696  1.00  0.00    -0.110 C  
HETATM   26  O   UNL     1      -8.772   7.802  65.124  1.00  0.00    -0.062 OA 
ENDBRANCH  16  17
ENDBRANCH  15  16
ENDBRANCH  14  15
ENDBRANCH  11  14
ENDBRANCH   6   8
TORSDOF 5
ENDMDL
MODEL      194
REMARK 921   NORMALIZED FREE ENERGY PREDICTED BY IDOCK:   -4.11 KCAL/MOL
REMARK 922        TOTAL FREE ENERGY PREDICTED BY IDOCK:   -5.94 KCAL/MOL
REMARK 923 INTER-LIGAND FREE ENERGY PREDICTED BY IDOCK:   -4.95 KCAL/MOL
REMARK 924 INTRA-LIGAND FREE ENERGY PREDICTED BY IDOCK:   -0.99 KCAL/MOL
REMARK 927      BINDING AFFINITY PREDICTED BY RF-SCORE:    0.00 PKD
ROOT
HETATM    1 CL   UNL     1      -8.650  14.382  66.902  1.00  0.00    -0.222 Cl 
HETATM    2  C   UNL     1      -9.481  12.874  66.951  1.00  0.00    -0.237 A  
HETATM    3  C   UNL     1     -10.799  12.829  67.386  1.00  0.00    -0.265 A  
HETATM    4  C   UNL     1     -11.459  11.606  67.428  1.00  0.00    -0.357 A  
HETATM    5  C   UNL     1     -10.788  10.438  67.050  1.00  0.00    -0.269 A  
HETATM    6  C   UNL     1      -9.448  10.454  66.632  1.00  0.00    -0.165 A  
HETATM    7  C   UNL     1      -8.816  11.705  66.572  1.00  0.00    -0.188 A  
ENDROOT
BRANCH   6   8
HETATM    8  N   UNL     1      -8.772   9.273  66.382  1.00  0.00    -0.129 NA 
HETATM    9  C   UNL     1      -8.565   8.799  65.005  1.00  0.00    -0.169 C  
HETATM   10  C   UNL     1      -7.204   8.072  64.905  1.00  0.00    -0.073 C  
HETATM   11  N   UNL     1      -7.014   6.964  65.873  1.00  0.00    -0.063 NA 
HETATM   12  C   UNL     1      -8.588   8.257  67.431  1.00  0.00    -0.125 C  
HETATM   13  C   UNL     1      -7.236   7.523  67.234  1.00  0.00    -0.086 C  
BRANCH  11  14
HETATM   14  C   UNL     1      -7.909   5.822  65.626  1.00  0.00    -0.100 C  
BRANCH  14  15
HETATM   15  C   UNL     1      -7.699   4.671  66.613  1.00  0.00    -0.091 C  
BRANCH  15  16
HETATM   16  C   UNL     1      -9.036   4.089  67.062  1.00  0.00    -0.149 C  
BRANCH  16  17
HETATM   17  N   UNL     1      -9.568   4.816  68.189  1.00  0.00    -0.141 N  
HETATM   18  N   UNL     1      -9.155   4.579  69.486  1.00  0.00    -0.101 NA 
HETATM   19  C   UNL     1      -9.978   5.287  70.197  1.00  0.00    -0.243 A  
HETATM   20  C   UNL     1     -10.000   5.429  71.669  1.00  0.00    -0.239 A  
HETATM   21  C   UNL     1     -10.952   6.213  72.207  1.00  0.00    -0.302 A  
HETATM   22  C   UNL     1     -11.932   6.889  71.376  1.00  0.00    -0.393 A  
HETATM   23  C   UNL     1     -11.896   6.744  70.042  1.00  0.00    -0.206 A  
HETATM   24  N   UNL     1     -10.922   5.961  69.490  1.00  0.00    -0.372 N  
HETATM   25  C   UNL     1     -10.700   5.651  68.169  1.00  0.00    -0.153 C  
HETATM   26  O   UNL     1     -11.354   5.991  67.190  1.00  0.00    -0.115 OA 
ENDBRANCH  16  17
ENDBRANCH  15  16
ENDBRANCH  14  15
ENDBRANCH  11  14
ENDBRANCH   6   8
TORSDOF 5
ENDMDL
MODEL      195
REMARK 921   NORMALIZED FREE ENERGY PREDICTED BY IDOCK:   -4.08 KCAL/MOL
REMARK 922        TOTAL FREE ENERGY PREDICTED BY IDOCK:   -5.90 KCAL/MOL
REMARK 923 INTER-LIGAND FREE ENERGY PREDICTED BY IDOCK:   -5.10 KCAL/MOL
REMARK 924 INTRA-LIGAND FREE ENERGY PREDICTED BY IDOCK:   -0.80 KCAL/MOL
REMARK 927      BINDING AFFINITY PREDICTED BY RF-SCORE:    0.00 PKD
ROOT
HETATM    1 CL   UNL     1     -12.165  14.562  69.284  1.00  0.00    -0.308 Cl 
HETATM    2  C   UNL     1     -11.874  13.659  67.847  1.00  0.00    -0.366 A  
HETATM    3  C   UNL     1     -12.397  14.102  66.639  1.00  0.00    -0.375 A  
HETATM    4  C   UNL     1     -12.161  13.363  65.485  1.00  0.00    -0.499 A  
HETATM    5  C   UNL     1     -11.419  12.179  65.555  1.00  0.00    -0.394 A  
HETATM    6  C   UNL     1     -10.902  11.697  66.768  1.00  0.00    -0.277 A  
HETATM    7  C   UNL     1     -11.131  12.478  67.911  1.00  0.00    -0.286 A  
ENDROOT
BRANCH   6   8
HETATM    8  N   UNL     1     -10.277  10.464  66.829  1.00  0.00    -0.217 NA 
HETATM    9  C   UNL     1     -10.635   9.488  67.869  1.00  0.00    -0.244 C  
HETATM   10  C   UNL     1     -10.520   8.055  67.298  1.00  0.00    -0.314 C  
HETATM   11  N   UNL     1      -9.202   7.723  66.701  1.00  0.00    -0.168 NA 
HETATM   12  C   UNL     1      -8.993  10.219  66.152  1.00  0.00    -0.154 C  
HETATM   13  C   UNL     1      -8.917   8.749  65.663  1.00  0.00    -0.200 C  
BRANCH  11  14
HETATM   14  C   UNL     1      -8.116   7.670  67.693  1.00  0.00    -0.121 C  
BRANCH  14  15
HETATM   15  C   UNL     1      -6.746   7.401  67.068  1.00  0.00    -0.069 C  
BRANCH  15  16
HETATM   16  C   UNL     1      -6.417   5.911  67.097  1.00  0.00    -0.047 C  
BRANCH  16  17
HETATM   17  N   UNL     1      -7.173   5.193  66.100  1.00  0.00    -0.072 N  
HETATM   18  N   UNL     1      -7.173   5.553  64.766  1.00  0.00    -0.060 NA 
HETATM   19  C   UNL     1      -8.090   4.795  64.250  1.00  0.00    -0.111 A  
HETATM   20  C   UNL     1      -8.517   4.738  62.835  1.00  0.00    -0.116 A  
HETATM   21  C   UNL     1      -9.500   3.879  62.513  1.00  0.00    -0.116 A  
HETATM   22  C   UNL     1     -10.131   3.041  63.517  1.00  0.00    -0.165 A  
HETATM   23  C   UNL     1      -9.730   3.111  64.797  1.00  0.00    -0.105 A  
HETATM   24  N   UNL     1      -8.722   3.972  65.127  1.00  0.00    -0.117 N  
HETATM   25  C   UNL     1      -8.165   4.228  66.357  1.00  0.00    -0.102 C  
HETATM   26  O   UNL     1      -8.475   3.755  67.443  1.00  0.00    -0.097 OA 
ENDBRANCH  16  17
ENDBRANCH  15  16
ENDBRANCH  14  15
ENDBRANCH  11  14
ENDBRANCH   6   8
TORSDOF 5
ENDMDL
MODEL      196
REMARK 921   NORMALIZED FREE ENERGY PREDICTED BY IDOCK:   -4.05 KCAL/MOL
REMARK 922        TOTAL FREE ENERGY PREDICTED BY IDOCK:   -5.87 KCAL/MOL
REMARK 923 INTER-LIGAND FREE ENERGY PREDICTED BY IDOCK:   -5.25 KCAL/MOL
REMARK 924 INTRA-LIGAND FREE ENERGY PREDICTED BY IDOCK:   -0.62 KCAL/MOL
REMARK 927      BINDING AFFINITY PREDICTED BY RF-SCORE:    0.00 PKD
ROOT
HETATM    1 CL   UNL     1      -6.193   2.694  65.897  1.00  0.00    -0.024 Cl 
HETATM    2  C   UNL     1      -7.503   3.504  66.669  1.00  0.00    -0.076 A  
HETATM    3  C   UNL     1      -8.423   2.772  67.409  1.00  0.00    -0.106 A  
HETATM    4  C   UNL     1      -9.480   3.433  68.023  1.00  0.00    -0.213 A  
HETATM    5  C   UNL     1      -9.617   4.818  67.875  1.00  0.00    -0.198 A  
HETATM    6  C   UNL     1      -8.716   5.576  67.110  1.00  0.00    -0.107 A  
HETATM    7  C   UNL     1      -7.642   4.886  66.526  1.00  0.00    -0.088 A  
ENDROOT
BRANCH   6   8
HETATM    8  N   UNL     1      -8.942   6.921  66.880  1.00  0.00    -0.118 NA 
HETATM    9  C   UNL     1     -10.310   7.451  66.787  1.00  0.00    -0.251 C  
HETATM   10  C   UNL     1     -10.353   8.884  67.368  1.00  0.00    -0.269 C  
HETATM   11  N   UNL     1      -9.383   9.833  66.767  1.00  0.00    -0.148 NA 
HETATM   12  C   UNL     1      -7.890   7.793  66.332  1.00  0.00    -0.094 C  
HETATM   13  C   UNL     1      -8.031   9.228  66.904  1.00  0.00    -0.105 C  
BRANCH  11  14
HETATM   14  C   UNL     1      -9.675  10.141  65.357  1.00  0.00    -0.291 C  
BRANCH  14  15
HETATM   15  C   UNL     1     -10.772  11.195  65.189  1.00  0.00    -0.279 C  
BRANCH  15  16
HETATM   16  C   UNL     1     -10.205  12.480  64.594  1.00  0.00    -0.290 C  
BRANCH  16  17
HETATM   17  N   UNL     1     -10.030  13.490  65.609  1.00  0.00    -0.268 N  
HETATM   18  N   UNL     1      -9.084  13.379  66.611  1.00  0.00    -0.210 NA 
HETATM   19  C   UNL     1      -9.363  14.371  67.399  1.00  0.00    -0.199 A  
HETATM   20  C   UNL     1      -8.660  14.756  68.642  1.00  0.00    -0.169 A  
HETATM   21  C   UNL     1      -9.124  15.823  69.317  1.00  0.00    -0.263 A  
HETATM   22  C   UNL     1     -10.280  16.568  68.851  1.00  0.00    -0.268 A  
HETATM   23  C   UNL     1     -10.905  16.200  67.722  1.00  0.00    -0.318 A  
HETATM   24  N   UNL     1     -10.429  15.125  67.025  1.00  0.00    -0.276 N  
HETATM   25  C   UNL     1     -10.909  14.557  65.868  1.00  0.00    -0.308 C  
HETATM   26  O   UNL     1     -11.898  14.878  65.219  1.00  0.00    -0.313 OA 
ENDBRANCH  16  17
ENDBRANCH  15  16
ENDBRANCH  14  15
ENDBRANCH  11  14
ENDBRANCH   6   8
TORSDOF 5
ENDMDL
MODEL      197
REMARK 921   NORMALIZED FREE ENERGY PREDICTED BY IDOCK:   -4.03 KCAL/MOL
REMARK 922        TOTAL FREE ENERGY PREDICTED BY IDOCK:   -5.84 KCAL/MOL
REMARK 923 INTER-LIGAND FREE ENERGY PREDICTED BY IDOCK:   -4.72 KCAL/MOL
REMARK 924 INTRA-LIGAND FREE ENERGY PREDICTED BY IDOCK:   -1.12 KCAL/MOL
REMARK 927      BINDING AFFINITY PREDICTED BY RF-SCORE:    0.00 PKD
ROOT
HETATM    1 CL   UNL     1     -11.000  11.504  66.726  1.00  0.00    -0.329 Cl 
HETATM    2  C   UNL     1      -9.811  11.092  67.902  1.00  0.00    -0.171 A  
HETATM    3  C   UNL     1      -8.500  11.521  67.733  1.00  0.00    -0.137 A  
HETATM    4  C   UNL     1      -7.546  11.178  68.684  1.00  0.00    -0.127 A  
HETATM    5  C   UNL     1      -7.909  10.394  69.785  1.00  0.00    -0.108 A  
HETATM    6  C   UNL     1      -9.221   9.927  69.964  1.00  0.00    -0.183 A  
HETATM    7  C   UNL     1     -10.169  10.312  69.004  1.00  0.00    -0.225 A  
ENDROOT
BRANCH   6   8
HETATM    8  N   UNL     1      -9.526   9.055  70.993  1.00  0.00    -0.253 NA 
HETATM    9  C   UNL     1      -8.470   8.520  71.867  1.00  0.00    -0.170 C  
HETATM   10  C   UNL     1      -9.025   8.337  73.299  1.00  0.00    -0.213 C  
HETATM   11  N   UNL     1     -10.252   7.507  73.394  1.00  0.00    -0.339 NA 
HETATM   12  C   UNL     1     -10.801   8.319  71.024  1.00  0.00    -0.233 C  
HETATM   13  C   UNL     1     -11.265   8.113  72.490  1.00  0.00    -0.391 C  
BRANCH  11  14
HETATM   14  C   UNL     1     -10.022   6.095  73.048  1.00  0.00    -0.176 C  
BRANCH  14  15
HETATM   15  C   UNL     1     -10.794   5.650  71.805  1.00  0.00    -0.301 C  
BRANCH  15  16
HETATM   16  C   UNL     1      -9.982   4.647  70.990  1.00  0.00    -0.200 C  
BRANCH  16  17
HETATM   17  N   UNL     1      -9.267   5.302  69.922  1.00  0.00    -0.132 N  
HETATM   18  N   UNL     1      -7.917   5.586  69.998  1.00  0.00    -0.085 NA 
HETATM   19  C   UNL     1      -7.704   6.318  68.948  1.00  0.00    -0.097 A  
HETATM   20  C   UNL     1      -6.419   6.902  68.506  1.00  0.00    -0.036 A  
HETATM   21  C   UNL     1      -6.423   7.641  67.382  1.00  0.00    -0.058 A  
HETATM   22  C   UNL     1      -7.645   7.869  66.631  1.00  0.00    -0.093 A  
HETATM   23  C   UNL     1      -8.801   7.332  67.053  1.00  0.00    -0.128 A  
HETATM   24  N   UNL     1      -8.800   6.568  68.185  1.00  0.00    -0.116 N  
HETATM   25  C   UNL     1      -9.850   5.940  68.812  1.00  0.00    -0.140 C  
HETATM   26  O   UNL     1     -11.035   5.954  68.502  1.00  0.00    -0.281 OA 
ENDBRANCH  16  17
ENDBRANCH  15  16
ENDBRANCH  14  15
ENDBRANCH  11  14
ENDBRANCH   6   8
TORSDOF 5
ENDMDL
MODEL      198
REMARK 921   NORMALIZED FREE ENERGY PREDICTED BY IDOCK:   -4.00 KCAL/MOL
REMARK 922        TOTAL FREE ENERGY PREDICTED BY IDOCK:   -5.80 KCAL/MOL
REMARK 923 INTER-LIGAND FREE ENERGY PREDICTED BY IDOCK:   -5.36 KCAL/MOL
REMARK 924 INTRA-LIGAND FREE ENERGY PREDICTED BY IDOCK:   -0.44 KCAL/MOL
REMARK 927      BINDING AFFINITY PREDICTED BY RF-SCORE:    0.00 PKD
ROOT
HETATM    1 CL   UNL     1     -10.479  20.767  69.844  1.00  0.00     0.487 Cl 
HETATM    2  C   UNL     1     -10.386  19.773  68.441  1.00  0.00    -0.391 A  
HETATM    3  C   UNL     1     -10.724  20.300  67.201  1.00  0.00    -0.068 A  
HETATM    4  C   UNL     1     -10.651  19.487  66.076  1.00  0.00    -0.589 A  
HETATM    5  C   UNL     1     -10.258  18.150  66.205  1.00  0.00    -0.401 A  
HETATM    6  C   UNL     1      -9.937  17.588  67.450  1.00  0.00    -0.315 A  
HETATM    7  C   UNL     1      -9.991  18.438  68.565  1.00  0.00    -0.415 A  
ENDROOT
BRANCH   6   8
HETATM    8  N   UNL     1      -9.670  16.235  67.567  1.00  0.00    -0.232 NA 
HETATM    9  C   UNL     1      -8.394  15.763  68.124  1.00  0.00    -0.160 C  
HETATM   10  C   UNL     1      -8.624  14.452  68.911  1.00  0.00    -0.064 C  
HETATM   11  N   UNL     1      -9.291  13.370  68.144  1.00  0.00    -0.213 NA 
HETATM   12  C   UNL     1     -10.431  15.234  66.801  1.00  0.00    -0.293 C  
HETATM   13  C   UNL     1     -10.568  13.924  67.620  1.00  0.00    -0.245 C  
BRANCH  11  14
HETATM   14  C   UNL     1      -8.462  12.844  67.048  1.00  0.00    -0.142 C  
BRANCH  14  15
HETATM   15  C   UNL     1      -9.287  12.265  65.897  1.00  0.00    -0.098 C  
BRANCH  15  16
HETATM   16  C   UNL     1      -9.227  10.740  65.897  1.00  0.00    -0.190 C  
BRANCH  16  17
HETATM   17  N   UNL     1      -9.446  10.212  67.222  1.00  0.00    -0.152 N  
HETATM   18  N   UNL     1      -8.481   9.493  67.902  1.00  0.00    -0.119 NA 
HETATM   19  C   UNL     1      -9.114   9.055  68.947  1.00  0.00    -0.140 A  
HETATM   20  C   UNL     1      -8.568   8.230  70.046  1.00  0.00    -0.128 A  
HETATM   21  C   UNL     1      -9.407   7.877  71.037  1.00  0.00    -0.167 A  
HETATM   22  C   UNL     1     -10.802   8.279  71.026  1.00  0.00    -0.269 A  
HETATM   23  C   UNL     1     -11.277   9.025  70.016  1.00  0.00    -0.128 A  
HETATM   24  N   UNL     1     -10.426   9.399  69.015  1.00  0.00    -0.213 N  
HETATM   25  C   UNL     1     -10.685  10.135  67.883  1.00  0.00    -0.269 C  
HETATM   26  O   UNL     1     -11.756  10.597  67.507  1.00  0.00    -0.445 OA 
ENDBRANCH  16  17
ENDBRANCH  15  16
ENDBRANCH  14  15
ENDBRANCH  11  14
ENDBRANCH   6   8
TORSDOF 5
ENDMDL
MODEL      199
REMARK 921   NORMALIZED FREE ENERGY PREDICTED BY IDOCK:   -3.98 KCAL/MOL
REMARK 922        TOTAL FREE ENERGY PREDICTED BY IDOCK:   -5.77 KCAL/MOL
REMARK 923 INTER-LIGAND FREE ENERGY PREDICTED BY IDOCK:   -5.38 KCAL/MOL
REMARK 924 INTRA-LIGAND FREE ENERGY PREDICTED BY IDOCK:   -0.39 KCAL/MOL
REMARK 927      BINDING AFFINITY PREDICTED BY RF-SCORE:    0.00 PKD
ROOT
HETATM    1 CL   UNL     1      -8.824   3.281  64.366  1.00  0.00    -0.101 Cl 
HETATM    2  C   UNL     1      -8.592   4.819  65.106  1.00  0.00    -0.140 A  
HETATM    3  C   UNL     1      -7.749   5.749  64.510  1.00  0.00    -0.095 A  
HETATM    4  C   UNL     1      -7.564   6.985  65.118  1.00  0.00    -0.102 A  
HETATM    5  C   UNL     1      -8.210   7.272  66.326  1.00  0.00    -0.123 A  
HETATM    6  C   UNL     1      -9.045   6.340  66.961  1.00  0.00    -0.123 A  
HETATM    7  C   UNL     1      -9.237   5.111  66.310  1.00  0.00    -0.147 A  
ENDROOT
BRANCH   6   8
HETATM    8  N   UNL     1      -9.573   6.602  68.212  1.00  0.00    -0.126 NA 
HETATM    9  C   UNL     1     -10.699   5.814  68.737  1.00  0.00    -0.247 C  
HETATM   10  C   UNL     1     -10.558   5.663  70.269  1.00  0.00    -0.300 C  
HETATM   11  N   UNL     1     -10.421   6.938  71.015  1.00  0.00    -0.213 NA 
HETATM   12  C   UNL     1      -9.331   7.884  68.895  1.00  0.00    -0.150 C  
HETATM   13  C   UNL     1      -9.266   7.670  70.430  1.00  0.00    -0.156 C  
BRANCH  11  14
HETATM   14  C   UNL     1     -11.638   7.766  70.971  1.00  0.00    -0.283 C  
BRANCH  14  15
HETATM   15  C   UNL     1     -11.343   9.256  70.787  1.00  0.00    -0.349 C  
BRANCH  15  16
HETATM   16  C   UNL     1     -12.538   9.975  70.168  1.00  0.00     0.093 C  
BRANCH  16  17
HETATM   17  N   UNL     1     -12.114  11.114  69.392  1.00  0.00    -0.341 N  
HETATM   18  N   UNL     1     -11.417  10.985  68.205  1.00  0.00    -0.360 NA 
HETATM   19  C   UNL     1     -11.076  12.205  67.923  1.00  0.00    -0.245 A  
HETATM   20  C   UNL     1     -10.317  12.676  66.745  1.00  0.00    -0.246 A  
HETATM   21  C   UNL     1     -10.062  13.993  66.651  1.00  0.00    -0.276 A  
HETATM   22  C   UNL     1     -10.505  14.923  67.674  1.00  0.00    -0.249 A  
HETATM   23  C   UNL     1     -11.190  14.474  68.738  1.00  0.00    -0.261 A  
HETATM   24  N   UNL     1     -11.464  13.139  68.831  1.00  0.00    -0.278 N  
HETATM   25  C   UNL     1     -12.123  12.453  69.823  1.00  0.00    -0.223 C  
HETATM   26  O   UNL     1     -12.589  12.893  70.868  1.00  0.00    -0.343 OA 
ENDBRANCH  16  17
ENDBRANCH  15  16
ENDBRANCH  14  15
ENDBRANCH  11  14
ENDBRANCH   6   8
TORSDOF 5
ENDMDL
MODEL      200
REMARK 921   NORMALIZED FREE ENERGY PREDICTED BY IDOCK:   -3.97 KCAL/MOL
REMARK 922        TOTAL FREE ENERGY PREDICTED BY IDOCK:   -5.76 KCAL/MOL
REMARK 923 INTER-LIGAND FREE ENERGY PREDICTED BY IDOCK:   -4.98 KCAL/MOL
REMARK 924 INTRA-LIGAND FREE ENERGY PREDICTED BY IDOCK:   -0.78 KCAL/MOL
REMARK 927      BINDING AFFINITY PREDICTED BY RF-SCORE:    0.00 PKD
ROOT
HETATM    1 CL   UNL     1     -12.943  13.794  65.734  1.00  0.00    -0.434 Cl 
HETATM    2  C   UNL     1     -11.792  12.618  65.225  1.00  0.00    -0.408 A  
HETATM    3  C   UNL     1     -11.651  12.335  63.873  1.00  0.00    -0.525 A  
HETATM    4  C   UNL     1     -10.723  11.380  63.472  1.00  0.00    -0.453 A  
HETATM    5  C   UNL     1      -9.958  10.705  64.431  1.00  0.00    -0.415 A  
HETATM    6  C   UNL     1     -10.101  10.955  65.805  1.00  0.00    -0.252 A  
HETATM    7  C   UNL     1     -11.024  11.944  66.178  1.00  0.00    -0.352 A  
ENDROOT
BRANCH   6   8
HETATM    8  N   UNL     1      -9.422  10.190  66.736  1.00  0.00    -0.163 NA 
HETATM    9  C   UNL     1      -8.090   9.643  66.436  1.00  0.00    -0.112 C  
HETATM   10  C   UNL     1      -7.239   9.612  67.726  1.00  0.00    -0.085 C  
HETATM   11  N   UNL     1      -7.855   8.891  68.867  1.00  0.00    -0.095 NA 
HETATM   12  C   UNL     1     -10.121   9.561  67.869  1.00  0.00    -0.191 C  
HETATM   13  C   UNL     1      -9.189   9.504  69.108  1.00  0.00    -0.163 C  
BRANCH  11  14
HETATM   14  C   UNL     1      -7.981   7.443  68.634  1.00  0.00    -0.123 C  
BRANCH  14  15
HETATM   15  C   UNL     1      -6.669   6.790  68.196  1.00  0.00    -0.068 C  
BRANCH  15  16
HETATM   16  C   UNL     1      -6.781   5.268  68.229  1.00  0.00    -0.054 C  
BRANCH  16  17
HETATM   17  N   UNL     1      -7.359   4.764  67.007  1.00  0.00    -0.080 N  
HETATM   18  N   UNL     1      -6.757   4.935  65.775  1.00  0.00    -0.055 NA 
HETATM   19  C   UNL     1      -7.656   4.512  64.940  1.00  0.00    -0.077 A  
HETATM   20  C   UNL     1      -7.552   4.445  63.466  1.00  0.00    -0.059 A  
HETATM   21  C   UNL     1      -8.613   3.976  62.786  1.00  0.00    -0.091 A  
HETATM   22  C   UNL     1      -9.824   3.558  63.469  1.00  0.00    -0.154 A  
HETATM   23  C   UNL     1      -9.898   3.630  64.807  1.00  0.00    -0.175 A  
HETATM   24  N   UNL     1      -8.818   4.092  65.504  1.00  0.00    -0.119 N  
HETATM   25  C   UNL     1      -8.669   4.271  66.859  1.00  0.00    -0.113 C  
HETATM   26  O   UNL     1      -9.494   4.080  67.745  1.00  0.00    -0.166 OA 
ENDBRANCH  16  17
ENDBRANCH  15  16
ENDBRANCH  14  15
ENDBRANCH  11  14
ENDBRANCH   6   8
TORSDOF 5
ENDMDL
MODEL      201
REMARK 921   NORMALIZED FREE ENERGY PREDICTED BY IDOCK:   -3.96 KCAL/MOL
REMARK 922        TOTAL FREE ENERGY PREDICTED BY IDOCK:   -5.75 KCAL/MOL
REMARK 923 INTER-LIGAND FREE ENERGY PREDICTED BY IDOCK:   -5.03 KCAL/MOL
REMARK 924 INTRA-LIGAND FREE ENERGY PREDICTED BY IDOCK:   -0.72 KCAL/MOL
REMARK 927      BINDING AFFINITY PREDICTED BY RF-SCORE:    0.00 PKD
ROOT
HETATM    1 CL   UNL     1      -8.591   1.484  71.225  1.00  0.00    -0.071 Cl 
HETATM    2  C   UNL     1      -9.537   2.575  72.164  1.00  0.00    -0.124 A  
HETATM    3  C   UNL     1     -10.288   2.092  73.228  1.00  0.00    -0.209 A  
HETATM    4  C   UNL     1     -11.053   2.980  73.976  1.00  0.00    -0.157 A  
HETATM    5  C   UNL     1     -11.073   4.338  73.641  1.00  0.00    -0.351 A  
HETATM    6  C   UNL     1     -10.344   4.845  72.555  1.00  0.00    -0.201 A  
HETATM    7  C   UNL     1      -9.558   3.932  71.835  1.00  0.00    -0.217 A  
ENDROOT
BRANCH   6   8
HETATM    8  N   UNL     1     -10.476   6.168  72.171  1.00  0.00    -0.198 NA 
HETATM    9  C   UNL     1     -11.799   6.807  72.109  1.00  0.00    -0.290 C  
HETATM   10  C   UNL     1     -11.675   8.297  72.503  1.00  0.00    -0.383 C  
HETATM   11  N   UNL     1     -10.683   9.073  71.717  1.00  0.00    -0.361 NA 
HETATM   12  C   UNL     1      -9.405   6.867  71.441  1.00  0.00    -0.156 C  
HETATM   13  C   UNL     1      -9.379   8.367  71.834  1.00  0.00    -0.244 C  
BRANCH  11  14
HETATM   14  C   UNL     1     -11.064   9.233  70.305  1.00  0.00    -0.251 C  
BRANCH  14  15
HETATM   15  C   UNL     1      -9.920   9.752  69.431  1.00  0.00    -0.217 C  
BRANCH  15  16
HETATM   16  C   UNL     1     -10.319   9.758  67.958  1.00  0.00    -0.207 C  
BRANCH  16  17
HETATM   17  N   UNL     1      -9.876   8.556  67.295  1.00  0.00    -0.181 N  
HETATM   18  N   UNL     1     -10.349   7.303  67.637  1.00  0.00    -0.207 NA 
HETATM   19  C   UNL     1      -9.592   6.499  66.955  1.00  0.00    -0.158 A  
HETATM   20  C   UNL     1      -9.655   5.023  66.916  1.00  0.00    -0.162 A  
HETATM   21  C   UNL     1      -8.763   4.379  66.142  1.00  0.00    -0.113 A  
HETATM   22  C   UNL     1      -7.765   5.104  65.377  1.00  0.00    -0.087 A  
HETATM   23  C   UNL     1      -7.724   6.446  65.428  1.00  0.00    -0.098 A  
HETATM   24  N   UNL     1      -8.637   7.104  66.202  1.00  0.00    -0.141 N  
HETATM   25  C   UNL     1      -8.776   8.454  66.425  1.00  0.00    -0.139 C  
HETATM   26  O   UNL     1      -8.083   9.369  65.995  1.00  0.00    -0.108 OA 
ENDBRANCH  16  17
ENDBRANCH  15  16
ENDBRANCH  14  15
ENDBRANCH  11  14
ENDBRANCH   6   8
TORSDOF 5
ENDMDL
MODEL      202
REMARK 921   NORMALIZED FREE ENERGY PREDICTED BY IDOCK:   -3.95 KCAL/MOL
REMARK 922        TOTAL FREE ENERGY PREDICTED BY IDOCK:   -5.73 KCAL/MOL
REMARK 923 INTER-LIGAND FREE ENERGY PREDICTED BY IDOCK:   -5.09 KCAL/MOL
REMARK 924 INTRA-LIGAND FREE ENERGY PREDICTED BY IDOCK:   -0.64 KCAL/MOL
REMARK 927      BINDING AFFINITY PREDICTED BY RF-SCORE:    0.00 PKD
ROOT
HETATM    1 CL   UNL     1      -9.878  18.417  66.358  1.00  0.00    -0.355 Cl 
HETATM    2  C   UNL     1     -10.259  17.293  67.606  1.00  0.00    -0.333 A  
HETATM    3  C   UNL     1     -10.462  17.748  68.903  1.00  0.00    -0.213 A  
HETATM    4  C   UNL     1     -10.763  16.832  69.904  1.00  0.00    -0.123 A  
HETATM    5  C   UNL     1     -10.841  15.468  69.601  1.00  0.00    -0.285 A  
HETATM    6  C   UNL     1     -10.615  14.982  68.304  1.00  0.00    -0.247 A  
HETATM    7  C   UNL     1     -10.342  15.931  67.308  1.00  0.00    -0.293 A  
ENDROOT
BRANCH   6   8
HETATM    8  N   UNL     1     -10.579  13.621  68.057  1.00  0.00    -0.244 NA 
HETATM    9  C   UNL     1      -9.299  12.921  67.874  1.00  0.00    -0.208 C  
HETATM   10  C   UNL     1      -9.403  11.489  68.448  1.00  0.00    -0.194 C  
HETATM   11  N   UNL     1     -10.523  10.678  67.909  1.00  0.00    -0.194 NA 
HETATM   12  C   UNL     1     -11.767  12.896  67.576  1.00  0.00    -0.367 C  
HETATM   13  C   UNL     1     -11.775  11.449  68.135  1.00  0.00    -0.284 C  
BRANCH  11  14
HETATM   14  C   UNL     1     -10.364  10.350  66.483  1.00  0.00    -0.224 C  
BRANCH  14  15
HETATM   15  C   UNL     1      -9.864   8.923  66.248  1.00  0.00    -0.355 C  
BRANCH  15  16
HETATM   16  C   UNL     1     -10.337   7.991  67.360  1.00  0.00    -0.284 C  
BRANCH  16  17
HETATM   17  N   UNL     1      -9.311   7.039  67.712  1.00  0.00    -0.126 N  
HETATM   18  N   UNL     1      -9.284   5.755  67.202  1.00  0.00    -0.114 NA 
HETATM   19  C   UNL     1      -8.342   5.181  67.884  1.00  0.00    -0.097 A  
HETATM   20  C   UNL     1      -7.858   3.789  67.753  1.00  0.00    -0.081 A  
HETATM   21  C   UNL     1      -6.868   3.392  68.572  1.00  0.00    -0.046 A  
HETATM   22  C   UNL     1      -6.298   4.291  69.560  1.00  0.00    -0.028 A  
HETATM   23  C   UNL     1      -6.754   5.549  69.664  1.00  0.00    -0.058 A  
HETATM   24  N   UNL     1      -7.749   5.962  68.824  1.00  0.00    -0.090 N  
HETATM   25  C   UNL     1      -8.382   7.181  68.759  1.00  0.00    -0.126 C  
HETATM   26  O   UNL     1      -8.208   8.165  69.468  1.00  0.00    -0.117 OA 
ENDBRANCH  16  17
ENDBRANCH  15  16
ENDBRANCH  14  15
ENDBRANCH  11  14
ENDBRANCH   6   8
TORSDOF 5
ENDMDL
MODEL      203
REMARK 921   NORMALIZED FREE ENERGY PREDICTED BY IDOCK:   -3.94 KCAL/MOL
REMARK 922        TOTAL FREE ENERGY PREDICTED BY IDOCK:   -5.72 KCAL/MOL
REMARK 923 INTER-LIGAND FREE ENERGY PREDICTED BY IDOCK:   -4.88 KCAL/MOL
REMARK 924 INTRA-LIGAND FREE ENERGY PREDICTED BY IDOCK:   -0.84 KCAL/MOL
REMARK 927      BINDING AFFINITY PREDICTED BY RF-SCORE:    0.00 PKD
ROOT
HETATM    1 CL   UNL     1      -6.589  18.582  66.990  1.00  0.00    -0.198 Cl 
HETATM    2  C   UNL     1      -8.218  18.332  66.492  1.00  0.00    -0.268 A  
HETATM    3  C   UNL     1      -9.108  19.399  66.490  1.00  0.00    -0.397 A  
HETATM    4  C   UNL     1     -10.423  19.186  66.092  1.00  0.00    -0.558 A  
HETATM    5  C   UNL     1     -10.839  17.903  65.717  1.00  0.00     0.047 A  
HETATM    6  C   UNL     1      -9.965  16.805  65.735  1.00  0.00    -0.215 A  
HETATM    7  C   UNL     1      -8.637  17.055  66.113  1.00  0.00    -0.252 A  
ENDROOT
BRANCH   6   8
HETATM    8  N   UNL     1     -10.431  15.528  65.477  1.00  0.00    -0.357 NA 
HETATM    9  C   UNL     1     -11.869  15.225  65.525  1.00  0.00     0.121 C  
HETATM   10  C   UNL     1     -12.210  14.151  64.466  1.00  0.00    -0.445 C  
HETATM   11  N   UNL     1     -11.411  12.904  64.558  1.00  0.00    -0.324 NA 
HETATM   12  C   UNL     1      -9.539  14.358  65.540  1.00  0.00    -0.062 C  
HETATM   13  C   UNL     1      -9.976  13.295  64.498  1.00  0.00    -0.088 C  
BRANCH  11  14
HETATM   14  C   UNL     1     -11.690  12.129  65.778  1.00  0.00    -0.327 C  
BRANCH  14  15
HETATM   15  C   UNL     1     -10.502  11.277  66.231  1.00  0.00    -0.308 C  
BRANCH  15  16
HETATM   16  C   UNL     1     -10.406  11.243  67.754  1.00  0.00    -0.182 C  
BRANCH  16  17
HETATM   17  N   UNL     1      -9.248  11.967  68.218  1.00  0.00    -0.194 N  
HETATM   18  N   UNL     1      -9.289  13.315  68.521  1.00  0.00    -0.145 NA 
HETATM   19  C   UNL     1      -8.042  13.616  68.719  1.00  0.00     0.001 A  
HETATM   20  C   UNL     1      -7.485  14.934  69.093  1.00  0.00    -0.158 A  
HETATM   21  C   UNL     1      -6.151  15.029  69.241  1.00  0.00    -0.107 A  
HETATM   22  C   UNL     1      -5.284  13.884  69.032  1.00  0.00    -0.074 A  
HETATM   23  C   UNL     1      -5.811  12.697  68.689  1.00  0.00    -0.063 A  
HETATM   24  N   UNL     1      -7.166  12.592  68.552  1.00  0.00    -0.105 N  
HETATM   25  C   UNL     1      -7.921  11.500  68.194  1.00  0.00    -0.136 C  
HETATM   26  O   UNL     1      -7.536  10.378  67.888  1.00  0.00    -0.086 OA 
ENDBRANCH  16  17
ENDBRANCH  15  16
ENDBRANCH  14  15
ENDBRANCH  11  14
ENDBRANCH   6   8
TORSDOF 5
ENDMDL
MODEL      204
REMARK 921   NORMALIZED FREE ENERGY PREDICTED BY IDOCK:   -3.93 KCAL/MOL
REMARK 922        TOTAL FREE ENERGY PREDICTED BY IDOCK:   -5.71 KCAL/MOL
REMARK 923 INTER-LIGAND FREE ENERGY PREDICTED BY IDOCK:   -5.62 KCAL/MOL
REMARK 924 INTRA-LIGAND FREE ENERGY PREDICTED BY IDOCK:   -0.09 KCAL/MOL
REMARK 927      BINDING AFFINITY PREDICTED BY RF-SCORE:    0.00 PKD
ROOT
HETATM    1 CL   UNL     1     -13.009  13.901  65.629  1.00  0.00    -0.479 Cl 
HETATM    2  C   UNL     1     -11.916  12.608  65.310  1.00  0.00    -0.439 A  
HETATM    3  C   UNL     1     -11.669  12.224  63.998  1.00  0.00    -0.506 A  
HETATM    4  C   UNL     1     -10.790  11.176  63.752  1.00  0.00    -0.337 A  
HETATM    5  C   UNL     1     -10.181  10.510  64.821  1.00  0.00    -0.373 A  
HETATM    6  C   UNL     1     -10.434  10.862  66.156  1.00  0.00    -0.229 A  
HETATM    7  C   UNL     1     -11.303  11.942  66.374  1.00  0.00    -0.400 A  
ENDROOT
BRANCH   6   8
HETATM    8  N   UNL     1      -9.915  10.112  67.195  1.00  0.00    -0.187 NA 
HETATM    9  C   UNL     1      -8.692   9.315  67.014  1.00  0.00    -0.124 C  
HETATM   10  C   UNL     1      -7.883   9.297  68.331  1.00  0.00    -0.094 C  
HETATM   11  N   UNL     1      -8.636   8.833  69.523  1.00  0.00    -0.128 NA 
HETATM   12  C   UNL     1     -10.733   9.750  68.365  1.00  0.00    -0.221 C  
HETATM   13  C   UNL     1      -9.848   9.687  69.638  1.00  0.00    -0.215 C  
BRANCH  11  14
HETATM   14  C   UNL     1      -9.005   7.410  69.454  1.00  0.00    -0.139 C  
BRANCH  14  15
HETATM   15  C   UNL     1     -10.481   7.158  69.766  1.00  0.00    -0.238 C  
BRANCH  15  16
HETATM   16  C   UNL     1     -10.852   5.700  69.506  1.00  0.00    -0.274 C  
BRANCH  16  17
HETATM   17  N   UNL     1     -10.407   4.851  70.584  1.00  0.00    -0.205 N  
HETATM   18  N   UNL     1     -10.840   5.016  71.886  1.00  0.00    -0.112 NA 
HETATM   19  C   UNL     1     -10.091   4.198  72.559  1.00  0.00    -0.170 A  
HETATM   20  C   UNL     1     -10.123   3.941  74.014  1.00  0.00    -0.197 A  
HETATM   21  C   UNL     1      -9.246   3.050  74.511  1.00  0.00    -0.102 A  
HETATM   22  C   UNL     1      -8.292   2.370  73.653  1.00  0.00    -0.063 A  
HETATM   23  C   UNL     1      -8.278   2.620  72.334  1.00  0.00    -0.055 A  
HETATM   24  N   UNL     1      -9.177   3.513  71.823  1.00  0.00    -0.112 N  
HETATM   25  C   UNL     1      -9.337   3.940  70.526  1.00  0.00    -0.154 C  
HETATM   26  O   UNL     1      -8.681   3.629  69.539  1.00  0.00    -0.067 OA 
ENDBRANCH  16  17
ENDBRANCH  15  16
ENDBRANCH  14  15
ENDBRANCH  11  14
ENDBRANCH   6   8
TORSDOF 5
ENDMDL
MODEL      205
REMARK 921   NORMALIZED FREE ENERGY PREDICTED BY IDOCK:   -3.92 KCAL/MOL
REMARK 922        TOTAL FREE ENERGY PREDICTED BY IDOCK:   -5.71 KCAL/MOL
REMARK 923 INTER-LIGAND FREE ENERGY PREDICTED BY IDOCK:   -5.34 KCAL/MOL
REMARK 924 INTRA-LIGAND FREE ENERGY PREDICTED BY IDOCK:   -0.37 KCAL/MOL
REMARK 927      BINDING AFFINITY PREDICTED BY RF-SCORE:    0.00 PKD
ROOT
HETATM    1 CL   UNL     1      -7.604   3.990  64.856  1.00  0.00    -0.076 Cl 
HETATM    2  C   UNL     1      -7.953   3.464  66.459  1.00  0.00    -0.084 A  
HETATM    3  C   UNL     1      -7.675   2.154  66.828  1.00  0.00    -0.066 A  
HETATM    4  C   UNL     1      -7.966   1.738  68.122  1.00  0.00    -0.062 A  
HETATM    5  C   UNL     1      -8.549   2.631  69.028  1.00  0.00    -0.116 A  
HETATM    6  C   UNL     1      -8.864   3.952  68.671  1.00  0.00    -0.109 A  
HETATM    7  C   UNL     1      -8.533   4.353  67.367  1.00  0.00    -0.103 A  
ENDROOT
BRANCH   6   8
HETATM    8  N   UNL     1      -9.549   4.776  69.545  1.00  0.00    -0.161 NA 
HETATM    9  C   UNL     1      -9.906   6.150  69.164  1.00  0.00    -0.145 C  
HETATM   10  C   UNL     1     -11.261   6.532  69.804  1.00  0.00    -0.395 C  
HETATM   11  N   UNL     1     -11.327   6.365  71.277  1.00  0.00    -0.294 NA 
HETATM   12  C   UNL     1      -9.601   4.490  70.989  1.00  0.00    -0.178 C  
HETATM   13  C   UNL     1     -10.958   4.956  71.578  1.00  0.00     0.223 C  
BRANCH  11  14
HETATM   14  C   UNL     1     -10.452   7.299  72.003  1.00  0.00    -0.201 C  
BRANCH  14  15
HETATM   15  C   UNL     1     -10.420   8.697  71.382  1.00  0.00    -0.327 C  
BRANCH  15  16
HETATM   16  C   UNL     1     -11.723   9.443  71.655  1.00  0.00    -0.398 C  
BRANCH  16  17
HETATM   17  N   UNL     1     -11.797  10.659  70.881  1.00  0.00    -0.341 N  
HETATM   18  N   UNL     1     -11.019  10.874  69.760  1.00  0.00    -0.250 NA 
HETATM   19  C   UNL     1     -11.245  12.118  69.471  1.00  0.00    -0.131 A  
HETATM   20  C   UNL     1     -10.684  12.894  68.344  1.00  0.00    -0.273 A  
HETATM   21  C   UNL     1     -11.048  14.184  68.232  1.00  0.00    -0.274 A  
HETATM   22  C   UNL     1     -11.951  14.801  69.187  1.00  0.00    -0.317 A  
HETATM   23  C   UNL     1     -12.446  14.078  70.204  1.00  0.00    -0.319 A  
HETATM   24  N   UNL     1     -12.091  12.764  70.314  1.00  0.00    -0.342 N  
HETATM   25  C   UNL     1     -12.450  11.843  71.270  1.00  0.00    -0.213 C  
HETATM   26  O   UNL     1     -13.153  12.012  72.260  1.00  0.00    -0.387 OA 
ENDBRANCH  16  17
ENDBRANCH  15  16
ENDBRANCH  14  15
ENDBRANCH  11  14
ENDBRANCH   6   8
TORSDOF 5
ENDMDL
MODEL      206
REMARK 921   NORMALIZED FREE ENERGY PREDICTED BY IDOCK:   -3.92 KCAL/MOL
REMARK 922        TOTAL FREE ENERGY PREDICTED BY IDOCK:   -5.70 KCAL/MOL
REMARK 923 INTER-LIGAND FREE ENERGY PREDICTED BY IDOCK:   -5.02 KCAL/MOL
REMARK 924 INTRA-LIGAND FREE ENERGY PREDICTED BY IDOCK:   -0.68 KCAL/MOL
REMARK 927      BINDING AFFINITY PREDICTED BY RF-SCORE:    0.00 PKD
ROOT
HETATM    1 CL   UNL     1     -12.896  14.040  65.220  1.00  0.00    -0.481 Cl 
HETATM    2  C   UNL     1     -11.573  14.265  66.300  1.00  0.00    -0.372 A  
HETATM    3  C   UNL     1     -11.450  15.461  66.996  1.00  0.00    -0.103 A  
HETATM    4  C   UNL     1     -10.376  15.635  67.861  1.00  0.00    -0.259 A  
HETATM    5  C   UNL     1      -9.426  14.618  68.007  1.00  0.00    -0.207 A  
HETATM    6  C   UNL     1      -9.514  13.412  67.295  1.00  0.00    -0.234 A  
HETATM    7  C   UNL     1     -10.623  13.252  66.451  1.00  0.00    -0.288 A  
ENDROOT
BRANCH   6   8
HETATM    8  N   UNL     1      -8.499  12.475  67.365  1.00  0.00    -0.172 NA 
HETATM    9  C   UNL     1      -8.588  11.208  66.623  1.00  0.00    -0.165 C  
HETATM   10  C   UNL     1      -7.177  10.778  66.159  1.00  0.00    -0.126 C  
HETATM   11  N   UNL     1      -6.165  10.679  67.240  1.00  0.00    -0.054 NA 
HETATM   12  C   UNL     1      -7.506  12.498  68.453  1.00  0.00    -0.127 C  
HETATM   13  C   UNL     1      -6.134  11.993  67.936  1.00  0.00    -0.062 C  
BRANCH  11  14
HETATM   14  C   UNL     1      -6.443   9.591  68.192  1.00  0.00    -0.057 C  
BRANCH  14  15
HETATM   15  C   UNL     1      -6.783   8.266  67.507  1.00  0.00    -0.063 C  
BRANCH  15  16
HETATM   16  C   UNL     1      -6.911   7.141  68.529  1.00  0.00    -0.076 C  
BRANCH  16  17
HETATM   17  N   UNL     1      -8.155   7.235  69.253  1.00  0.00    -0.122 N  
HETATM   18  N   UNL     1      -8.211   7.571  70.592  1.00  0.00    -0.109 NA 
HETATM   19  C   UNL     1      -9.456   7.373  70.900  1.00  0.00    -0.165 A  
HETATM   20  C   UNL     1     -10.101   7.587  72.213  1.00  0.00    -0.244 A  
HETATM   21  C   UNL     1     -11.413   7.310  72.317  1.00  0.00    -0.316 A  
HETATM   22  C   UNL     1     -12.172   6.808  71.185  1.00  0.00    -0.413 A  
HETATM   23  C   UNL     1     -11.565   6.619  70.002  1.00  0.00    -0.362 A  
HETATM   24  N   UNL     1     -10.236   6.912  69.888  1.00  0.00    -0.195 N  
HETATM   25  C   UNL     1      -9.407   6.783  68.798  1.00  0.00    -0.132 C  
HETATM   26  O   UNL     1      -9.678   6.342  67.688  1.00  0.00    -0.117 OA 
ENDBRANCH  16  17
ENDBRANCH  15  16
ENDBRANCH  14  15
ENDBRANCH  11  14
ENDBRANCH   6   8
TORSDOF 5
ENDMDL
MODEL      207
REMARK 921   NORMALIZED FREE ENERGY PREDICTED BY IDOCK:   -3.92 KCAL/MOL
REMARK 922        TOTAL FREE ENERGY PREDICTED BY IDOCK:   -5.70 KCAL/MOL
REMARK 923 INTER-LIGAND FREE ENERGY PREDICTED BY IDOCK:   -5.13 KCAL/MOL
REMARK 924 INTRA-LIGAND FREE ENERGY PREDICTED BY IDOCK:   -0.57 KCAL/MOL
REMARK 927      BINDING AFFINITY PREDICTED BY RF-SCORE:    0.00 PKD
ROOT
HETATM    1 CL   UNL     1     -12.568  14.579  64.999  1.00  0.00    -0.338 Cl 
HETATM    2  C   UNL     1     -11.545  13.210  64.781  1.00  0.00    -0.333 A  
HETATM    3  C   UNL     1     -11.498  12.577  63.546  1.00  0.00    -0.570 A  
HETATM    4  C   UNL     1     -10.674  11.469  63.382  1.00  0.00    -0.444 A  
HETATM    5  C   UNL     1      -9.919  10.996  64.460  1.00  0.00    -0.366 A  
HETATM    6  C   UNL     1      -9.969  11.603  65.725  1.00  0.00    -0.237 A  
HETATM    7  C   UNL     1     -10.787  12.735  65.854  1.00  0.00    -0.295 A  
ENDROOT
BRANCH   6   8
HETATM    8  N   UNL     1      -9.307  11.043  66.804  1.00  0.00    -0.179 NA 
HETATM    9  C   UNL     1      -8.803   9.663  66.746  1.00  0.00    -0.135 C  
HETATM   10  C   UNL     1      -7.491   9.555  67.558  1.00  0.00    -0.091 C  
HETATM   11  N   UNL     1      -7.585  10.019  68.964  1.00  0.00    -0.084 NA 
HETATM   12  C   UNL     1      -9.421  11.616  68.156  1.00  0.00    -0.191 C  
HETATM   13  C   UNL     1      -8.096  11.416  68.935  1.00  0.00    -0.067 C  
BRANCH  11  14
HETATM   14  C   UNL     1      -8.448   9.166  69.797  1.00  0.00    -0.139 C  
BRANCH  14  15
HETATM   15  C   UNL     1      -7.770   8.710  71.092  1.00  0.00    -0.131 C  
BRANCH  15  16
HETATM   16  C   UNL     1      -8.772   8.658  72.241  1.00  0.00    -0.123 C  
BRANCH  16  17
HETATM   17  N   UNL     1      -9.057   7.296  72.621  1.00  0.00    -0.136 N  
HETATM   18  N   UNL     1      -8.153   6.516  73.317  1.00  0.00    -0.109 NA 
HETATM   19  C   UNL     1      -8.699   5.339  73.302  1.00  0.00    -0.115 A  
HETATM   20  C   UNL     1      -8.177   4.099  73.917  1.00  0.00    -0.092 A  
HETATM   21  C   UNL     1      -8.904   2.977  73.774  1.00  0.00    -0.076 A  
HETATM   22  C   UNL     1     -10.154   2.974  73.035  1.00  0.00    -0.214 A  
HETATM   23  C   UNL     1     -10.608   4.111  72.483  1.00  0.00    -0.087 A  
HETATM   24  N   UNL     1      -9.880   5.257  72.637  1.00  0.00    -0.158 N  
HETATM   25  C   UNL     1     -10.131   6.518  72.152  1.00  0.00    -0.179 C  
HETATM   26  O   UNL     1     -11.059   6.887  71.442  1.00  0.00    -0.240 OA 
ENDBRANCH  16  17
ENDBRANCH  15  16
ENDBRANCH  14  15
ENDBRANCH  11  14
ENDBRANCH   6   8
TORSDOF 5
ENDMDL
MODEL      208
REMARK 921   NORMALIZED FREE ENERGY PREDICTED BY IDOCK:   -3.91 KCAL/MOL
REMARK 922        TOTAL FREE ENERGY PREDICTED BY IDOCK:   -5.69 KCAL/MOL
REMARK 923 INTER-LIGAND FREE ENERGY PREDICTED BY IDOCK:   -5.18 KCAL/MOL
REMARK 924 INTRA-LIGAND FREE ENERGY PREDICTED BY IDOCK:   -0.51 KCAL/MOL
REMARK 927      BINDING AFFINITY PREDICTED BY RF-SCORE:    0.00 PKD
ROOT
HETATM    1 CL   UNL     1      -8.053   4.306  64.604  1.00  0.00    -0.090 Cl 
HETATM    2  C   UNL     1      -7.343   5.831  64.973  1.00  0.00    -0.075 A  
HETATM    3  C   UNL     1      -5.997   6.045  64.707  1.00  0.00    -0.025 A  
HETATM    4  C   UNL     1      -5.431   7.278  65.015  1.00  0.00    -0.032 A  
HETATM    5  C   UNL     1      -6.215   8.277  65.602  1.00  0.00    -0.045 A  
HETATM    6  C   UNL     1      -7.571   8.077  65.904  1.00  0.00    -0.086 A  
HETATM    7  C   UNL     1      -8.122   6.834  65.557  1.00  0.00    -0.128 A  
ENDROOT
BRANCH   6   8
HETATM    8  N   UNL     1      -8.290   9.036  66.594  1.00  0.00    -0.117 NA 
HETATM    9  C   UNL     1      -9.740   9.183  66.392  1.00  0.00    -0.262 C  
HETATM   10  C   UNL     1     -10.409   9.605  67.720  1.00  0.00    -0.236 C  
HETATM   11  N   UNL     1      -9.843  10.826  68.346  1.00  0.00    -0.163 NA 
HETATM   12  C   UNL     1      -7.624  10.185  67.230  1.00  0.00    -0.095 C  
HETATM   13  C   UNL     1      -8.383  10.597  68.519  1.00  0.00    -0.130 C  
BRANCH  11  14
HETATM   14  C   UNL     1     -10.089  12.046  67.559  1.00  0.00    -0.195 C  
BRANCH  14  15
HETATM   15  C   UNL     1      -9.575  13.314  68.243  1.00  0.00    -0.221 C  
BRANCH  15  16
HETATM   16  C   UNL     1      -8.564  14.037  67.358  1.00  0.00    -0.203 C  
BRANCH  16  17
HETATM   17  N   UNL     1      -8.793  15.462  67.365  1.00  0.00    -0.176 N  
HETATM   18  N   UNL     1      -7.992  16.339  68.072  1.00  0.00    -0.145 NA 
HETATM   19  C   UNL     1      -8.621  17.469  67.969  1.00  0.00    -0.250 A  
HETATM   20  C   UNL     1      -8.214  18.777  68.525  1.00  0.00    -0.379 A  
HETATM   21  C   UNL     1      -9.023  19.829  68.306  1.00  0.00    -0.347 A  
HETATM   22  C   UNL     1     -10.260  19.688  67.558  1.00  0.00    -0.562 A  
HETATM   23  C   UNL     1     -10.612  18.490  67.065  1.00  0.00    -0.380 A  
HETATM   24  N   UNL     1      -9.786  17.421  67.273  1.00  0.00    -0.270 N  
HETATM   25  C   UNL     1      -9.945  16.112  66.886  1.00  0.00    -0.254 C  
HETATM   26  O   UNL     1     -10.887  15.606  66.288  1.00  0.00    -0.315 OA 
ENDBRANCH  16  17
ENDBRANCH  15  16
ENDBRANCH  14  15
ENDBRANCH  11  14
ENDBRANCH   6   8
TORSDOF 5
ENDMDL
MODEL      209
REMARK 921   NORMALIZED FREE ENERGY PREDICTED BY IDOCK:   -3.91 KCAL/MOL
REMARK 922        TOTAL FREE ENERGY PREDICTED BY IDOCK:   -5.69 KCAL/MOL
REMARK 923 INTER-LIGAND FREE ENERGY PREDICTED BY IDOCK:   -5.65 KCAL/MOL
REMARK 924 INTRA-LIGAND FREE ENERGY PREDICTED BY IDOCK:   -0.03 KCAL/MOL
REMARK 927      BINDING AFFINITY PREDICTED BY RF-SCORE:    0.00 PKD
ROOT
HETATM    1 CL   UNL     1     -11.175   6.361  71.858  1.00  0.00    -0.307 Cl 
HETATM    2  C   UNL     1      -9.737   6.858  71.050  1.00  0.00    -0.174 A  
HETATM    3  C   UNL     1      -8.499   6.505  71.571  1.00  0.00    -0.125 A  
HETATM    4  C   UNL     1      -7.344   6.916  70.914  1.00  0.00    -0.077 A  
HETATM    5  C   UNL     1      -7.440   7.691  69.754  1.00  0.00    -0.090 A  
HETATM    6  C   UNL     1      -8.679   8.083  69.222  1.00  0.00    -0.137 A  
HETATM    7  C   UNL     1      -9.828   7.630  69.889  1.00  0.00    -0.184 A  
ENDROOT
BRANCH   6   8
HETATM    8  N   UNL     1      -8.744   8.948  68.145  1.00  0.00    -0.133 NA 
HETATM    9  C   UNL     1      -8.029  10.233  68.165  1.00  0.00    -0.109 C  
HETATM   10  C   UNL     1      -7.541  10.578  66.739  1.00  0.00    -0.115 C  
HETATM   11  N   UNL     1      -8.600  10.587  65.700  1.00  0.00    -0.170 NA 
HETATM   12  C   UNL     1      -9.808   8.837  67.133  1.00  0.00    -0.207 C  
HETATM   13  C   UNL     1      -9.269   9.259  65.742  1.00  0.00    -0.224 C  
BRANCH  11  14
HETATM   14  C   UNL     1      -9.579  11.671  65.883  1.00  0.00    -0.229 C  
BRANCH  14  15
HETATM   15  C   UNL     1     -11.007  11.254  65.524  1.00  0.00    -0.199 C  
BRANCH  15  16
HETATM   16  C   UNL     1     -12.022  12.241  66.096  1.00  0.00    -0.249 C  
BRANCH  16  17
HETATM   17  N   UNL     1     -11.369  13.426  66.596  1.00  0.00    -0.313 N  
HETATM   18  N   UNL     1     -11.164  13.646  67.945  1.00  0.00    -0.263 NA 
HETATM   19  C   UNL     1     -10.727  14.867  67.988  1.00  0.00    -0.253 A  
HETATM   20  C   UNL     1     -10.325  15.636  69.185  1.00  0.00    -0.241 A  
HETATM   21  C   UNL     1      -9.905  16.901  69.003  1.00  0.00    -0.247 A  
HETATM   22  C   UNL     1      -9.856  17.498  67.680  1.00  0.00    -0.291 A  
HETATM   23  C   UNL     1     -10.228  16.783  66.607  1.00  0.00    -0.309 A  
HETATM   24  N   UNL     1     -10.642  15.493  66.785  1.00  0.00    -0.304 N  
HETATM   25  C   UNL     1     -11.083  14.585  65.852  1.00  0.00    -0.327 C  
HETATM   26  O   UNL     1     -11.231  14.747  64.647  1.00  0.00    -0.377 OA 
ENDBRANCH  16  17
ENDBRANCH  15  16
ENDBRANCH  14  15
ENDBRANCH  11  14
ENDBRANCH   6   8
TORSDOF 5
ENDMDL
MODEL      210
REMARK 921   NORMALIZED FREE ENERGY PREDICTED BY IDOCK:   -3.88 KCAL/MOL
REMARK 922        TOTAL FREE ENERGY PREDICTED BY IDOCK:   -5.65 KCAL/MOL
REMARK 923 INTER-LIGAND FREE ENERGY PREDICTED BY IDOCK:   -5.15 KCAL/MOL
REMARK 924 INTRA-LIGAND FREE ENERGY PREDICTED BY IDOCK:   -0.51 KCAL/MOL
REMARK 927      BINDING AFFINITY PREDICTED BY RF-SCORE:    0.00 PKD
ROOT
HETATM    1 CL   UNL     1      -5.519   2.489  66.630  1.00  0.00    -0.016 Cl 
HETATM    2  C   UNL     1      -6.802   2.919  67.696  1.00  0.00    -0.048 A  
HETATM    3  C   UNL     1      -7.550   1.922  68.309  1.00  0.00    -0.053 A  
HETATM    4  C   UNL     1      -8.587   2.280  69.164  1.00  0.00    -0.111 A  
HETATM    5  C   UNL     1      -8.876   3.632  69.382  1.00  0.00    -0.150 A  
HETATM    6  C   UNL     1      -8.151   4.657  68.754  1.00  0.00    -0.082 A  
HETATM    7  C   UNL     1      -7.092   4.267  67.920  1.00  0.00    -0.060 A  
ENDROOT
BRANCH   6   8
HETATM    8  N   UNL     1      -8.534   5.979  68.892  1.00  0.00    -0.116 NA 
HETATM    9  C   UNL     1      -9.893   6.412  68.535  1.00  0.00    -0.138 C  
HETATM   10  C   UNL     1     -10.343   7.546  69.484  1.00  0.00    -0.216 C  
HETATM   11  N   UNL     1      -9.425   8.710  69.550  1.00  0.00    -0.161 NA 
HETATM   12  C   UNL     1      -7.539   7.059  69.007  1.00  0.00    -0.104 C  
HETATM   13  C   UNL     1      -8.080   8.191  69.918  1.00  0.00    -0.115 C  
BRANCH  11  14
HETATM   14  C   UNL     1      -9.363   9.468  68.290  1.00  0.00    -0.133 C  
BRANCH  14  15
HETATM   15  C   UNL     1     -10.630  10.281  68.016  1.00  0.00    -0.272 C  
BRANCH  15  16
HETATM   16  C   UNL     1     -10.871  10.427  66.517  1.00  0.00    -0.028 C  
BRANCH  16  17
HETATM   17  N   UNL     1     -10.675  11.791  66.090  1.00  0.00    -0.267 N  
HETATM   18  N   UNL     1      -9.700  12.606  66.633  1.00  0.00    -0.243 NA 
HETATM   19  C   UNL     1      -9.965  13.771  66.126  1.00  0.00    -0.308 A  
HETATM   20  C   UNL     1      -9.230  15.035  66.347  1.00  0.00    -0.328 A  
HETATM   21  C   UNL     1      -9.683  16.138  65.724  1.00  0.00    -0.325 A  
HETATM   22  C   UNL     1     -10.858  16.096  64.872  1.00  0.00    -0.353 A  
HETATM   23  C   UNL     1     -11.512  14.938  64.687  1.00  0.00    -0.379 A  
HETATM   24  N   UNL     1     -11.047  13.812  65.306  1.00  0.00    -0.304 N  
HETATM   25  C   UNL     1     -11.556  12.535  65.283  1.00  0.00    -0.364 C  
HETATM   26  O   UNL     1     -12.565  12.130  64.718  1.00  0.00    -0.473 OA 
ENDBRANCH  16  17
ENDBRANCH  15  16
ENDBRANCH  14  15
ENDBRANCH  11  14
ENDBRANCH   6   8
TORSDOF 5
ENDMDL
MODEL      211
REMARK 921   NORMALIZED FREE ENERGY PREDICTED BY IDOCK:   -3.87 KCAL/MOL
REMARK 922        TOTAL FREE ENERGY PREDICTED BY IDOCK:   -5.64 KCAL/MOL
REMARK 923 INTER-LIGAND FREE ENERGY PREDICTED BY IDOCK:   -5.38 KCAL/MOL
REMARK 924 INTRA-LIGAND FREE ENERGY PREDICTED BY IDOCK:   -0.26 KCAL/MOL
REMARK 927      BINDING AFFINITY PREDICTED BY RF-SCORE:    0.00 PKD
ROOT
HETATM    1 CL   UNL     1     -10.862  19.462  66.022  1.00  0.00    -0.468 Cl 
HETATM    2  C   UNL     1      -9.497  18.460  66.333  1.00  0.00    -0.295 A  
HETATM    3  C   UNL     1      -8.228  19.022  66.383  1.00  0.00    -0.314 A  
HETATM    4  C   UNL     1      -7.131  18.203  66.628  1.00  0.00    -0.243 A  
HETATM    5  C   UNL     1      -7.314  16.827  66.804  1.00  0.00    -0.275 A  
HETATM    6  C   UNL     1      -8.583  16.231  66.732  1.00  0.00    -0.237 A  
HETATM    7  C   UNL     1      -9.674  17.085  66.512  1.00  0.00    -0.296 A  
ENDROOT
BRANCH   6   8
HETATM    8  N   UNL     1      -8.722  14.856  66.788  1.00  0.00    -0.253 NA 
HETATM    9  C   UNL     1      -7.590  13.998  67.168  1.00  0.00     0.064 C  
HETATM   10  C   UNL     1      -8.109  12.771  67.953  1.00  0.00    -0.159 C  
HETATM   11  N   UNL     1      -9.154  11.979  67.259  1.00  0.00    -0.172 NA 
HETATM   12  C   UNL     1      -9.832  14.168  66.107  1.00  0.00    -0.308 C  
HETATM   13  C   UNL     1     -10.258  12.913  66.913  1.00  0.00    -0.242 C  
BRANCH  11  14
HETATM   14  C   UNL     1      -8.654  11.294  66.055  1.00  0.00    -0.130 C  
BRANCH  14  15
HETATM   15  C   UNL     1      -7.181  10.895  66.160  1.00  0.00    -0.101 C  
BRANCH  15  16
HETATM   16  C   UNL     1      -6.981   9.439  65.753  1.00  0.00    -0.090 C  
BRANCH  16  17
HETATM   17  N   UNL     1      -7.795   8.558  66.554  1.00  0.00    -0.095 N  
HETATM   18  N   UNL     1      -9.067   8.172  66.174  1.00  0.00    -0.184 NA 
HETATM   19  C   UNL     1      -9.517   7.549  67.219  1.00  0.00    -0.151 A  
HETATM   20  C   UNL     1     -10.837   6.901  67.379  1.00  0.00    -0.396 A  
HETATM   21  C   UNL     1     -11.105   6.313  68.558  1.00  0.00    -0.397 A  
HETATM   22  C   UNL     1     -10.141   6.321  69.644  1.00  0.00    -0.215 A  
HETATM   23  C   UNL     1      -8.949   6.917  69.478  1.00  0.00    -0.143 A  
HETATM   24  N   UNL     1      -8.666   7.503  68.277  1.00  0.00    -0.124 N  
HETATM   25  C   UNL     1      -7.537   8.182  67.885  1.00  0.00    -0.102 C  
HETATM   26  O   UNL     1      -6.538   8.437  68.547  1.00  0.00    -0.056 OA 
ENDBRANCH  16  17
ENDBRANCH  15  16
ENDBRANCH  14  15
ENDBRANCH  11  14
ENDBRANCH   6   8
TORSDOF 5
ENDMDL
MODEL      212
REMARK 921   NORMALIZED FREE ENERGY PREDICTED BY IDOCK:   -3.87 KCAL/MOL
REMARK 922        TOTAL FREE ENERGY PREDICTED BY IDOCK:   -5.63 KCAL/MOL
REMARK 923 INTER-LIGAND FREE ENERGY PREDICTED BY IDOCK:   -4.95 KCAL/MOL
REMARK 924 INTRA-LIGAND FREE ENERGY PREDICTED BY IDOCK:   -0.68 KCAL/MOL
REMARK 927      BINDING AFFINITY PREDICTED BY RF-SCORE:    0.00 PKD
ROOT
HETATM    1 CL   UNL     1     -10.097  16.442  65.642  1.00  0.00    -0.344 Cl 
HETATM    2  C   UNL     1     -10.820  14.912  65.322  1.00  0.00    -0.386 A  
HETATM    3  C   UNL     1     -12.192  14.828  65.126  1.00  0.00    -0.202 A  
HETATM    4  C   UNL     1     -12.767  13.587  64.875  1.00  0.00    -0.342 A  
HETATM    5  C   UNL     1     -11.965  12.441  64.840  1.00  0.00    -0.458 A  
HETATM    6  C   UNL     1     -10.580  12.497  65.061  1.00  0.00    -0.300 A  
HETATM    7  C   UNL     1     -10.023  13.765  65.284  1.00  0.00    -0.245 A  
ENDROOT
BRANCH   6   8
HETATM    8  N   UNL     1      -9.830  11.337  65.141  1.00  0.00    -0.240 NA 
HETATM    9  C   UNL     1      -9.653  10.640  66.424  1.00  0.00    -0.190 C  
HETATM   10  C   UNL     1      -9.581   9.115  66.181  1.00  0.00    -0.266 C  
HETATM   11  N   UNL     1      -8.549   8.683  65.206  1.00  0.00    -0.181 NA 
HETATM   12  C   UNL     1      -8.869  10.969  64.088  1.00  0.00     0.030 C  
HETATM   13  C   UNL     1      -8.799   9.427  63.942  1.00  0.00    -0.173 C  
BRANCH  11  14
HETATM   14  C   UNL     1      -7.175   8.911  65.682  1.00  0.00    -0.085 C  
BRANCH  14  15
HETATM   15  C   UNL     1      -6.575   7.692  66.385  1.00  0.00    -0.050 C  
BRANCH  15  16
HETATM   16  C   UNL     1      -6.438   7.941  67.884  1.00  0.00    -0.052 C  
BRANCH  16  17
HETATM   17  N   UNL     1      -7.403   7.168  68.629  1.00  0.00    -0.094 N  
HETATM   18  N   UNL     1      -8.495   7.744  69.249  1.00  0.00    -0.136 NA 
HETATM   19  C   UNL     1      -8.997   6.769  69.942  1.00  0.00    -0.144 A  
HETATM   20  C   UNL     1     -10.199   6.803  70.801  1.00  0.00    -0.215 A  
HETATM   21  C   UNL     1     -10.542   5.671  71.442  1.00  0.00    -0.317 A  
HETATM   22  C   UNL     1      -9.756   4.458  71.307  1.00  0.00    -0.252 A  
HETATM   23  C   UNL     1      -8.665   4.450  70.523  1.00  0.00    -0.082 A  
HETATM   24  N   UNL     1      -8.321   5.593  69.859  1.00  0.00    -0.115 N  
HETATM   25  C   UNL     1      -7.252   5.828  69.027  1.00  0.00    -0.078 C  
HETATM   26  O   UNL     1      -6.347   5.060  68.721  1.00  0.00    -0.033 OA 
ENDBRANCH  16  17
ENDBRANCH  15  16
ENDBRANCH  14  15
ENDBRANCH  11  14
ENDBRANCH   6   8
TORSDOF 5
ENDMDL
MODEL      213
REMARK 921   NORMALIZED FREE ENERGY PREDICTED BY IDOCK:   -3.83 KCAL/MOL
REMARK 922        TOTAL FREE ENERGY PREDICTED BY IDOCK:   -5.59 KCAL/MOL
REMARK 923 INTER-LIGAND FREE ENERGY PREDICTED BY IDOCK:   -5.10 KCAL/MOL
REMARK 924 INTRA-LIGAND FREE ENERGY PREDICTED BY IDOCK:   -0.49 KCAL/MOL
REMARK 927      BINDING AFFINITY PREDICTED BY RF-SCORE:    0.00 PKD
ROOT
HETATM    1 CL   UNL     1      -9.626   3.108  69.656  1.00  0.00    -0.184 Cl 
HETATM    2  C   UNL     1      -8.437   4.200  69.058  1.00  0.00    -0.081 A  
HETATM    3  C   UNL     1      -7.089   3.911  69.230  1.00  0.00    -0.046 A  
HETATM    4  C   UNL     1      -6.137   4.803  68.749  1.00  0.00    -0.030 A  
HETATM    5  C   UNL     1      -6.543   5.983  68.116  1.00  0.00    -0.055 A  
HETATM    6  C   UNL     1      -7.899   6.310  67.953  1.00  0.00    -0.103 A  
HETATM    7  C   UNL     1      -8.838   5.378  68.423  1.00  0.00    -0.102 A  
ENDROOT
BRANCH   6   8
HETATM    8  N   UNL     1      -8.272   7.536  67.434  1.00  0.00    -0.115 NA 
HETATM    9  C   UNL     1      -7.280   8.428  66.816  1.00  0.00    -0.078 C  
HETATM   10  C   UNL     1      -7.934   9.206  65.651  1.00  0.00    -0.107 C  
HETATM   11  N   UNL     1      -9.161   9.960  66.012  1.00  0.00    -0.151 NA 
HETATM   12  C   UNL     1      -9.543   8.177  67.815  1.00  0.00    -0.151 C  
HETATM   13  C   UNL     1     -10.110   8.991  66.624  1.00  0.00    -0.285 C  
BRANCH  11  14
HETATM   14  C   UNL     1      -8.899  11.083  66.927  1.00  0.00    -0.149 C  
BRANCH  14  15
HETATM   15  C   UNL     1      -9.977  12.167  66.869  1.00  0.00    -0.217 C  
BRANCH  15  16
HETATM   16  C   UNL     1     -10.037  12.947  68.179  1.00  0.00    -0.240 C  
BRANCH  16  17
HETATM   17  N   UNL     1     -10.257  14.352  67.938  1.00  0.00    -0.230 N  
HETATM   18  N   UNL     1     -10.168  14.911  66.677  1.00  0.00    -0.256 NA 
HETATM   19  C   UNL     1     -10.250  16.185  66.907  1.00  0.00    -0.283 A  
HETATM   20  C   UNL     1     -10.227  17.281  65.913  1.00  0.00    -0.273 A  
HETATM   21  C   UNL     1     -10.318  18.542  66.371  1.00  0.00    -0.456 A  
HETATM   22  C   UNL     1     -10.425  18.824  67.792  1.00  0.00    -0.479 A  
HETATM   23  C   UNL     1     -10.441  17.815  68.677  1.00  0.00    -0.292 A  
HETATM   24  N   UNL     1     -10.363  16.531  68.216  1.00  0.00    -0.278 N  
HETATM   25  C   UNL     1     -10.342  15.353  68.923  1.00  0.00    -0.233 C  
HETATM   26  O   UNL     1     -10.358  15.197  70.138  1.00  0.00    -0.224 OA 
ENDBRANCH  16  17
ENDBRANCH  15  16
ENDBRANCH  14  15
ENDBRANCH  11  14
ENDBRANCH   6   8
TORSDOF 5
ENDMDL
MODEL      214
REMARK 921   NORMALIZED FREE ENERGY PREDICTED BY IDOCK:   -3.80 KCAL/MOL
REMARK 922        TOTAL FREE ENERGY PREDICTED BY IDOCK:   -5.55 KCAL/MOL
REMARK 923 INTER-LIGAND FREE ENERGY PREDICTED BY IDOCK:   -5.16 KCAL/MOL
REMARK 924 INTRA-LIGAND FREE ENERGY PREDICTED BY IDOCK:   -0.39 KCAL/MOL
REMARK 927      BINDING AFFINITY PREDICTED BY RF-SCORE:    0.00 PKD
ROOT
HETATM    1 CL   UNL     1      -9.374  16.893  66.357  1.00  0.00    -0.288 Cl 
HETATM    2  C   UNL     1     -10.065  15.332  66.123  1.00  0.00    -0.296 A  
HETATM    3  C   UNL     1     -11.434  15.209  65.928  1.00  0.00    -0.159 A  
HETATM    4  C   UNL     1     -11.982  13.944  65.746  1.00  0.00    -0.419 A  
HETATM    5  C   UNL     1     -11.157  12.815  65.777  1.00  0.00    -0.316 A  
HETATM    6  C   UNL     1      -9.774  12.912  65.998  1.00  0.00    -0.223 A  
HETATM    7  C   UNL     1      -9.244  14.202  66.150  1.00  0.00    -0.088 A  
ENDROOT
BRANCH   6   8
HETATM    8  N   UNL     1      -9.001  11.774  66.145  1.00  0.00    -0.182 NA 
HETATM    9  C   UNL     1      -9.357  10.525  65.456  1.00  0.00    -0.202 C  
HETATM   10  C   UNL     1      -8.070   9.764  65.062  1.00  0.00    -0.134 C  
HETATM   11  N   UNL     1      -7.134   9.494  66.182  1.00  0.00    -0.091 NA 
HETATM   12  C   UNL     1      -8.057  11.627  67.266  1.00  0.00    -0.160 C  
HETATM   13  C   UNL     1      -6.822  10.800  66.821  1.00  0.00    -0.115 C  
BRANCH  11  14
HETATM   14  C   UNL     1      -7.675   8.546  67.170  1.00  0.00    -0.097 C  
BRANCH  14  15
HETATM   15  C   UNL     1      -7.755   7.112  66.644  1.00  0.00    -0.097 C  
BRANCH  15  16
HETATM   16  C   UNL     1      -9.143   6.523  66.877  1.00  0.00    -0.138 C  
BRANCH  16  17
HETATM   17  N   UNL     1      -9.631   6.848  68.196  1.00  0.00    -0.125 N  
HETATM   18  N   UNL     1      -9.502   5.985  69.268  1.00  0.00    -0.132 NA 
HETATM   19  C   UNL     1     -10.208   6.552  70.197  1.00  0.00    -0.192 A  
HETATM   20  C   UNL     1     -10.419   6.077  71.581  1.00  0.00    -0.276 A  
HETATM   21  C   UNL     1     -11.200   6.821  72.385  1.00  0.00    -0.300 A  
HETATM   22  C   UNL     1     -11.826   8.043  71.911  1.00  0.00    -0.353 A  
HETATM   23  C   UNL     1     -11.623   8.454  70.649  1.00  0.00    -0.191 A  
HETATM   24  N   UNL     1     -10.818   7.710  69.834  1.00  0.00    -0.250 N  
HETATM   25  C   UNL     1     -10.484   7.919  68.516  1.00  0.00    -0.167 C  
HETATM   26  O   UNL     1     -10.864   8.813  67.770  1.00  0.00    -0.167 OA 
ENDBRANCH  16  17
ENDBRANCH  15  16
ENDBRANCH  14  15
ENDBRANCH  11  14
ENDBRANCH   6   8
TORSDOF 5
ENDMDL
MODEL      215
REMARK 921   NORMALIZED FREE ENERGY PREDICTED BY IDOCK:   -3.76 KCAL/MOL
REMARK 922        TOTAL FREE ENERGY PREDICTED BY IDOCK:   -5.50 KCAL/MOL
REMARK 923 INTER-LIGAND FREE ENERGY PREDICTED BY IDOCK:   -4.76 KCAL/MOL
REMARK 924 INTRA-LIGAND FREE ENERGY PREDICTED BY IDOCK:   -0.74 KCAL/MOL
REMARK 927      BINDING AFFINITY PREDICTED BY RF-SCORE:    0.00 PKD
ROOT
HETATM    1 CL   UNL     1     -11.831  15.342  68.126  1.00  0.00    -0.297 Cl 
HETATM    2  C   UNL     1     -11.705  14.113  66.925  1.00  0.00    -0.414 A  
HETATM    3  C   UNL     1     -12.424  14.233  65.743  1.00  0.00    -0.421 A  
HETATM    4  C   UNL     1     -12.320  13.233  64.782  1.00  0.00    -0.454 A  
HETATM    5  C   UNL     1     -11.513  12.115  65.022  1.00  0.00    -0.377 A  
HETATM    6  C   UNL     1     -10.799  11.959  66.220  1.00  0.00    -0.282 A  
HETATM    7  C   UNL     1     -10.899  12.997  67.159  1.00  0.00    -0.278 A  
ENDROOT
BRANCH   6   8
HETATM    8  N   UNL     1     -10.106  10.791  66.482  1.00  0.00    -0.220 NA 
HETATM    9  C   UNL     1      -9.276  10.156  65.447  1.00  0.00    -0.202 C  
HETATM   10  C   UNL     1      -8.046   9.490  66.104  1.00  0.00    -0.111 C  
HETATM   11  N   UNL     1      -8.359   8.524  67.187  1.00  0.00    -0.111 NA 
HETATM   12  C   UNL     1     -10.462   9.927  67.621  1.00  0.00    -0.244 C  
HETATM   13  C   UNL     1      -9.192   9.241  68.189  1.00  0.00    -0.130 C  
BRANCH  11  14
HETATM   14  C   UNL     1      -9.049   7.318  66.701  1.00  0.00    -0.154 C  
BRANCH  14  15
HETATM   15  C   UNL     1      -9.790   6.565  67.809  1.00  0.00    -0.139 C  
BRANCH  15  16
HETATM   16  C   UNL     1      -8.922   5.449  68.383  1.00  0.00    -0.108 C  
BRANCH  16  17
HETATM   17  N   UNL     1      -8.257   5.877  69.590  1.00  0.00    -0.108 N  
HETATM   18  N   UNL     1      -8.921   6.013  70.794  1.00  0.00    -0.148 NA 
HETATM   19  C   UNL     1      -8.039   6.574  71.562  1.00  0.00    -0.112 A  
HETATM   20  C   UNL     1      -8.194   6.947  72.984  1.00  0.00    -0.117 A  
HETATM   21  C   UNL     1      -7.147   7.531  73.595  1.00  0.00    -0.101 A  
HETATM   22  C   UNL     1      -5.910   7.799  72.883  1.00  0.00    -0.045 A  
HETATM   23  C   UNL     1      -5.792   7.454  71.591  1.00  0.00    -0.036 A  
HETATM   24  N   UNL     1      -6.847   6.848  70.970  1.00  0.00    -0.057 N  
HETATM   25  C   UNL     1      -6.966   6.429  69.666  1.00  0.00    -0.071 C  
HETATM   26  O   UNL     1      -6.150   6.537  68.758  1.00  0.00    -0.023 OA 
ENDBRANCH  16  17
ENDBRANCH  15  16
ENDBRANCH  14  15
ENDBRANCH  11  14
ENDBRANCH   6   8
TORSDOF 5
ENDMDL
MODEL      216
REMARK 921   NORMALIZED FREE ENERGY PREDICTED BY IDOCK:   -3.76 KCAL/MOL
REMARK 922        TOTAL FREE ENERGY PREDICTED BY IDOCK:   -5.49 KCAL/MOL
REMARK 923 INTER-LIGAND FREE ENERGY PREDICTED BY IDOCK:   -5.09 KCAL/MOL
REMARK 924 INTRA-LIGAND FREE ENERGY PREDICTED BY IDOCK:   -0.40 KCAL/MOL
REMARK 927      BINDING AFFINITY PREDICTED BY RF-SCORE:    0.00 PKD
ROOT
HETATM    1 CL   UNL     1     -11.851  10.749  69.552  1.00  0.00    -0.370 Cl 
HETATM    2  C   UNL     1     -11.495   9.306  70.423  1.00  0.00    -0.213 A  
HETATM    3  C   UNL     1     -11.940   9.167  71.732  1.00  0.00    -0.449 A  
HETATM    4  C   UNL     1     -11.642   8.001  72.429  1.00  0.00    -0.450 A  
HETATM    5  C   UNL     1     -10.888   6.995  71.815  1.00  0.00    -0.250 A  
HETATM    6  C   UNL     1     -10.406   7.124  70.504  1.00  0.00    -0.202 A  
HETATM    7  C   UNL     1     -10.745   8.298  69.814  1.00  0.00    -0.221 A  
ENDROOT
BRANCH   6   8
HETATM    8  N   UNL     1      -9.562   6.169  69.965  1.00  0.00    -0.159 NA 
HETATM    9  C   UNL     1      -8.201   6.522  69.533  1.00  0.00    -0.126 C  
HETATM   10  C   UNL     1      -7.250   5.330  69.788  1.00  0.00    -0.063 C  
HETATM   11  N   UNL     1      -7.675   4.047  69.176  1.00  0.00    -0.054 NA 
HETATM   12  C   UNL     1     -10.081   4.898  69.432  1.00  0.00    -0.200 C  
HETATM   13  C   UNL     1      -9.051   3.761  69.663  1.00  0.00    -0.126 C  
BRANCH  11  14
HETATM   14  C   UNL     1      -7.636   4.068  67.705  1.00  0.00    -0.068 C  
BRANCH  14  15
HETATM   15  C   UNL     1      -7.022   5.351  67.140  1.00  0.00    -0.065 C  
BRANCH  15  16
HETATM   16  C   UNL     1      -7.455   5.571  65.693  1.00  0.00    -0.077 C  
BRANCH  16  17
HETATM   17  N   UNL     1      -7.980   6.901  65.504  1.00  0.00    -0.119 N  
HETATM   18  N   UNL     1      -8.721   7.551  66.473  1.00  0.00    -0.133 NA 
HETATM   19  C   UNL     1      -9.147   8.614  65.863  1.00  0.00    -0.205 A  
HETATM   20  C   UNL     1      -9.984   9.696  66.423  1.00  0.00    -0.323 A  
HETATM   21  C   UNL     1     -10.320  10.712  65.608  1.00  0.00    -0.285 A  
HETATM   22  C   UNL     1      -9.886  10.745  64.223  1.00  0.00    -0.384 A  
HETATM   23  C   UNL     1      -9.128   9.750  63.734  1.00  0.00    -0.230 A  
HETATM   24  N   UNL     1      -8.773   8.723  64.562  1.00  0.00    -0.105 N  
HETATM   25  C   UNL     1      -8.029   7.600  64.285  1.00  0.00    -0.112 C  
HETATM   26  O   UNL     1      -7.543   7.258  63.213  1.00  0.00    -0.099 OA 
ENDBRANCH  16  17
ENDBRANCH  15  16
ENDBRANCH  14  15
ENDBRANCH  11  14
ENDBRANCH   6   8
TORSDOF 5
ENDMDL
MODEL      217
REMARK 921   NORMALIZED FREE ENERGY PREDICTED BY IDOCK:   -3.72 KCAL/MOL
REMARK 922        TOTAL FREE ENERGY PREDICTED BY IDOCK:   -5.44 KCAL/MOL
REMARK 923 INTER-LIGAND FREE ENERGY PREDICTED BY IDOCK:   -5.15 KCAL/MOL
REMARK 924 INTRA-LIGAND FREE ENERGY PREDICTED BY IDOCK:   -0.29 KCAL/MOL
REMARK 927      BINDING AFFINITY PREDICTED BY RF-SCORE:    0.00 PKD
ROOT
HETATM    1 CL   UNL     1     -12.358  14.532  64.562  1.00  0.00    -0.476 Cl 
HETATM    2  C   UNL     1     -11.279  13.195  64.682  1.00  0.00    -0.340 A  
HETATM    3  C   UNL     1     -11.414  12.123  63.809  1.00  0.00    -0.548 A  
HETATM    4  C   UNL     1     -10.542  11.046  63.918  1.00  0.00    -0.382 A  
HETATM    5  C   UNL     1      -9.556  11.044  64.911  1.00  0.00    -0.289 A  
HETATM    6  C   UNL     1      -9.416  12.103  65.821  1.00  0.00    -0.147 A  
HETATM    7  C   UNL     1     -10.291  13.190  65.670  1.00  0.00    -0.291 A  
ENDROOT
BRANCH   6   8
HETATM    8  N   UNL     1      -8.514  12.022  66.866  1.00  0.00    -0.178 NA 
HETATM    9  C   UNL     1      -7.442  11.016  66.862  1.00  0.00    -0.133 C  
HETATM   10  C   UNL     1      -6.182  11.597  67.544  1.00  0.00    -0.083 C  
HETATM   11  N   UNL     1      -6.398  12.123  68.915  1.00  0.00    -0.076 NA 
HETATM   12  C   UNL     1      -8.801  12.630  68.177  1.00  0.00    -0.194 C  
HETATM   13  C   UNL     1      -7.489  13.131  68.833  1.00  0.00     0.011 C  
BRANCH  11  14
HETATM   14  C   UNL     1      -6.731  11.072  69.890  1.00  0.00    -0.125 C  
BRANCH  14  15
HETATM   15  C   UNL     1      -6.336   9.671  69.421  1.00  0.00    -0.040 C  
BRANCH  15  16
HETATM   16  C   UNL     1      -5.847   8.822  70.591  1.00  0.00    -0.032 C  
BRANCH  16  17
HETATM   17  N   UNL     1      -6.928   8.060  71.167  1.00  0.00    -0.048 N  
HETATM   18  N   UNL     1      -7.774   7.278  70.403  1.00  0.00    -0.092 NA 
HETATM   19  C   UNL     1      -8.692   6.916  71.245  1.00  0.00    -0.134 A  
HETATM   20  C   UNL     1      -9.860   6.048  70.983  1.00  0.00    -0.220 A  
HETATM   21  C   UNL     1     -10.699   5.804  72.005  1.00  0.00    -0.285 A  
HETATM   22  C   UNL     1     -10.476   6.379  73.320  1.00  0.00    -0.275 A  
HETATM   23  C   UNL     1      -9.411   7.167  73.535  1.00  0.00    -0.191 A  
HETATM   24  N   UNL     1      -8.547   7.406  72.504  1.00  0.00    -0.110 N  
HETATM   25  C   UNL     1      -7.415   8.186  72.480  1.00  0.00    -0.117 C  
HETATM   26  O   UNL     1      -6.945   8.867  73.383  1.00  0.00    -0.349 OA 
ENDBRANCH  16  17
ENDBRANCH  15  16
ENDBRANCH  14  15
ENDBRANCH  11  14
ENDBRANCH   6   8
TORSDOF 5
ENDMDL
MODEL      218
REMARK 921   NORMALIZED FREE ENERGY PREDICTED BY IDOCK:   -3.70 KCAL/MOL
REMARK 922        TOTAL FREE ENERGY PREDICTED BY IDOCK:   -5.41 KCAL/MOL
REMARK 923 INTER-LIGAND FREE ENERGY PREDICTED BY IDOCK:   -4.80 KCAL/MOL
REMARK 924 INTRA-LIGAND FREE ENERGY PREDICTED BY IDOCK:   -0.62 KCAL/MOL
REMARK 927      BINDING AFFINITY PREDICTED BY RF-SCORE:    0.00 PKD
ROOT
HETATM    1 CL   UNL     1     -10.217  13.760  66.588  1.00  0.00    -0.271 Cl 
HETATM    2  C   UNL     1     -10.989  13.267  68.047  1.00  0.00    -0.244 A  
HETATM    3  C   UNL     1     -11.859  14.136  68.692  1.00  0.00    -0.383 A  
HETATM    4  C   UNL     1     -12.473  13.730  69.872  1.00  0.00    -0.259 A  
HETATM    5  C   UNL     1     -12.196  12.466  70.403  1.00  0.00    -0.370 A  
HETATM    6  C   UNL     1     -11.301  11.580  69.784  1.00  0.00    -0.226 A  
HETATM    7  C   UNL     1     -10.718  12.004  68.580  1.00  0.00    -0.261 A  
ENDROOT
BRANCH   6   8
HETATM    8  N   UNL     1     -10.952  10.387  70.392  1.00  0.00    -0.291 NA 
HETATM    9  C   UNL     1      -9.619   9.800  70.193  1.00  0.00    -0.237 C  
HETATM   10  C   UNL     1      -9.171   9.078  71.485  1.00  0.00    -0.190 C  
HETATM   11  N   UNL     1     -10.121   8.057  71.994  1.00  0.00    -0.201 NA 
HETATM   12  C   UNL     1     -11.974   9.466  70.917  1.00  0.00    -0.280 C  
HETATM   13  C   UNL     1     -11.436   8.729  72.171  1.00  0.00    -0.351 C  
BRANCH  11  14
HETATM   14  C   UNL     1     -10.246   6.891  71.104  1.00  0.00    -0.195 C  
BRANCH  14  15
HETATM   15  C   UNL     1      -8.976   6.040  71.048  1.00  0.00    -0.146 C  
BRANCH  15  16
HETATM   16  C   UNL     1      -9.174   4.826  70.146  1.00  0.00    -0.135 C  
BRANCH  16  17
HETATM   17  N   UNL     1      -8.343   4.912  68.969  1.00  0.00    -0.082 N  
HETATM   18  N   UNL     1      -7.213   5.705  68.916  1.00  0.00    -0.075 NA 
HETATM   19  C   UNL     1      -6.864   5.648  67.668  1.00  0.00    -0.060 A  
HETATM   20  C   UNL     1      -5.702   6.302  67.029  1.00  0.00    -0.013 A  
HETATM   21  C   UNL     1      -5.528   6.116  65.708  1.00  0.00    -0.013 A  
HETATM   22  C   UNL     1      -6.453   5.311  64.930  1.00  0.00    -0.039 A  
HETATM   23  C   UNL     1      -7.503   4.728  65.530  1.00  0.00    -0.081 A  
HETATM   24  N   UNL     1      -7.676   4.903  66.874  1.00  0.00    -0.091 N  
HETATM   25  C   UNL     1      -8.675   4.428  67.691  1.00  0.00    -0.105 C  
HETATM   26  O   UNL     1      -9.655   3.761  67.382  1.00  0.00    -0.198 OA 
ENDBRANCH  16  17
ENDBRANCH  15  16
ENDBRANCH  14  15
ENDBRANCH  11  14
ENDBRANCH   6   8
TORSDOF 5
ENDMDL
MODEL      219
REMARK 921   NORMALIZED FREE ENERGY PREDICTED BY IDOCK:   -3.68 KCAL/MOL
REMARK 922        TOTAL FREE ENERGY PREDICTED BY IDOCK:   -5.39 KCAL/MOL
REMARK 923 INTER-LIGAND FREE ENERGY PREDICTED BY IDOCK:   -5.12 KCAL/MOL
REMARK 924 INTRA-LIGAND FREE ENERGY PREDICTED BY IDOCK:   -0.28 KCAL/MOL
REMARK 927      BINDING AFFINITY PREDICTED BY RF-SCORE:    0.00 PKD
ROOT
HETATM    1 CL   UNL     1     -12.899  13.974  65.558  1.00  0.00    -0.534 Cl 
HETATM    2  C   UNL     1     -11.636  12.873  65.158  1.00  0.00    -0.332 A  
HETATM    3  C   UNL     1     -11.777  12.034  64.060  1.00  0.00    -0.498 A  
HETATM    4  C   UNL     1     -10.755  11.145  63.749  1.00  0.00    -0.399 A  
HETATM    5  C   UNL     1      -9.609  11.091  64.552  1.00  0.00    -0.299 A  
HETATM    6  C   UNL     1      -9.455  11.910  65.681  1.00  0.00    -0.166 A  
HETATM    7  C   UNL     1     -10.489  12.817  65.954  1.00  0.00    -0.295 A  
ENDROOT
BRANCH   6   8
HETATM    8  N   UNL     1      -8.370  11.752  66.525  1.00  0.00    -0.137 NA 
HETATM    9  C   UNL     1      -7.207  10.950  66.116  1.00  0.00    -0.101 C  
HETATM   10  C   UNL     1      -5.918  11.564  66.712  1.00  0.00    -0.139 C  
HETATM   11  N   UNL     1      -5.935  11.748  68.184  1.00  0.00    -0.049 NA 
HETATM   12  C   UNL     1      -8.476  12.015  67.970  1.00  0.00    -0.168 C  
HETATM   13  C   UNL     1      -7.132  12.566  68.514  1.00  0.00    -0.107 C  
BRANCH  11  14
HETATM   14  C   UNL     1      -5.953  10.475  68.925  1.00  0.00    -0.040 C  
BRANCH  14  15
HETATM   15  C   UNL     1      -6.397  10.635  70.380  1.00  0.00    -0.117 C  
BRANCH  15  16
HETATM   16  C   UNL     1      -6.667   9.277  71.020  1.00  0.00    -0.093 C  
BRANCH  16  17
HETATM   17  N   UNL     1      -7.707   8.568  70.314  1.00  0.00    -0.074 N  
HETATM   18  N   UNL     1      -8.999   8.474  70.795  1.00  0.00    -0.153 NA 
HETATM   19  C   UNL     1      -9.560   7.628  69.986  1.00  0.00    -0.164 A  
HETATM   20  C   UNL     1     -10.961   7.155  70.012  1.00  0.00    -0.287 A  
HETATM   21  C   UNL     1     -11.336   6.264  69.078  1.00  0.00    -0.319 A  
HETATM   22  C   UNL     1     -10.400   5.772  68.083  1.00  0.00    -0.264 A  
HETATM   23  C   UNL     1      -9.132   6.213  68.079  1.00  0.00    -0.114 A  
HETATM   24  N   UNL     1      -8.749   7.129  69.017  1.00  0.00    -0.132 N  
HETATM   25  C   UNL     1      -7.516   7.703  69.221  1.00  0.00    -0.094 C  
HETATM   26  O   UNL     1      -6.473   7.491  68.615  1.00  0.00    -0.042 OA 
ENDBRANCH  16  17
ENDBRANCH  15  16
ENDBRANCH  14  15
ENDBRANCH  11  14
ENDBRANCH   6   8
TORSDOF 5
ENDMDL
MODEL      220
REMARK 921   NORMALIZED FREE ENERGY PREDICTED BY IDOCK:   -3.68 KCAL/MOL
REMARK 922        TOTAL FREE ENERGY PREDICTED BY IDOCK:   -5.39 KCAL/MOL
REMARK 923 INTER-LIGAND FREE ENERGY PREDICTED BY IDOCK:   -4.85 KCAL/MOL
REMARK 924 INTRA-LIGAND FREE ENERGY PREDICTED BY IDOCK:   -0.54 KCAL/MOL
REMARK 927      BINDING AFFINITY PREDICTED BY RF-SCORE:    0.00 PKD
ROOT
HETATM    1 CL   UNL     1      -7.118   2.683  71.617  1.00  0.00    -0.031 Cl 
HETATM    2  C   UNL     1      -8.645   3.192  72.229  1.00  0.00    -0.079 A  
HETATM    3  C   UNL     1      -9.426   2.302  72.954  1.00  0.00    -0.128 A  
HETATM    4  C   UNL     1     -10.661   2.720  73.439  1.00  0.00    -0.263 A  
HETATM    5  C   UNL     1     -11.109   4.020  73.176  1.00  0.00    -0.242 A  
HETATM    6  C   UNL     1     -10.349   4.929  72.423  1.00  0.00    -0.204 A  
HETATM    7  C   UNL     1      -9.096   4.489  71.972  1.00  0.00    -0.161 A  
ENDROOT
BRANCH   6   8
HETATM    8  N   UNL     1     -10.867   6.164  72.076  1.00  0.00    -0.236 NA 
HETATM    9  C   UNL     1     -11.103   6.514  70.667  1.00  0.00    -0.309 C  
HETATM   10  C   UNL     1     -12.351   7.421  70.559  1.00  0.00     0.059 C  
HETATM   11  N   UNL     1     -12.314   8.642  71.402  1.00  0.00    -0.305 NA 
HETATM   12  C   UNL     1     -10.832   7.302  73.010  1.00  0.00    -0.355 C  
HETATM   13  C   UNL     1     -12.077   8.203  72.803  1.00  0.00    -0.148 C  
BRANCH  11  14
HETATM   14  C   UNL     1     -11.285   9.605  70.976  1.00  0.00    -0.375 C  
BRANCH  14  15
HETATM   15  C   UNL     1     -11.873  10.917  70.451  1.00  0.00    -0.449 C  
BRANCH  15  16
HETATM   16  C   UNL     1     -12.106  10.844  68.945  1.00  0.00    -0.116 C  
BRANCH  16  17
HETATM   17  N   UNL     1     -10.909  10.432  68.253  1.00  0.00    -0.235 N  
HETATM   18  N   UNL     1     -10.600   9.103  68.034  1.00  0.00    -0.222 NA 
HETATM   19  C   UNL     1      -9.393   9.149  67.559  1.00  0.00    -0.135 A  
HETATM   20  C   UNL     1      -8.554   8.012  67.127  1.00  0.00    -0.124 A  
HETATM   21  C   UNL     1      -7.318   8.285  66.670  1.00  0.00    -0.082 A  
HETATM   22  C   UNL     1      -6.818   9.647  66.611  1.00  0.00    -0.084 A  
HETATM   23  C   UNL     1      -7.597  10.665  67.011  1.00  0.00    -0.110 A  
HETATM   24  N   UNL     1      -8.857  10.394  67.463  1.00  0.00    -0.134 N  
HETATM   25  C   UNL     1      -9.815  11.258  67.938  1.00  0.00    -0.176 C  
HETATM   26  O   UNL     1      -9.734  12.471  68.088  1.00  0.00    -0.212 OA 
ENDBRANCH  16  17
ENDBRANCH  15  16
ENDBRANCH  14  15
ENDBRANCH  11  14
ENDBRANCH   6   8
TORSDOF 5
ENDMDL
MODEL      221
REMARK 921   NORMALIZED FREE ENERGY PREDICTED BY IDOCK:   -3.66 KCAL/MOL
REMARK 922        TOTAL FREE ENERGY PREDICTED BY IDOCK:   -5.37 KCAL/MOL
REMARK 923 INTER-LIGAND FREE ENERGY PREDICTED BY IDOCK:   -4.90 KCAL/MOL
REMARK 924 INTRA-LIGAND FREE ENERGY PREDICTED BY IDOCK:   -0.47 KCAL/MOL
REMARK 927      BINDING AFFINITY PREDICTED BY RF-SCORE:    0.00 PKD
ROOT
HETATM    1 CL   UNL     1      -5.267   2.537  71.422  1.00  0.00    -0.004 Cl 
HETATM    2  C   UNL     1      -6.484   3.547  72.105  1.00  0.00    -0.015 A  
HETATM    3  C   UNL     1      -6.733   3.496  73.470  1.00  0.00    -0.035 A  
HETATM    4  C   UNL     1      -7.721   4.311  74.010  1.00  0.00    -0.084 A  
HETATM    5  C   UNL     1      -8.463   5.155  73.176  1.00  0.00    -0.110 A  
HETATM    6  C   UNL     1      -8.247   5.205  71.790  1.00  0.00    -0.117 A  
HETATM    7  C   UNL     1      -7.224   4.394  71.276  1.00  0.00    -0.044 A  
ENDROOT
BRANCH   6   8
HETATM    8  N   UNL     1      -9.073   5.956  70.974  1.00  0.00    -0.145 NA 
HETATM    9  C   UNL     1      -8.620   7.240  70.417  1.00  0.00    -0.144 C  
HETATM   10  C   UNL     1      -9.230   7.440  69.010  1.00  0.00    -0.146 C  
HETATM   11  N   UNL     1     -10.709   7.338  68.948  1.00  0.00    -0.186 NA 
HETATM   12  C   UNL     1     -10.529   5.737  70.944  1.00  0.00    -0.252 C  
HETATM   13  C   UNL     1     -11.084   6.018  69.523  1.00  0.00    -0.398 C  
BRANCH  11  14
HETATM   14  C   UNL     1     -11.394   8.429  69.660  1.00  0.00     0.223 C  
BRANCH  14  15
HETATM   15  C   UNL     1     -10.996   9.817  69.152  1.00  0.00    -0.205 C  
BRANCH  15  16
HETATM   16  C   UNL     1     -11.648  10.911  69.993  1.00  0.00    -0.341 C  
BRANCH  16  17
HETATM   17  N   UNL     1     -11.606  12.183  69.313  1.00  0.00    -0.297 N  
HETATM   18  N   UNL     1     -10.916  12.370  68.131  1.00  0.00    -0.216 NA 
HETATM   19  C   UNL     1     -10.972  13.653  67.949  1.00  0.00    -0.259 A  
HETATM   20  C   UNL     1     -10.409  14.426  66.821  1.00  0.00    -0.273 A  
HETATM   21  C   UNL     1     -10.577  15.761  66.833  1.00  0.00    -0.317 A  
HETATM   22  C   UNL     1     -11.277  16.425  67.918  1.00  0.00    -0.184 A  
HETATM   23  C   UNL     1     -11.778  15.704  68.934  1.00  0.00    -0.384 A  
HETATM   24  N   UNL     1     -11.623  14.347  68.919  1.00  0.00    -0.287 N  
HETATM   25  C   UNL     1     -12.027  13.415  69.846  1.00  0.00    -0.338 C  
HETATM   26  O   UNL     1     -12.596  13.606  70.914  1.00  0.00    -0.341 OA 
ENDBRANCH  16  17
ENDBRANCH  15  16
ENDBRANCH  14  15
ENDBRANCH  11  14
ENDBRANCH   6   8
TORSDOF 5
ENDMDL
MODEL      222
REMARK 921   NORMALIZED FREE ENERGY PREDICTED BY IDOCK:   -3.65 KCAL/MOL
REMARK 922        TOTAL FREE ENERGY PREDICTED BY IDOCK:   -5.36 KCAL/MOL
REMARK 923 INTER-LIGAND FREE ENERGY PREDICTED BY IDOCK:   -4.77 KCAL/MOL
REMARK 924 INTRA-LIGAND FREE ENERGY PREDICTED BY IDOCK:   -0.58 KCAL/MOL
REMARK 927      BINDING AFFINITY PREDICTED BY RF-SCORE:    0.00 PKD
ROOT
HETATM    1 CL   UNL     1     -10.851   2.758  62.376  1.00  0.00    -0.157 Cl 
HETATM    2  C   UNL     1      -9.563   3.538  63.211  1.00  0.00    -0.115 A  
HETATM    3  C   UNL     1      -8.565   4.181  62.490  1.00  0.00    -0.088 A  
HETATM    4  C   UNL     1      -7.527   4.803  63.174  1.00  0.00    -0.054 A  
HETATM    5  C   UNL     1      -7.487   4.760  64.572  1.00  0.00    -0.071 A  
HETATM    6  C   UNL     1      -8.469   4.094  65.322  1.00  0.00    -0.114 A  
HETATM    7  C   UNL     1      -9.520   3.500  64.607  1.00  0.00    -0.156 A  
ENDROOT
BRANCH   6   8
HETATM    8  N   UNL     1      -8.341   3.962  66.693  1.00  0.00    -0.103 NA 
HETATM    9  C   UNL     1      -9.444   4.334  67.593  1.00  0.00    -0.175 C  
HETATM   10  C   UNL     1      -9.455   3.391  68.818  1.00  0.00    -0.131 C  
HETATM   11  N   UNL     1      -8.174   3.318  69.564  1.00  0.00    -0.051 NA 
HETATM   12  C   UNL     1      -7.021   3.839  67.333  1.00  0.00    -0.055 C  
HETATM   13  C   UNL     1      -7.117   2.935  68.589  1.00  0.00    -0.048 C  
BRANCH  11  14
HETATM   14  C   UNL     1      -7.827   4.578  70.240  1.00  0.00    -0.060 C  
BRANCH  14  15
HETATM   15  C   UNL     1      -8.874   5.016  71.267  1.00  0.00    -0.152 C  
BRANCH  15  16
HETATM   16  C   UNL     1      -8.592   6.430  71.763  1.00  0.00    -0.128 C  
BRANCH  16  17
HETATM   17  N   UNL     1      -9.761   7.266  71.643  1.00  0.00    -0.156 N  
HETATM   18  N   UNL     1      -9.892   8.222  70.654  1.00  0.00    -0.181 NA 
HETATM   19  C   UNL     1     -10.969   8.861  70.993  1.00  0.00    -0.276 A  
HETATM   20  C   UNL     1     -11.605   9.990  70.281  1.00  0.00    -0.354 A  
HETATM   21  C   UNL     1     -12.723  10.515  70.815  1.00  0.00    -0.471 A  
HETATM   22  C   UNL     1     -13.284  10.000  72.051  1.00  0.00    -0.545 A  
HETATM   23  C   UNL     1     -12.689   8.975  72.682  1.00  0.00    -0.208 A  
HETATM   24  N   UNL     1     -11.561   8.430  72.137  1.00  0.00    -0.347 N  
HETATM   25  C   UNL     1     -10.778   7.402  72.606  1.00  0.00    -0.288 C  
HETATM   26  O   UNL     1     -10.906   6.764  73.644  1.00  0.00    -0.290 OA 
ENDBRANCH  16  17
ENDBRANCH  15  16
ENDBRANCH  14  15
ENDBRANCH  11  14
ENDBRANCH   6   8
TORSDOF 5
ENDMDL
MODEL      223
REMARK 921   NORMALIZED FREE ENERGY PREDICTED BY IDOCK:   -3.65 KCAL/MOL
REMARK 922        TOTAL FREE ENERGY PREDICTED BY IDOCK:   -5.35 KCAL/MOL
REMARK 923 INTER-LIGAND FREE ENERGY PREDICTED BY IDOCK:   -4.95 KCAL/MOL
REMARK 924 INTRA-LIGAND FREE ENERGY PREDICTED BY IDOCK:   -0.41 KCAL/MOL
REMARK 927      BINDING AFFINITY PREDICTED BY RF-SCORE:    0.00 PKD
ROOT
HETATM    1 CL   UNL     1     -11.141  15.851  64.603  1.00  0.00    -0.451 Cl 
HETATM    2  C   UNL     1     -10.991  15.226  66.202  1.00  0.00    -0.307 A  
HETATM    3  C   UNL     1     -10.992  16.098  67.283  1.00  0.00    -0.175 A  
HETATM    4  C   UNL     1     -10.866  15.585  68.569  1.00  0.00    -0.272 A  
HETATM    5  C   UNL     1     -10.721  14.206  68.758  1.00  0.00    -0.265 A  
HETATM    6  C   UNL     1     -10.690  13.307  67.680  1.00  0.00    -0.239 A  
HETATM    7  C   UNL     1     -10.849  13.850  66.396  1.00  0.00    -0.291 A  
ENDROOT
BRANCH   6   8
HETATM    8  N   UNL     1     -10.425  11.966  67.886  1.00  0.00    -0.199 NA 
HETATM    9  C   UNL     1      -9.945  11.114  66.788  1.00  0.00    -0.208 C  
HETATM   10  C   UNL     1      -8.972  10.048  67.344  1.00  0.00    -0.131 C  
HETATM   11  N   UNL     1      -9.515   9.219  68.449  1.00  0.00    -0.138 NA 
HETATM   12  C   UNL     1     -10.968  11.245  69.050  1.00  0.00    -0.236 C  
HETATM   13  C   UNL     1      -9.973  10.150  69.515  1.00  0.00    -0.235 C  
BRANCH  11  14
HETATM   14  C   UNL     1     -10.613   8.336  68.021  1.00  0.00    -0.127 C  
BRANCH  14  15
HETATM   15  C   UNL     1     -10.182   7.308  66.973  1.00  0.00    -0.348 C  
BRANCH  15  16
HETATM   16  C   UNL     1     -10.788   5.940  67.271  1.00  0.00    -0.260 C  
BRANCH  16  17
HETATM   17  N   UNL     1     -10.043   5.254  68.298  1.00  0.00    -0.167 N  
HETATM   18  N   UNL     1     -10.057   5.659  69.620  1.00  0.00    -0.200 NA 
HETATM   19  C   UNL     1      -9.146   4.918  70.171  1.00  0.00    -0.110 A  
HETATM   20  C   UNL     1      -8.735   4.907  71.591  1.00  0.00    -0.137 A  
HETATM   21  C   UNL     1      -7.755   4.059  71.952  1.00  0.00    -0.067 A  
HETATM   22  C   UNL     1      -7.114   3.189  70.983  1.00  0.00    -0.033 A  
HETATM   23  C   UNL     1      -7.501   3.217  69.697  1.00  0.00    -0.044 A  
HETATM   24  N   UNL     1      -8.505   4.067  69.328  1.00  0.00    -0.075 N  
HETATM   25  C   UNL     1      -9.049   4.282  68.084  1.00  0.00    -0.131 C  
HETATM   26  O   UNL     1      -8.727   3.773  67.018  1.00  0.00    -0.104 OA 
ENDBRANCH  16  17
ENDBRANCH  15  16
ENDBRANCH  14  15
ENDBRANCH  11  14
ENDBRANCH   6   8
TORSDOF 5
ENDMDL
MODEL      224
REMARK 921   NORMALIZED FREE ENERGY PREDICTED BY IDOCK:   -3.65 KCAL/MOL
REMARK 922        TOTAL FREE ENERGY PREDICTED BY IDOCK:   -5.35 KCAL/MOL
REMARK 923 INTER-LIGAND FREE ENERGY PREDICTED BY IDOCK:   -4.72 KCAL/MOL
REMARK 924 INTRA-LIGAND FREE ENERGY PREDICTED BY IDOCK:   -0.63 KCAL/MOL
REMARK 927      BINDING AFFINITY PREDICTED BY RF-SCORE:    0.00 PKD
ROOT
HETATM    1 CL   UNL     1      -9.368   1.527  70.237  1.00  0.00    -0.159 Cl 
HETATM    2  C   UNL     1      -8.483   2.495  69.121  1.00  0.00    -0.062 A  
HETATM    3  C   UNL     1      -7.228   2.078  68.694  1.00  0.00    -0.043 A  
HETATM    4  C   UNL     1      -6.519   2.870  67.797  1.00  0.00    -0.036 A  
HETATM    5  C   UNL     1      -7.065   4.079  67.351  1.00  0.00    -0.066 A  
HETATM    6  C   UNL     1      -8.319   4.534  67.789  1.00  0.00    -0.099 A  
HETATM    7  C   UNL     1      -9.024   3.701  68.671  1.00  0.00    -0.180 A  
ENDROOT
BRANCH   6   8
HETATM    8  N   UNL     1      -8.780   5.787  67.428  1.00  0.00    -0.109 NA 
HETATM    9  C   UNL     1      -8.008   6.642  66.514  1.00  0.00    -0.106 C  
HETATM   10  C   UNL     1      -8.974   7.473  65.639  1.00  0.00     0.031 C  
HETATM   11  N   UNL     1      -9.967   8.278  66.393  1.00  0.00    -0.235 NA 
HETATM   12  C   UNL     1      -9.814   6.480  68.216  1.00  0.00    -0.132 C  
HETATM   13  C   UNL     1     -10.705   7.345  67.286  1.00  0.00    -0.308 C  
BRANCH  11  14
HETATM   14  C   UNL     1      -9.356   9.369  67.169  1.00  0.00    -0.139 C  
BRANCH  14  15
HETATM   15  C   UNL     1     -10.115  10.691  67.046  1.00  0.00    -0.255 C  
BRANCH  15  16
HETATM   16  C   UNL     1     -10.286  11.351  68.411  1.00  0.00    -0.198 C  
BRANCH  16  17
HETATM   17  N   UNL     1     -10.245  10.372  69.470  1.00  0.00    -0.236 N  
HETATM   18  N   UNL     1     -11.389   9.866  70.057  1.00  0.00    -0.254 NA 
HETATM   19  C   UNL     1     -10.934   9.175  71.056  1.00  0.00    -0.305 A  
HETATM   20  C   UNL     1     -11.716   8.391  72.036  1.00  0.00    -0.417 A  
HETATM   21  C   UNL     1     -11.039   7.750  73.006  1.00  0.00    -0.419 A  
HETATM   22  C   UNL     1      -9.592   7.830  73.098  1.00  0.00    -0.337 A  
HETATM   23  C   UNL     1      -8.902   8.550  72.199  1.00  0.00    -0.216 A  
HETATM   24  N   UNL     1      -9.583   9.191  71.203  1.00  0.00    -0.283 N  
HETATM   25  C   UNL     1      -9.101   9.992  70.195  1.00  0.00    -0.013 C  
HETATM   26  O   UNL     1      -7.943  10.332  69.986  1.00  0.00    -0.148 OA 
ENDBRANCH  16  17
ENDBRANCH  15  16
ENDBRANCH  14  15
ENDBRANCH  11  14
ENDBRANCH   6   8
TORSDOF 5
ENDMDL
MODEL      225
REMARK 921   NORMALIZED FREE ENERGY PREDICTED BY IDOCK:   -3.62 KCAL/MOL
REMARK 922        TOTAL FREE ENERGY PREDICTED BY IDOCK:   -5.31 KCAL/MOL
REMARK 923 INTER-LIGAND FREE ENERGY PREDICTED BY IDOCK:   -3.96 KCAL/MOL
REMARK 924 INTRA-LIGAND FREE ENERGY PREDICTED BY IDOCK:   -1.36 KCAL/MOL
REMARK 927      BINDING AFFINITY PREDICTED BY RF-SCORE:    0.00 PKD
ROOT
HETATM    1 CL   UNL     1      -7.537  10.179  70.079  1.00  0.00    -0.177 Cl 
HETATM    2  C   UNL     1      -8.418   8.777  70.554  1.00  0.00    -0.166 A  
HETATM    3  C   UNL     1      -9.266   8.837  71.653  1.00  0.00    -0.333 A  
HETATM    4  C   UNL     1      -9.968   7.699  72.032  1.00  0.00    -0.220 A  
HETATM    5  C   UNL     1      -9.801   6.507  71.318  1.00  0.00    -0.197 A  
HETATM    6  C   UNL     1      -8.931   6.414  70.221  1.00  0.00    -0.154 A  
HETATM    7  C   UNL     1      -8.258   7.585  69.843  1.00  0.00    -0.131 A  
ENDROOT
BRANCH   6   8
HETATM    8  N   UNL     1      -8.693   5.196  69.610  1.00  0.00    -0.091 NA 
HETATM    9  C   UNL     1      -7.486   4.982  68.799  1.00  0.00    -0.069 C  
HETATM   10  C   UNL     1      -7.011   3.518  68.950  1.00  0.00    -0.046 C  
HETATM   11  N   UNL     1      -8.036   2.491  68.640  1.00  0.00    -0.052 NA 
HETATM   12  C   UNL     1      -9.774   4.218  69.399  1.00  0.00    -0.187 C  
HETATM   13  C   UNL     1      -9.217   2.774  69.500  1.00  0.00    -0.134 C  
BRANCH  11  14
HETATM   14  C   UNL     1      -8.420   2.469  67.219  1.00  0.00    -0.098 C  
BRANCH  14  15
HETATM   15  C   UNL     1      -7.431   3.213  66.320  1.00  0.00    -0.076 C  
BRANCH  15  16
HETATM   16  C   UNL     1      -8.151   3.871  65.146  1.00  0.00    -0.097 C  
BRANCH  16  17
HETATM   17  N   UNL     1      -8.561   5.214  65.475  1.00  0.00    -0.137 N  
HETATM   18  N   UNL     1      -7.675   6.275  65.502  1.00  0.00    -0.090 NA 
HETATM   19  C   UNL     1      -8.379   7.242  66.004  1.00  0.00    -0.140 A  
HETATM   20  C   UNL     1      -7.945   8.634  66.252  1.00  0.00    -0.102 A  
HETATM   21  C   UNL     1      -8.840   9.480  66.792  1.00  0.00    -0.145 A  
HETATM   22  C   UNL     1     -10.183   9.046  67.129  1.00  0.00    -0.334 A  
HETATM   23  C   UNL     1     -10.556   7.777  66.898  1.00  0.00    -0.277 A  
HETATM   24  N   UNL     1      -9.655   6.916  66.337  1.00  0.00    -0.139 N  
HETATM   25  C   UNL     1      -9.799   5.584  66.030  1.00  0.00    -0.059 C  
HETATM   26  O   UNL     1     -10.771   4.863  66.222  1.00  0.00    -0.305 OA 
ENDBRANCH  16  17
ENDBRANCH  15  16
ENDBRANCH  14  15
ENDBRANCH  11  14
ENDBRANCH   6   8
TORSDOF 5
ENDMDL
MODEL      226
REMARK 921   NORMALIZED FREE ENERGY PREDICTED BY IDOCK:   -3.62 KCAL/MOL
REMARK 922        TOTAL FREE ENERGY PREDICTED BY IDOCK:   -5.31 KCAL/MOL
REMARK 923 INTER-LIGAND FREE ENERGY PREDICTED BY IDOCK:   -4.60 KCAL/MOL
REMARK 924 INTRA-LIGAND FREE ENERGY PREDICTED BY IDOCK:   -0.70 KCAL/MOL
REMARK 927      BINDING AFFINITY PREDICTED BY RF-SCORE:    0.00 PKD
ROOT
HETATM    1 CL   UNL     1     -10.229  16.284  65.579  1.00  0.00    -0.359 Cl 
HETATM    2  C   UNL     1     -10.906  14.736  65.250  1.00  0.00    -0.383 A  
HETATM    3  C   UNL     1     -12.281  14.605  65.098  1.00  0.00    -0.282 A  
HETATM    4  C   UNL     1     -12.819  13.349  64.839  1.00  0.00    -0.292 A  
HETATM    5  C   UNL     1     -11.977  12.234  64.752  1.00  0.00    -0.429 A  
HETATM    6  C   UNL     1     -10.589  12.337  64.928  1.00  0.00    -0.293 A  
HETATM    7  C   UNL     1     -10.070  13.620  65.160  1.00  0.00    -0.298 A  
ENDROOT
BRANCH   6   8
HETATM    8  N   UNL     1      -9.795  11.204  64.957  1.00  0.00    -0.250 NA 
HETATM    9  C   UNL     1      -9.558  10.481  66.216  1.00  0.00    -0.187 C  
HETATM   10  C   UNL     1      -9.438   8.967  65.931  1.00  0.00    -0.234 C  
HETATM   11  N   UNL     1      -8.417   8.599  64.918  1.00  0.00    -0.174 NA 
HETATM   12  C   UNL     1      -8.850  10.899  63.870  1.00  0.00    -0.057 C  
HETATM   13  C   UNL     1      -8.728   9.365  63.681  1.00  0.00    -0.202 C  
BRANCH  11  14
HETATM   14  C   UNL     1      -7.040   8.865  65.363  1.00  0.00    -0.080 C  
BRANCH  14  15
HETATM   15  C   UNL     1      -6.158   7.615  65.364  1.00  0.00    -0.038 C  
BRANCH  15  16
HETATM   16  C   UNL     1      -5.835   7.177  66.789  1.00  0.00    -0.027 C  
BRANCH  16  17
HETATM   17  N   UNL     1      -6.535   5.962  67.131  1.00  0.00    -0.045 N  
HETATM   18  N   UNL     1      -6.207   4.738  66.581  1.00  0.00    -0.031 NA 
HETATM   19  C   UNL     1      -7.158   3.958  66.994  1.00  0.00    -0.063 A  
HETATM   20  C   UNL     1      -7.317   2.513  66.722  1.00  0.00    -0.065 A  
HETATM   21  C   UNL     1      -8.390   1.893  67.245  1.00  0.00    -0.084 A  
HETATM   22  C   UNL     1      -9.367   2.616  68.041  1.00  0.00    -0.255 A  
HETATM   23  C   UNL     1      -9.205   3.928  68.272  1.00  0.00    -0.155 A  
HETATM   24  N   UNL     1      -8.109   4.559  67.755  1.00  0.00    -0.098 N  
HETATM   25  C   UNL     1      -7.746   5.882  67.841  1.00  0.00    -0.100 C  
HETATM   26  O   UNL     1      -8.350   6.801  68.383  1.00  0.00    -0.121 OA 
ENDBRANCH  16  17
ENDBRANCH  15  16
ENDBRANCH  14  15
ENDBRANCH  11  14
ENDBRANCH   6   8
TORSDOF 5
ENDMDL
MODEL      227
REMARK 921   NORMALIZED FREE ENERGY PREDICTED BY IDOCK:   -3.61 KCAL/MOL
REMARK 922        TOTAL FREE ENERGY PREDICTED BY IDOCK:   -5.30 KCAL/MOL
REMARK 923 INTER-LIGAND FREE ENERGY PREDICTED BY IDOCK:   -4.81 KCAL/MOL
REMARK 924 INTRA-LIGAND FREE ENERGY PREDICTED BY IDOCK:   -0.49 KCAL/MOL
REMARK 927      BINDING AFFINITY PREDICTED BY RF-SCORE:    0.00 PKD
ROOT
HETATM    1 CL   UNL     1      -9.745  17.369  65.907  1.00  0.00    -0.154 Cl 
HETATM    2  C   UNL     1     -10.433  15.861  65.441  1.00  0.00    -0.405 A  
HETATM    3  C   UNL     1     -11.483  15.836  64.532  1.00  0.00    -0.292 A  
HETATM    4  C   UNL     1     -12.036  14.614  64.167  1.00  0.00    -0.316 A  
HETATM    5  C   UNL     1     -11.545  13.430  64.730  1.00  0.00    -0.367 A  
HETATM    6  C   UNL     1     -10.503  13.432  65.670  1.00  0.00    -0.290 A  
HETATM    7  C   UNL     1      -9.945  14.676  65.998  1.00  0.00    -0.337 A  
ENDROOT
BRANCH   6   8
HETATM    8  N   UNL     1     -10.120  12.262  66.301  1.00  0.00    -0.229 NA 
HETATM    9  C   UNL     1     -10.722  10.972  65.931  1.00  0.00    -0.160 C  
HETATM   10  C   UNL     1      -9.668   9.849  66.065  1.00  0.00    -0.247 C  
HETATM   11  N   UNL     1      -9.016   9.758  67.395  1.00  0.00    -0.134 NA 
HETATM   12  C   UNL     1      -9.424  12.282  67.599  1.00  0.00    -0.188 C  
HETATM   13  C   UNL     1      -8.431  11.093  67.692  1.00  0.00    -0.122 C  
BRANCH  11  14
HETATM   14  C   UNL     1      -9.939   9.343  68.464  1.00  0.00    -0.173 C  
BRANCH  14  15
HETATM   15  C   UNL     1      -9.338   8.294  69.401  1.00  0.00    -0.155 C  
BRANCH  15  16
HETATM   16  C   UNL     1     -10.423   7.376  69.957  1.00  0.00    -0.226 C  
BRANCH  16  17
HETATM   17  N   UNL     1      -9.945   6.020  70.077  1.00  0.00    -0.171 N  
HETATM   18  N   UNL     1      -9.077   5.625  71.077  1.00  0.00    -0.144 NA 
HETATM   19  C   UNL     1      -8.757   4.414  70.736  1.00  0.00    -0.092 A  
HETATM   20  C   UNL     1      -7.858   3.487  71.455  1.00  0.00    -0.057 A  
HETATM   21  C   UNL     1      -7.656   2.270  70.918  1.00  0.00    -0.032 A  
HETATM   22  C   UNL     1      -8.288   1.880  69.670  1.00  0.00    -0.072 A  
HETATM   23  C   UNL     1      -9.098   2.740  69.032  1.00  0.00    -0.141 A  
HETATM   24  N   UNL     1      -9.318   3.971  69.581  1.00  0.00    -0.155 N  
HETATM   25  C   UNL     1     -10.082   5.011  69.106  1.00  0.00    -0.187 C  
HETATM   26  O   UNL     1     -10.716   5.070  68.059  1.00  0.00     0.040 OA 
ENDBRANCH  16  17
ENDBRANCH  15  16
ENDBRANCH  14  15
ENDBRANCH  11  14
ENDBRANCH   6   8
TORSDOF 5
ENDMDL
MODEL      228
REMARK 921   NORMALIZED FREE ENERGY PREDICTED BY IDOCK:   -3.57 KCAL/MOL
REMARK 922        TOTAL FREE ENERGY PREDICTED BY IDOCK:   -5.25 KCAL/MOL
REMARK 923 INTER-LIGAND FREE ENERGY PREDICTED BY IDOCK:   -4.77 KCAL/MOL
REMARK 924 INTRA-LIGAND FREE ENERGY PREDICTED BY IDOCK:   -0.48 KCAL/MOL
REMARK 927      BINDING AFFINITY PREDICTED BY RF-SCORE:    0.00 PKD
ROOT
HETATM    1 CL   UNL     1     -10.530  17.413  65.619  1.00  0.00    -0.262 Cl 
HETATM    2  C   UNL     1     -10.903  15.757  65.329  1.00  0.00    -0.395 A  
HETATM    3  C   UNL     1     -11.811  15.420  64.333  1.00  0.00    -0.260 A  
HETATM    4  C   UNL     1     -12.110  14.081  64.111  1.00  0.00    -0.456 A  
HETATM    5  C   UNL     1     -11.511  13.092  64.900  1.00  0.00    -0.337 A  
HETATM    6  C   UNL     1     -10.611  13.409  65.930  1.00  0.00    -0.283 A  
HETATM    7  C   UNL     1     -10.306  14.766  66.112  1.00  0.00    -0.314 A  
ENDROOT
BRANCH   6   8
HETATM    8  N   UNL     1     -10.127  12.424  66.772  1.00  0.00    -0.212 NA 
HETATM    9  C   UNL     1     -10.907  11.205  67.034  1.00  0.00    -0.284 C  
HETATM   10  C   UNL     1      -9.949  10.006  67.223  1.00  0.00    -0.197 C  
HETATM   11  N   UNL     1      -8.909  10.194  68.265  1.00  0.00    -0.122 NA 
HETATM   12  C   UNL     1      -9.049  12.699  67.736  1.00  0.00    -0.192 C  
HETATM   13  C   UNL     1      -8.167  11.438  67.927  1.00  0.00    -0.132 C  
BRANCH  11  14
HETATM   14  C   UNL     1      -9.463  10.270  69.626  1.00  0.00    -0.151 C  
BRANCH  14  15
HETATM   15  C   UNL     1      -8.922   9.181  70.555  1.00  0.00    -0.274 C  
BRANCH  15  16
HETATM   16  C   UNL     1      -8.880   7.831  69.845  1.00  0.00    -0.142 C  
BRANCH  16  17
HETATM   17  N   UNL     1      -8.363   6.802  70.714  1.00  0.00    -0.127 N  
HETATM   18  N   UNL     1      -9.073   6.319  71.796  1.00  0.00    -0.144 NA 
HETATM   19  C   UNL     1      -8.214   5.562  72.406  1.00  0.00    -0.114 A  
HETATM   20  C   UNL     1      -8.430   4.767  73.634  1.00  0.00    -0.105 A  
HETATM   21  C   UNL     1      -7.393   4.053  74.106  1.00  0.00    -0.067 A  
HETATM   22  C   UNL     1      -6.102   4.066  73.443  1.00  0.00    -0.015 A  
HETATM   23  C   UNL     1      -5.927   4.797  72.331  1.00  0.00    -0.020 A  
HETATM   24  N   UNL     1      -6.981   5.513  71.839  1.00  0.00    -0.073 N  
HETATM   25  C   UNL     1      -7.034   6.339  70.741  1.00  0.00    -0.068 C  
HETATM   26  O   UNL     1      -6.129   6.639  69.973  1.00  0.00    -0.025 OA 
ENDBRANCH  16  17
ENDBRANCH  15  16
ENDBRANCH  14  15
ENDBRANCH  11  14
ENDBRANCH   6   8
TORSDOF 5
ENDMDL
MODEL      229
REMARK 921   NORMALIZED FREE ENERGY PREDICTED BY IDOCK:   -3.57 KCAL/MOL
REMARK 922        TOTAL FREE ENERGY PREDICTED BY IDOCK:   -5.24 KCAL/MOL
REMARK 923 INTER-LIGAND FREE ENERGY PREDICTED BY IDOCK:   -4.59 KCAL/MOL
REMARK 924 INTRA-LIGAND FREE ENERGY PREDICTED BY IDOCK:   -0.66 KCAL/MOL
REMARK 927      BINDING AFFINITY PREDICTED BY RF-SCORE:    0.00 PKD
ROOT
HETATM    1 CL   UNL     1      -8.503  17.126  68.014  1.00  0.00    -0.213 Cl 
HETATM    2  C   UNL     1      -9.320  16.174  66.834  1.00  0.00    -0.227 A  
HETATM    3  C   UNL     1     -10.195  16.784  65.944  1.00  0.00    -0.345 A  
HETATM    4  C   UNL     1     -10.854  16.007  64.999  1.00  0.00    -0.421 A  
HETATM    5  C   UNL     1     -10.645  14.623  64.965  1.00  0.00    -0.461 A  
HETATM    6  C   UNL     1      -9.787  13.980  65.870  1.00  0.00    -0.281 A  
HETATM    7  C   UNL     1      -9.113  14.793  66.794  1.00  0.00    -0.291 A  
ENDROOT
BRANCH   6   8
HETATM    8  N   UNL     1      -9.692  12.600  65.894  1.00  0.00    -0.241 NA 
HETATM    9  C   UNL     1      -8.868  11.918  66.903  1.00  0.00    -0.197 C  
HETATM   10  C   UNL     1      -9.526  10.572  67.288  1.00  0.00    -0.158 C  
HETATM   11  N   UNL     1      -9.812   9.666  66.148  1.00  0.00    -0.247 NA 
HETATM   12  C   UNL     1     -10.055  11.785  64.723  1.00  0.00    -0.263 C  
HETATM   13  C   UNL     1     -10.647  10.426  65.180  1.00  0.00     0.036 C  
BRANCH  11  14
HETATM   14  C   UNL     1      -8.594   9.156  65.497  1.00  0.00    -0.170 C  
BRANCH  14  15
HETATM   15  C   UNL     1      -8.468   7.633  65.572  1.00  0.00    -0.132 C  
BRANCH  15  16
HETATM   16  C   UNL     1      -9.561   7.039  66.456  1.00  0.00    -0.144 C  
BRANCH  16  17
HETATM   17  N   UNL     1      -8.999   6.409  67.626  1.00  0.00    -0.114 N  
HETATM   18  N   UNL     1      -7.965   6.974  68.348  1.00  0.00    -0.121 NA 
HETATM   19  C   UNL     1      -7.638   6.039  69.186  1.00  0.00    -0.090 A  
HETATM   20  C   UNL     1      -6.589   6.093  70.227  1.00  0.00    -0.045 A  
HETATM   21  C   UNL     1      -6.408   5.000  70.989  1.00  0.00    -0.023 A  
HETATM   22  C   UNL     1      -7.205   3.802  70.794  1.00  0.00    -0.037 A  
HETATM   23  C   UNL     1      -8.151   3.774  69.841  1.00  0.00    -0.053 A  
HETATM   24  N   UNL     1      -8.348   4.887  69.074  1.00  0.00    -0.082 N  
HETATM   25  C   UNL     1      -9.231   5.084  68.039  1.00  0.00    -0.119 C  
HETATM   26  O   UNL     1     -10.023   4.284  67.554  1.00  0.00    -0.146 OA 
ENDBRANCH  16  17
ENDBRANCH  15  16
ENDBRANCH  14  15
ENDBRANCH  11  14
ENDBRANCH   6   8
TORSDOF 5
ENDMDL
MODEL      230
REMARK 921   NORMALIZED FREE ENERGY PREDICTED BY IDOCK:   -3.55 KCAL/MOL
REMARK 922        TOTAL FREE ENERGY PREDICTED BY IDOCK:   -5.22 KCAL/MOL
REMARK 923 INTER-LIGAND FREE ENERGY PREDICTED BY IDOCK:   -4.59 KCAL/MOL
REMARK 924 INTRA-LIGAND FREE ENERGY PREDICTED BY IDOCK:   -0.63 KCAL/MOL
REMARK 927      BINDING AFFINITY PREDICTED BY RF-SCORE:    0.00 PKD
ROOT
HETATM    1 CL   UNL     1     -12.647  12.467  63.255  1.00  0.00    -0.456 Cl 
HETATM    2  C   UNL     1     -12.007  12.458  64.854  1.00  0.00    -0.398 A  
HETATM    3  C   UNL     1     -12.483  13.367  65.791  1.00  0.00    -0.496 A  
HETATM    4  C   UNL     1     -11.956  13.355  67.077  1.00  0.00    -0.429 A  
HETATM    5  C   UNL     1     -10.944  12.447  67.408  1.00  0.00    -0.296 A  
HETATM    6  C   UNL     1     -10.429  11.537  66.472  1.00  0.00    -0.244 A  
HETATM    7  C   UNL     1     -10.999  11.551  65.190  1.00  0.00    -0.298 A  
ENDROOT
BRANCH   6   8
HETATM    8  N   UNL     1      -9.348  10.734  66.790  1.00  0.00    -0.160 NA 
HETATM    9  C   UNL     1      -9.453   9.268  66.733  1.00  0.00    -0.175 C  
HETATM   10  C   UNL     1      -8.101   8.667  66.286  1.00  0.00    -0.103 C  
HETATM   11  N   UNL     1      -6.933   9.074  67.105  1.00  0.00    -0.077 NA 
HETATM   12  C   UNL     1      -8.206  11.253  67.562  1.00  0.00    -0.124 C  
HETATM   13  C   UNL     1      -6.894  10.561  67.109  1.00  0.00    -0.084 C  
BRANCH  11  14
HETATM   14  C   UNL     1      -6.981   8.550  68.480  1.00  0.00    -0.065 C  
BRANCH  14  15
HETATM   15  C   UNL     1      -6.514   7.097  68.584  1.00  0.00    -0.036 C  
BRANCH  15  16
HETATM   16  C   UNL     1      -7.695   6.162  68.829  1.00  0.00    -0.096 C  
BRANCH  16  17
HETATM   17  N   UNL     1      -8.017   5.410  67.641  1.00  0.00    -0.100 N  
HETATM   18  N   UNL     1      -9.270   5.442  67.059  1.00  0.00    -0.112 NA 
HETATM   19  C   UNL     1      -9.204   4.519  66.150  1.00  0.00    -0.139 A  
HETATM   20  C   UNL     1     -10.262   4.118  65.199  1.00  0.00    -0.218 A  
HETATM   21  C   UNL     1      -9.984   3.123  64.337  1.00  0.00    -0.120 A  
HETATM   22  C   UNL     1      -8.694   2.457  64.344  1.00  0.00    -0.100 A  
HETATM   23  C   UNL     1      -7.748   2.835  65.218  1.00  0.00    -0.077 A  
HETATM   24  N   UNL     1      -8.021   3.854  66.086  1.00  0.00    -0.093 N  
HETATM   25  C   UNL     1      -7.228   4.394  67.070  1.00  0.00    -0.069 C  
HETATM   26  O   UNL     1      -6.100   4.054  67.407  1.00  0.00    -0.027 OA 
ENDBRANCH  16  17
ENDBRANCH  15  16
ENDBRANCH  14  15
ENDBRANCH  11  14
ENDBRANCH   6   8
TORSDOF 5
ENDMDL
MODEL      231
REMARK 921   NORMALIZED FREE ENERGY PREDICTED BY IDOCK:   -3.53 KCAL/MOL
REMARK 922        TOTAL FREE ENERGY PREDICTED BY IDOCK:   -5.19 KCAL/MOL
REMARK 923 INTER-LIGAND FREE ENERGY PREDICTED BY IDOCK:   -4.55 KCAL/MOL
REMARK 924 INTRA-LIGAND FREE ENERGY PREDICTED BY IDOCK:   -0.64 KCAL/MOL
REMARK 927      BINDING AFFINITY PREDICTED BY RF-SCORE:    0.00 PKD
ROOT
HETATM    1 CL   UNL     1      -9.952  13.065  66.805  1.00  0.00    -0.239 Cl 
HETATM    2  C   UNL     1      -8.990  12.122  67.878  1.00  0.00    -0.184 A  
HETATM    3  C   UNL     1      -7.621  12.350  67.954  1.00  0.00    -0.130 A  
HETATM    4  C   UNL     1      -6.852  11.579  68.818  1.00  0.00    -0.084 A  
HETATM    5  C   UNL     1      -7.457  10.576  69.584  1.00  0.00    -0.145 A  
HETATM    6  C   UNL     1      -8.832  10.309  69.505  1.00  0.00    -0.148 A  
HETATM    7  C   UNL     1      -9.589  11.121  68.646  1.00  0.00    -0.200 A  
ENDROOT
BRANCH   6   8
HETATM    8  N   UNL     1      -9.383   9.234  70.180  1.00  0.00    -0.209 NA 
HETATM    9  C   UNL     1      -8.923   8.874  71.529  1.00  0.00    -0.205 C  
HETATM   10  C   UNL     1     -10.109   8.322  72.353  1.00  0.00    -0.312 C  
HETATM   11  N   UNL     1     -10.831   7.186  71.727  1.00  0.00    -0.224 NA 
HETATM   12  C   UNL     1     -10.134   8.185  69.470  1.00  0.00    -0.193 C  
HETATM   13  C   UNL     1     -11.264   7.630  70.375  1.00  0.00    -0.244 C  
BRANCH  11  14
HETATM   14  C   UNL     1     -10.016   5.963  71.638  1.00  0.00    -0.175 C  
BRANCH  14  15
HETATM   15  C   UNL     1     -10.510   4.991  70.564  1.00  0.00    -0.230 C  
BRANCH  15  16
HETATM   16  C   UNL     1      -9.436   3.961  70.227  1.00  0.00    -0.185 C  
BRANCH  16  17
HETATM   17  N   UNL     1      -9.218   3.885  68.803  1.00  0.00    -0.139 N  
HETATM   18  N   UNL     1      -9.094   5.011  68.010  1.00  0.00    -0.112 NA 
HETATM   19  C   UNL     1      -9.093   4.531  66.805  1.00  0.00    -0.124 A  
HETATM   20  C   UNL     1      -8.969   5.284  65.538  1.00  0.00    -0.158 A  
HETATM   21  C   UNL     1      -9.000   4.585  64.390  1.00  0.00    -0.152 A  
HETATM   22  C   UNL     1      -9.159   3.142  64.388  1.00  0.00    -0.123 A  
HETATM   23  C   UNL     1      -9.273   2.478  65.549  1.00  0.00    -0.081 A  
HETATM   24  N   UNL     1      -9.228   3.182  66.719  1.00  0.00    -0.167 N  
HETATM   25  C   UNL     1      -9.342   2.728  68.012  1.00  0.00    -0.204 C  
HETATM   26  O   UNL     1      -9.540   1.583  68.399  1.00  0.00    -0.189 OA 
ENDBRANCH  16  17
ENDBRANCH  15  16
ENDBRANCH  14  15
ENDBRANCH  11  14
ENDBRANCH   6   8
TORSDOF 5
ENDMDL
MODEL      232
REMARK 921   NORMALIZED FREE ENERGY PREDICTED BY IDOCK:   -3.46 KCAL/MOL
REMARK 922        TOTAL FREE ENERGY PREDICTED BY IDOCK:   -5.10 KCAL/MOL
REMARK 923 INTER-LIGAND FREE ENERGY PREDICTED BY IDOCK:   -3.98 KCAL/MOL
REMARK 924 INTRA-LIGAND FREE ENERGY PREDICTED BY IDOCK:   -1.12 KCAL/MOL
REMARK 927      BINDING AFFINITY PREDICTED BY RF-SCORE:    0.00 PKD
ROOT
HETATM    1 CL   UNL     1     -10.729   2.094  63.538  1.00  0.00    -0.168 Cl 
HETATM    2  C   UNL     1      -9.857   3.521  63.950  1.00  0.00    -0.171 A  
HETATM    3  C   UNL     1      -9.090   4.161  62.985  1.00  0.00    -0.121 A  
HETATM    4  C   UNL     1      -8.384   5.308  63.330  1.00  0.00    -0.115 A  
HETATM    5  C   UNL     1      -8.440   5.794  64.641  1.00  0.00    -0.061 A  
HETATM    6  C   UNL     1      -9.187   5.150  65.640  1.00  0.00    -0.151 A  
HETATM    7  C   UNL     1      -9.912   4.011  65.257  1.00  0.00    -0.193 A  
ENDROOT
BRANCH   6   8
HETATM    8  N   UNL     1      -9.128   5.580  66.954  1.00  0.00    -0.114 NA 
HETATM    9  C   UNL     1      -9.886   6.760  67.397  1.00  0.00    -0.137 C  
HETATM   10  C   UNL     1     -10.354   6.559  68.856  1.00  0.00    -0.196 C  
HETATM   11  N   UNL     1      -9.274   6.239  69.823  1.00  0.00    -0.145 NA 
HETATM   12  C   UNL     1      -8.040   5.158  67.852  1.00  0.00    -0.098 C  
HETATM   13  C   UNL     1      -8.562   5.039  69.307  1.00  0.00    -0.088 C  
BRANCH  11  14
HETATM   14  C   UNL     1      -8.335   7.354  70.028  1.00  0.00    -0.137 C  
BRANCH  14  15
HETATM   15  C   UNL     1      -8.998   8.591  70.638  1.00  0.00    -0.182 C  
BRANCH  15  16
HETATM   16  C   UNL     1      -8.431   9.869  70.027  1.00  0.00    -0.165 C  
BRANCH  16  17
HETATM   17  N   UNL     1      -8.574   9.867  68.592  1.00  0.00    -0.116 N  
HETATM   18  N   UNL     1      -7.497   9.722  67.739  1.00  0.00    -0.090 NA 
HETATM   19  C   UNL     1      -8.007   9.951  66.568  1.00  0.00    -0.110 A  
HETATM   20  C   UNL     1      -7.312   9.918  65.263  1.00  0.00    -0.131 A  
HETATM   21  C   UNL     1      -8.034  10.197  64.163  1.00  0.00    -0.154 A  
HETATM   22  C   UNL     1      -9.445  10.529  64.250  1.00  0.00    -0.337 A  
HETATM   23  C   UNL     1     -10.056  10.556  65.445  1.00  0.00    -0.291 A  
HETATM   24  N   UNL     1      -9.330  10.259  66.564  1.00  0.00    -0.163 N  
HETATM   25  C   UNL     1      -9.728  10.242  67.880  1.00  0.00    -0.145 C  
HETATM   26  O   UNL     1     -10.828  10.520  68.343  1.00  0.00    -0.206 OA 
ENDBRANCH  16  17
ENDBRANCH  15  16
ENDBRANCH  14  15
ENDBRANCH  11  14
ENDBRANCH   6   8
TORSDOF 5
ENDMDL
MODEL      233
REMARK 921   NORMALIZED FREE ENERGY PREDICTED BY IDOCK:   -3.42 KCAL/MOL
REMARK 922        TOTAL FREE ENERGY PREDICTED BY IDOCK:   -5.06 KCAL/MOL
REMARK 923 INTER-LIGAND FREE ENERGY PREDICTED BY IDOCK:   -4.67 KCAL/MOL
REMARK 924 INTRA-LIGAND FREE ENERGY PREDICTED BY IDOCK:   -0.39 KCAL/MOL
REMARK 927      BINDING AFFINITY PREDICTED BY RF-SCORE:    0.00 PKD
ROOT
HETATM    1 CL   UNL     1     -12.873  13.135  64.930  1.00  0.00    -0.416 Cl 
HETATM    2  C   UNL     1     -11.529  12.060  64.988  1.00  0.00    -0.286 A  
HETATM    3  C   UNL     1     -10.984  11.575  63.806  1.00  0.00    -0.485 A  
HETATM    4  C   UNL     1      -9.903  10.702  63.864  1.00  0.00    -0.398 A  
HETATM    5  C   UNL     1      -9.389  10.310  65.105  1.00  0.00    -0.279 A  
HETATM    6  C   UNL     1      -9.938  10.766  66.314  1.00  0.00    -0.222 A  
HETATM    7  C   UNL     1     -11.010  11.667  66.225  1.00  0.00    -0.338 A  
ENDROOT
BRANCH   6   8
HETATM    8  N   UNL     1      -9.491  10.269  67.525  1.00  0.00    -0.151 NA 
HETATM    9  C   UNL     1      -8.056  10.242  67.845  1.00  0.00    -0.102 C  
HETATM   10  C   UNL     1      -7.857  10.482  69.360  1.00  0.00    -0.147 C  
HETATM   11  N   UNL     1      -8.608   9.557  70.245  1.00  0.00    -0.215 NA 
HETATM   12  C   UNL     1     -10.338   9.400  68.359  1.00  0.00    -0.205 C  
HETATM   13  C   UNL     1     -10.042   9.646  69.861  1.00  0.00    -0.246 C  
BRANCH  11  14
HETATM   14  C   UNL     1      -8.131   8.167  70.163  1.00  0.00    -0.113 C  
BRANCH  14  15
HETATM   15  C   UNL     1      -6.697   8.055  69.641  1.00  0.00    -0.038 C  
BRANCH  15  16
HETATM   16  C   UNL     1      -6.088   6.705  70.009  1.00  0.00    -0.027 C  
BRANCH  16  17
HETATM   17  N   UNL     1      -6.753   5.628  69.316  1.00  0.00    -0.057 N  
HETATM   18  N   UNL     1      -6.912   5.616  67.943  1.00  0.00    -0.064 NA 
HETATM   19  C   UNL     1      -7.695   4.602  67.741  1.00  0.00    -0.082 A  
HETATM   20  C   UNL     1      -8.196   4.099  66.443  1.00  0.00    -0.101 A  
HETATM   21  C   UNL     1      -9.010   3.029  66.460  1.00  0.00    -0.164 A  
HETATM   22  C   UNL     1      -9.396   2.392  67.707  1.00  0.00    -0.215 A  
HETATM   23  C   UNL     1      -8.932   2.867  68.874  1.00  0.00    -0.130 A  
HETATM   24  N   UNL     1      -8.093   3.945  68.861  1.00  0.00    -0.069 N  
HETATM   25  C   UNL     1      -7.516   4.611  69.917  1.00  0.00    -0.054 C  
HETATM   26  O   UNL     1      -7.654   4.396  71.115  1.00  0.00    -0.063 OA 
ENDBRANCH  16  17
ENDBRANCH  15  16
ENDBRANCH  14  15
ENDBRANCH  11  14
ENDBRANCH   6   8
TORSDOF 5
ENDMDL
MODEL      234
REMARK 921   NORMALIZED FREE ENERGY PREDICTED BY IDOCK:   -3.41 KCAL/MOL
REMARK 922        TOTAL FREE ENERGY PREDICTED BY IDOCK:   -5.05 KCAL/MOL
REMARK 923 INTER-LIGAND FREE ENERGY PREDICTED BY IDOCK:   -4.48 KCAL/MOL
REMARK 924 INTRA-LIGAND FREE ENERGY PREDICTED BY IDOCK:   -0.56 KCAL/MOL
REMARK 927      BINDING AFFINITY PREDICTED BY RF-SCORE:    0.00 PKD
ROOT
HETATM    1 CL   UNL     1      -7.828   6.879  63.861  1.00  0.00    -0.120 Cl 
HETATM    2  C   UNL     1      -8.258   8.213  64.863  1.00  0.00    -0.147 A  
HETATM    3  C   UNL     1      -8.170   9.505  64.362  1.00  0.00    -0.148 A  
HETATM    4  C   UNL     1      -8.515  10.575  65.181  1.00  0.00    -0.170 A  
HETATM    5  C   UNL     1      -8.926  10.341  66.497  1.00  0.00    -0.161 A  
HETATM    6  C   UNL     1      -8.998   9.046  67.034  1.00  0.00    -0.126 A  
HETATM    7  C   UNL     1      -8.673   7.984  66.177  1.00  0.00    -0.177 A  
ENDROOT
BRANCH   6   8
HETATM    8  N   UNL     1      -9.290   8.852  68.372  1.00  0.00    -0.136 NA 
HETATM    9  C   UNL     1      -8.569   7.844  69.164  1.00  0.00    -0.138 C  
HETATM   10  C   UNL     1      -8.409   8.343  70.619  1.00  0.00    -0.125 C  
HETATM   11  N   UNL     1      -9.674   8.727  71.292  1.00  0.00    -0.238 NA 
HETATM   12  C   UNL     1     -10.556   9.324  68.959  1.00  0.00    -0.205 C  
HETATM   13  C   UNL     1     -10.337   9.746  70.435  1.00  0.00    -0.293 C  
BRANCH  11  14
HETATM   14  C   UNL     1     -10.571   7.585  71.532  1.00  0.00    -0.212 C  
BRANCH  14  15
HETATM   15  C   UNL     1     -11.150   7.565  72.948  1.00  0.00    -0.426 C  
BRANCH  15  16
HETATM   16  C   UNL     1     -10.169   6.931  73.929  1.00  0.00    -0.367 C  
BRANCH  16  17
HETATM   17  N   UNL     1      -9.761   5.620  73.483  1.00  0.00    -0.150 N  
HETATM   18  N   UNL     1      -8.526   5.383  72.910  1.00  0.00    -0.119 NA 
HETATM   19  C   UNL     1      -8.618   4.157  72.494  1.00  0.00    -0.104 A  
HETATM   20  C   UNL     1      -7.578   3.361  71.809  1.00  0.00    -0.053 A  
HETATM   21  C   UNL     1      -7.888   2.101  71.453  1.00  0.00    -0.040 A  
HETATM   22  C   UNL     1      -9.201   1.542  71.721  1.00  0.00    -0.140 A  
HETATM   23  C   UNL     1     -10.132   2.284  72.341  1.00  0.00    -0.157 A  
HETATM   24  N   UNL     1      -9.817   3.559  72.718  1.00  0.00    -0.139 N  
HETATM   25  C   UNL     1     -10.602   4.502  73.339  1.00  0.00    -0.225 C  
HETATM   26  O   UNL     1     -11.778   4.411  73.669  1.00  0.00    -0.168 OA 
ENDBRANCH  16  17
ENDBRANCH  15  16
ENDBRANCH  14  15
ENDBRANCH  11  14
ENDBRANCH   6   8
TORSDOF 5
ENDMDL
MODEL      235
REMARK 921   NORMALIZED FREE ENERGY PREDICTED BY IDOCK:   -3.36 KCAL/MOL
REMARK 922        TOTAL FREE ENERGY PREDICTED BY IDOCK:   -4.97 KCAL/MOL
REMARK 923 INTER-LIGAND FREE ENERGY PREDICTED BY IDOCK:   -4.80 KCAL/MOL
REMARK 924 INTRA-LIGAND FREE ENERGY PREDICTED BY IDOCK:   -0.17 KCAL/MOL
REMARK 927      BINDING AFFINITY PREDICTED BY RF-SCORE:    0.00 PKD
ROOT
HETATM    1 CL   UNL     1      -8.998  17.560  66.907  1.00  0.00    -0.253 Cl 
HETATM    2  C   UNL     1      -9.806  16.350  65.986  1.00  0.00    -0.335 A  
HETATM    3  C   UNL     1     -10.799  16.719  65.088  1.00  0.00    -0.150 A  
HETATM    4  C   UNL     1     -11.449  15.734  64.353  1.00  0.00    -0.268 A  
HETATM    5  C   UNL     1     -11.112  14.388  64.538  1.00  0.00    -0.301 A  
HETATM    6  C   UNL     1     -10.130  13.989  65.459  1.00  0.00    -0.320 A  
HETATM    7  C   UNL     1      -9.470  15.006  66.165  1.00  0.00    -0.347 A  
ENDROOT
BRANCH   6   8
HETATM    8  N   UNL     1      -9.902  12.648  65.710  1.00  0.00    -0.255 NA 
HETATM    9  C   UNL     1     -10.007  11.650  64.635  1.00  0.00    -0.253 C  
HETATM   10  C   UNL     1      -8.971  10.525  64.868  1.00  0.00    -0.199 C  
HETATM   11  N   UNL     1      -9.046   9.870  66.197  1.00  0.00    -0.152 NA 
HETATM   12  C   UNL     1      -9.943  12.105  67.079  1.00  0.00    -0.202 C  
HETATM   13  C   UNL     1      -8.929  10.941  67.224  1.00  0.00    -0.137 C  
BRANCH  11  14
HETATM   14  C   UNL     1     -10.282   9.095  66.391  1.00  0.00    -0.230 C  
BRANCH  14  15
HETATM   15  C   UNL     1     -10.352   8.408  67.756  1.00  0.00    -0.297 C  
BRANCH  15  16
HETATM   16  C   UNL     1      -8.956   8.046  68.255  1.00  0.00    -0.132 C  
BRANCH  16  17
HETATM   17  N   UNL     1      -8.638   6.671  67.956  1.00  0.00    -0.119 N  
HETATM   18  N   UNL     1      -9.563   5.652  68.081  1.00  0.00    -0.111 NA 
HETATM   19  C   UNL     1      -8.855   4.579  67.901  1.00  0.00    -0.107 A  
HETATM   20  C   UNL     1      -9.328   3.179  67.909  1.00  0.00    -0.252 A  
HETATM   21  C   UNL     1      -8.417   2.210  67.707  1.00  0.00    -0.091 A  
HETATM   22  C   UNL     1      -7.015   2.523  67.498  1.00  0.00    -0.048 A  
HETATM   23  C   UNL     1      -6.606   3.802  67.497  1.00  0.00    -0.042 A  
HETATM   24  N   UNL     1      -7.530   4.790  67.688  1.00  0.00    -0.078 N  
HETATM   25  C   UNL     1      -7.347   6.151  67.746  1.00  0.00    -0.084 C  
HETATM   26  O   UNL     1      -6.298   6.780  67.669  1.00  0.00    -0.040 OA 
ENDBRANCH  16  17
ENDBRANCH  15  16
ENDBRANCH  14  15
ENDBRANCH  11  14
ENDBRANCH   6   8
TORSDOF 5
ENDMDL
MODEL      236
REMARK 921   NORMALIZED FREE ENERGY PREDICTED BY IDOCK:   -3.35 KCAL/MOL
REMARK 922        TOTAL FREE ENERGY PREDICTED BY IDOCK:   -4.96 KCAL/MOL
REMARK 923 INTER-LIGAND FREE ENERGY PREDICTED BY IDOCK:   -3.92 KCAL/MOL
REMARK 924 INTRA-LIGAND FREE ENERGY PREDICTED BY IDOCK:   -1.04 KCAL/MOL
REMARK 927      BINDING AFFINITY PREDICTED BY RF-SCORE:    0.00 PKD
ROOT
HETATM    1 CL   UNL     1      -7.636  13.392  67.347  1.00  0.00    -0.162 Cl 
HETATM    2  C   UNL     1      -8.005  11.736  67.645  1.00  0.00    -0.143 A  
HETATM    3  C   UNL     1      -8.439  11.345  68.905  1.00  0.00    -0.028 A  
HETATM    4  C   UNL     1      -8.729  10.005  69.137  1.00  0.00    -0.168 A  
HETATM    5  C   UNL     1      -8.564   9.068  68.111  1.00  0.00    -0.130 A  
HETATM    6  C   UNL     1      -8.101   9.435  66.838  1.00  0.00    -0.109 A  
HETATM    7  C   UNL     1      -7.844  10.797  66.623  1.00  0.00    -0.140 A  
ENDROOT
BRANCH   6   8
HETATM    8  N   UNL     1      -7.831   8.473  65.880  1.00  0.00    -0.096 NA 
HETATM    9  C   UNL     1      -8.466   8.529  64.555  1.00  0.00    -0.090 C  
HETATM   10  C   UNL     1      -7.485   7.992  63.486  1.00  0.00    -0.122 C  
HETATM   11  N   UNL     1      -6.950   6.634  63.753  1.00  0.00    -0.049 NA 
HETATM   12  C   UNL     1      -7.245   7.172  66.243  1.00  0.00    -0.075 C  
HETATM   13  C   UNL     1      -6.325   6.663  65.102  1.00  0.00    -0.042 C  
BRANCH  11  14
HETATM   14  C   UNL     1      -7.979   5.583  63.677  1.00  0.00    -0.108 C  
BRANCH  14  15
HETATM   15  C   UNL     1      -7.616   4.331  64.477  1.00  0.00    -0.073 C  
BRANCH  15  16
HETATM   16  C   UNL     1      -8.866   3.532  64.834  1.00  0.00    -0.122 C  
BRANCH  16  17
HETATM   17  N   UNL     1      -9.400   3.945  66.109  1.00  0.00    -0.164 N  
HETATM   18  N   UNL     1     -10.238   5.035  66.245  1.00  0.00    -0.249 NA 
HETATM   19  C   UNL     1     -10.343   5.176  67.531  1.00  0.00    -0.128 A  
HETATM   20  C   UNL     1     -11.138   6.186  68.262  1.00  0.00    -0.336 A  
HETATM   21  C   UNL     1     -11.100   6.158  69.606  1.00  0.00    -0.489 A  
HETATM   22  C   UNL     1     -10.299   5.178  70.319  1.00  0.00    -0.331 A  
HETATM   23  C   UNL     1      -9.583   4.272  69.635  1.00  0.00    -0.205 A  
HETATM   24  N   UNL     1      -9.630   4.287  68.270  1.00  0.00    -0.153 N  
HETATM   25  C   UNL     1      -8.975   3.482  67.368  1.00  0.00    -0.146 C  
HETATM   26  O   UNL     1      -8.174   2.583  67.596  1.00  0.00    -0.067 OA 
ENDBRANCH  16  17
ENDBRANCH  15  16
ENDBRANCH  14  15
ENDBRANCH  11  14
ENDBRANCH   6   8
TORSDOF 5
ENDMDL
MODEL      237
REMARK 921   NORMALIZED FREE ENERGY PREDICTED BY IDOCK:   -3.33 KCAL/MOL
REMARK 922        TOTAL FREE ENERGY PREDICTED BY IDOCK:   -4.94 KCAL/MOL
REMARK 923 INTER-LIGAND FREE ENERGY PREDICTED BY IDOCK:   -5.13 KCAL/MOL
REMARK 924 INTRA-LIGAND FREE ENERGY PREDICTED BY IDOCK:    0.19 KCAL/MOL
REMARK 927      BINDING AFFINITY PREDICTED BY RF-SCORE:    0.00 PKD
ROOT
HETATM    1 CL   UNL     1     -13.630  11.180  72.214  1.00  0.00    -0.176 Cl 
HETATM    2  C   UNL     1     -13.010   9.669  71.668  1.00  0.00    -0.407 A  
HETATM    3  C   UNL     1     -13.477   8.489  72.232  1.00  0.00    -0.362 A  
HETATM    4  C   UNL     1     -12.966   7.275  71.788  1.00  0.00    -0.368 A  
HETATM    5  C   UNL     1     -11.979   7.255  70.796  1.00  0.00    -0.311 A  
HETATM    6  C   UNL     1     -11.472   8.434  70.229  1.00  0.00    -0.062 A  
HETATM    7  C   UNL     1     -12.026   9.643  70.675  1.00  0.00    -0.304 A  
ENDROOT
BRANCH   6   8
HETATM    8  N   UNL     1     -10.413   8.392  69.340  1.00  0.00    -0.220 NA 
HETATM    9  C   UNL     1      -9.023   8.387  69.821  1.00  0.00    -0.146 C  
HETATM   10  C   UNL     1      -8.149   7.532  68.875  1.00  0.00    -0.127 C  
HETATM   11  N   UNL     1      -8.205   7.923  67.445  1.00  0.00    -0.122 NA 
HETATM   12  C   UNL     1     -10.586   8.747  67.921  1.00  0.00    -0.174 C  
HETATM   13  C   UNL     1      -9.635   7.899  67.037  1.00  0.00    -0.192 C  
BRANCH  11  14
HETATM   14  C   UNL     1      -7.610   9.244  67.184  1.00  0.00    -0.091 C  
BRANCH  14  15
HETATM   15  C   UNL     1      -7.746   9.686  65.726  1.00  0.00    -0.106 C  
BRANCH  15  16
HETATM   16  C   UNL     1      -8.964  10.586  65.541  1.00  0.00    -0.183 C  
BRANCH  16  17
HETATM   17  N   UNL     1      -8.749  11.881  66.140  1.00  0.00    -0.079 N  
HETATM   18  N   UNL     1      -7.678  12.143  66.974  1.00  0.00    -0.145 NA 
HETATM   19  C   UNL     1      -7.938  13.328  67.434  1.00  0.00    -0.170 A  
HETATM   20  C   UNL     1      -7.120  14.128  68.370  1.00  0.00    -0.104 A  
HETATM   21  C   UNL     1      -7.583  15.339  68.727  1.00  0.00    -0.139 A  
HETATM   22  C   UNL     1      -8.847  15.844  68.223  1.00  0.00    -0.179 A  
HETATM   23  C   UNL     1      -9.577  15.099  67.376  1.00  0.00    -0.208 A  
HETATM   24  N   UNL     1      -9.104  13.874  66.999  1.00  0.00    -0.241 N  
HETATM   25  C   UNL     1      -9.676  12.938  66.170  1.00  0.00    -0.248 C  
HETATM   26  O   UNL     1     -10.762  12.988  65.605  1.00  0.00    -0.270 OA 
ENDBRANCH  16  17
ENDBRANCH  15  16
ENDBRANCH  14  15
ENDBRANCH  11  14
ENDBRANCH   6   8
TORSDOF 5
ENDMDL
MODEL      238
REMARK 921   NORMALIZED FREE ENERGY PREDICTED BY IDOCK:   -3.32 KCAL/MOL
REMARK 922        TOTAL FREE ENERGY PREDICTED BY IDOCK:   -4.92 KCAL/MOL
REMARK 923 INTER-LIGAND FREE ENERGY PREDICTED BY IDOCK:   -4.43 KCAL/MOL
REMARK 924 INTRA-LIGAND FREE ENERGY PREDICTED BY IDOCK:   -0.49 KCAL/MOL
REMARK 927      BINDING AFFINITY PREDICTED BY RF-SCORE:    0.00 PKD
ROOT
HETATM    1 CL   UNL     1      -9.515   4.150  66.513  1.00  0.00    -0.184 Cl 
HETATM    2  C   UNL     1      -8.457   5.392  67.064  1.00  0.00    -0.106 A  
HETATM    3  C   UNL     1      -7.294   5.053  67.745  1.00  0.00    -0.075 A  
HETATM    4  C   UNL     1      -6.450   6.064  68.191  1.00  0.00    -0.046 A  
HETATM    5  C   UNL     1      -6.786   7.403  67.967  1.00  0.00    -0.070 A  
HETATM    6  C   UNL     1      -7.968   7.772  67.304  1.00  0.00    -0.118 A  
HETATM    7  C   UNL     1      -8.786   6.731  66.840  1.00  0.00    -0.120 A  
ENDROOT
BRANCH   6   8
HETATM    8  N   UNL     1      -8.335   9.101  67.203  1.00  0.00    -0.116 NA 
HETATM    9  C   UNL     1      -9.742   9.508  67.342  1.00  0.00    -0.157 C  
HETATM   10  C   UNL     1      -9.817  10.895  68.021  1.00  0.00    -0.171 C  
HETATM   11  N   UNL     1      -9.028  11.962  67.357  1.00  0.00    -0.167 NA 
HETATM   12  C   UNL     1      -7.452  10.097  66.573  1.00  0.00    -0.109 C  
HETATM   13  C   UNL     1      -7.625  11.477  67.259  1.00  0.00    -0.143 C  
BRANCH  11  14
HETATM   14  C   UNL     1      -9.549  12.322  66.028  1.00  0.00    -0.222 C  
BRANCH  14  15
HETATM   15  C   UNL     1      -9.946  13.796  65.919  1.00  0.00    -0.308 C  
BRANCH  15  16
HETATM   16  C   UNL     1      -9.554  14.560  67.180  1.00  0.00    -0.231 C  
BRANCH  16  17
HETATM   17  N   UNL     1      -8.538  15.544  66.897  1.00  0.00    -0.234 N  
HETATM   18  N   UNL     1      -7.354  15.614  67.608  1.00  0.00    -0.150 NA 
HETATM   19  C   UNL     1      -6.812  16.712  67.181  1.00  0.00    -0.188 A  
HETATM   20  C   UNL     1      -5.512  17.289  67.587  1.00  0.00    -0.133 A  
HETATM   21  C   UNL     1      -5.140  18.450  67.021  1.00  0.00    -0.137 A  
HETATM   22  C   UNL     1      -5.985  19.124  66.052  1.00  0.00    -0.191 A  
HETATM   23  C   UNL     1      -7.163  18.585  65.700  1.00  0.00    -0.119 A  
HETATM   24  N   UNL     1      -7.539  17.397  66.261  1.00  0.00    -0.298 N  
HETATM   25  C   UNL     1      -8.693  16.673  66.073  1.00  0.00    -0.204 C  
HETATM   26  O   UNL     1      -9.659  16.954  65.374  1.00  0.00    -0.434 OA 
ENDBRANCH  16  17
ENDBRANCH  15  16
ENDBRANCH  14  15
ENDBRANCH  11  14
ENDBRANCH   6   8
TORSDOF 5
ENDMDL
MODEL      239
REMARK 921   NORMALIZED FREE ENERGY PREDICTED BY IDOCK:   -3.28 KCAL/MOL
REMARK 922        TOTAL FREE ENERGY PREDICTED BY IDOCK:   -4.87 KCAL/MOL
REMARK 923 INTER-LIGAND FREE ENERGY PREDICTED BY IDOCK:   -4.32 KCAL/MOL
REMARK 924 INTRA-LIGAND FREE ENERGY PREDICTED BY IDOCK:   -0.55 KCAL/MOL
REMARK 927      BINDING AFFINITY PREDICTED BY RF-SCORE:    0.00 PKD
ROOT
HETATM    1 CL   UNL     1      -6.297   2.950  65.973  1.00  0.00    -0.027 Cl 
HETATM    2  C   UNL     1      -7.554   3.413  67.055  1.00  0.00    -0.079 A  
HETATM    3  C   UNL     1      -8.355   2.438  67.637  1.00  0.00    -0.084 A  
HETATM    4  C   UNL     1      -9.371   2.823  68.504  1.00  0.00    -0.249 A  
HETATM    5  C   UNL     1      -9.587   4.181  68.767  1.00  0.00    -0.210 A  
HETATM    6  C   UNL     1      -8.808   5.185  68.172  1.00  0.00    -0.102 A  
HETATM    7  C   UNL     1      -7.772   4.767  67.324  1.00  0.00    -0.091 A  
ENDROOT
BRANCH   6   8
HETATM    8  N   UNL     1      -9.119   6.521  68.354  1.00  0.00    -0.124 NA 
HETATM    9  C   UNL     1     -10.445   7.043  67.990  1.00  0.00    -0.208 C  
HETATM   10  C   UNL     1     -10.850   8.165  68.974  1.00  0.00     0.010 C  
HETATM   11  N   UNL     1      -9.869   9.272  69.100  1.00  0.00    -0.162 NA 
HETATM   12  C   UNL     1      -8.068   7.538  68.527  1.00  0.00    -0.125 C  
HETATM   13  C   UNL     1      -8.563   8.664  69.472  1.00  0.00    -0.131 C  
BRANCH  11  14
HETATM   14  C   UNL     1      -9.740  10.072  67.871  1.00  0.00    -0.146 C  
BRANCH  14  15
HETATM   15  C   UNL     1     -10.958  10.959  67.603  1.00  0.00    -0.350 C  
BRANCH  15  16
HETATM   16  C   UNL     1     -10.549  12.424  67.484  1.00  0.00    -0.219 C  
BRANCH  16  17
HETATM   17  N   UNL     1     -11.064  13.199  68.586  1.00  0.00    -0.257 N  
HETATM   18  N   UNL     1     -11.172  12.688  69.866  1.00  0.00     0.055 NA 
HETATM   19  C   UNL     1     -11.830  13.608  70.502  1.00  0.00    -0.203 A  
HETATM   20  C   UNL     1     -12.224  13.607  71.927  1.00  0.00     0.164 A  
HETATM   21  C   UNL     1     -12.914  14.666  72.385  1.00  0.00    -0.453 A  
HETATM   22  C   UNL     1     -13.272  15.770  71.513  1.00  0.00    -0.434 A  
HETATM   23  C   UNL     1     -12.906  15.749  70.221  1.00  0.00     0.041 A  
HETATM   24  N   UNL     1     -12.192  14.682  69.754  1.00  0.00    -0.315 N  
HETATM   25  C   UNL     1     -11.731  14.433  68.483  1.00  0.00    -0.335 C  
HETATM   26  O   UNL     1     -11.887  15.110  67.474  1.00  0.00    -0.283 OA 
ENDBRANCH  16  17
ENDBRANCH  15  16
ENDBRANCH  14  15
ENDBRANCH  11  14
ENDBRANCH   6   8
TORSDOF 5
ENDMDL
MODEL      240
REMARK 921   NORMALIZED FREE ENERGY PREDICTED BY IDOCK:   -3.25 KCAL/MOL
REMARK 922        TOTAL FREE ENERGY PREDICTED BY IDOCK:   -4.84 KCAL/MOL
REMARK 923 INTER-LIGAND FREE ENERGY PREDICTED BY IDOCK:   -5.01 KCAL/MOL
REMARK 924 INTRA-LIGAND FREE ENERGY PREDICTED BY IDOCK:    0.18 KCAL/MOL
REMARK 927      BINDING AFFINITY PREDICTED BY RF-SCORE:    0.00 PKD
ROOT
HETATM    1 CL   UNL     1     -12.385  13.062  64.210  1.00  0.00    -0.445 Cl 
HETATM    2  C   UNL     1     -11.212  11.821  64.432  1.00  0.00    -0.316 A  
HETATM    3  C   UNL     1     -10.454  11.390  63.351  1.00  0.00    -0.452 A  
HETATM    4  C   UNL     1      -9.514  10.383  63.539  1.00  0.00    -0.356 A  
HETATM    5  C   UNL     1      -9.353   9.806  64.804  1.00  0.00    -0.327 A  
HETATM    6  C   UNL     1     -10.125  10.207  65.906  1.00  0.00    -0.254 A  
HETATM    7  C   UNL     1     -11.046  11.244  65.694  1.00  0.00    -0.141 A  
ENDROOT
BRANCH   6   8
HETATM    8  N   UNL     1     -10.032   9.539  67.114  1.00  0.00    -0.191 NA 
HETATM    9  C   UNL     1     -10.129  10.266  68.388  1.00  0.00    -0.159 C  
HETATM   10  C   UNL     1     -10.827   9.375  69.442  1.00  0.00    -0.189 C  
HETATM   11  N   UNL     1     -10.206   8.043  69.647  1.00  0.00    -0.203 NA 
HETATM   12  C   UNL     1      -9.448   8.190  67.201  1.00  0.00    -0.161 C  
HETATM   13  C   UNL     1     -10.149   7.375  68.319  1.00  0.00    -0.177 C  
BRANCH  11  14
HETATM   14  C   UNL     1      -8.866   8.117  70.252  1.00  0.00    -0.141 C  
BRANCH  14  15
HETATM   15  C   UNL     1      -8.873   8.736  71.651  1.00  0.00    -0.278 C  
BRANCH  15  16
HETATM   16  C   UNL     1      -8.987   7.656  72.723  1.00  0.00    -0.161 C  
BRANCH  16  17
HETATM   17  N   UNL     1      -8.804   6.341  72.157  1.00  0.00    -0.138 N  
HETATM   18  N   UNL     1      -9.750   5.341  72.284  1.00  0.00    -0.156 NA 
HETATM   19  C   UNL     1      -9.146   4.295  71.811  1.00  0.00    -0.123 A  
HETATM   20  C   UNL     1      -9.689   2.926  71.682  1.00  0.00    -0.226 A  
HETATM   21  C   UNL     1      -8.884   1.979  71.168  1.00  0.00    -0.119 A  
HETATM   22  C   UNL     1      -7.523   2.284  70.762  1.00  0.00    -0.033 A  
HETATM   23  C   UNL     1      -7.049   3.533  70.891  1.00  0.00    -0.033 A  
HETATM   24  N   UNL     1      -7.868   4.501  71.399  1.00  0.00    -0.084 N  
HETATM   25  C   UNL     1      -7.601   5.828  71.639  1.00  0.00    -0.099 C  
HETATM   26  O   UNL     1      -6.548   6.432  71.474  1.00  0.00    -0.052 OA 
ENDBRANCH  16  17
ENDBRANCH  15  16
ENDBRANCH  14  15
ENDBRANCH  11  14
ENDBRANCH   6   8
TORSDOF 5
ENDMDL
MODEL      241
REMARK 921   NORMALIZED FREE ENERGY PREDICTED BY IDOCK:   -3.20 KCAL/MOL
REMARK 922        TOTAL FREE ENERGY PREDICTED BY IDOCK:   -4.76 KCAL/MOL
REMARK 923 INTER-LIGAND FREE ENERGY PREDICTED BY IDOCK:   -4.30 KCAL/MOL
REMARK 924 INTRA-LIGAND FREE ENERGY PREDICTED BY IDOCK:   -0.46 KCAL/MOL
REMARK 927      BINDING AFFINITY PREDICTED BY RF-SCORE:    0.00 PKD
ROOT
HETATM    1 CL   UNL     1     -12.104  14.117  66.957  1.00  0.00    -0.470 Cl 
HETATM    2  C   UNL     1     -11.736  12.859  68.073  1.00  0.00    -0.356 A  
HETATM    3  C   UNL     1     -11.990  13.044  69.426  1.00  0.00    -0.338 A  
HETATM    4  C   UNL     1     -11.683  12.024  70.320  1.00  0.00    -0.267 A  
HETATM    5  C   UNL     1     -11.109  10.837  69.854  1.00  0.00    -0.339 A  
HETATM    6  C   UNL     1     -10.818  10.636  68.495  1.00  0.00    -0.233 A  
HETATM    7  C   UNL     1     -11.165  11.670  67.612  1.00  0.00    -0.345 A  
ENDROOT
BRANCH   6   8
HETATM    8  N   UNL     1     -10.141   9.505  68.077  1.00  0.00    -0.178 NA 
HETATM    9  C   UNL     1     -10.335   8.215  68.756  1.00  0.00    -0.202 C  
HETATM   10  C   UNL     1     -10.227   7.065  67.727  1.00  0.00    -0.180 C  
HETATM   11  N   UNL     1      -8.975   7.053  66.931  1.00  0.00    -0.122 NA 
HETATM   12  C   UNL     1      -8.934   9.598  67.238  1.00  0.00    -0.134 C  
HETATM   13  C   UNL     1      -8.855   8.383  66.277  1.00  0.00    -0.159 C  
BRANCH  11  14
HETATM   14  C   UNL     1      -7.780   6.759  67.738  1.00  0.00    -0.111 C  
BRANCH  14  15
HETATM   15  C   UNL     1      -7.225   5.353  67.498  1.00  0.00    -0.075 C  
BRANCH  15  16
HETATM   16  C   UNL     1      -6.305   4.929  68.639  1.00  0.00    -0.036 C  
BRANCH  16  17
HETATM   17  N   UNL     1      -6.648   5.610  69.864  1.00  0.00    -0.044 N  
HETATM   18  N   UNL     1      -5.743   6.391  70.556  1.00  0.00    -0.018 NA 
HETATM   19  C   UNL     1      -6.366   6.666  71.660  1.00  0.00    -0.042 A  
HETATM   20  C   UNL     1      -5.879   7.493  72.785  1.00  0.00    -0.040 A  
HETATM   21  C   UNL     1      -6.690   7.645  73.847  1.00  0.00    -0.096 A  
HETATM   22  C   UNL     1      -7.996   7.013  73.896  1.00  0.00    -0.126 A  
HETATM   23  C   UNL     1      -8.418   6.264  72.865  1.00  0.00    -0.118 A  
HETATM   24  N   UNL     1      -7.604   6.118  71.778  1.00  0.00    -0.095 N  
HETATM   25  C   UNL     1      -7.809   5.394  70.628  1.00  0.00    -0.090 C  
HETATM   26  O   UNL     1      -8.768   4.688  70.337  1.00  0.00    -0.087 OA 
ENDBRANCH  16  17
ENDBRANCH  15  16
ENDBRANCH  14  15
ENDBRANCH  11  14
ENDBRANCH   6   8
TORSDOF 5
ENDMDL
MODEL      242
REMARK 921   NORMALIZED FREE ENERGY PREDICTED BY IDOCK:   -3.06 KCAL/MOL
REMARK 922        TOTAL FREE ENERGY PREDICTED BY IDOCK:   -4.59 KCAL/MOL
REMARK 923 INTER-LIGAND FREE ENERGY PREDICTED BY IDOCK:   -4.15 KCAL/MOL
REMARK 924 INTRA-LIGAND FREE ENERGY PREDICTED BY IDOCK:   -0.45 KCAL/MOL
REMARK 927      BINDING AFFINITY PREDICTED BY RF-SCORE:    0.00 PKD
ROOT
HETATM    1 CL   UNL     1     -10.912  14.681  65.499  1.00  0.00    -0.324 Cl 
HETATM    2  C   UNL     1     -11.031  14.295  67.174  1.00  0.00    -0.302 A  
HETATM    3  C   UNL     1     -11.126  15.317  68.110  1.00  0.00    -0.309 A  
HETATM    4  C   UNL     1     -11.216  14.995  69.459  1.00  0.00    -0.294 A  
HETATM    5  C   UNL     1     -11.192  13.654  69.860  1.00  0.00    -0.023 A  
HETATM    6  C   UNL     1     -11.071  12.605  68.935  1.00  0.00    -0.259 A  
HETATM    7  C   UNL     1     -11.011  12.958  67.578  1.00  0.00    -0.283 A  
ENDROOT
BRANCH   6   8
HETATM    8  N   UNL     1     -10.927  11.298  69.364  1.00  0.00    -0.243 NA 
HETATM    9  C   UNL     1      -9.639  10.600  69.241  1.00  0.00    -0.144 C  
HETATM   10  C   UNL     1      -9.456   9.632  70.433  1.00  0.00    -0.222 C  
HETATM   11  N   UNL     1     -10.560   8.660  70.626  1.00  0.00    -0.204 NA 
HETATM   12  C   UNL     1     -12.096  10.429  69.582  1.00  0.00    -0.097 C  
HETATM   13  C   UNL     1     -11.820   9.442  70.746  1.00  0.00    -0.256 C  
BRANCH  11  14
HETATM   14  C   UNL     1     -10.659   7.675  69.537  1.00  0.00    -0.227 C  
BRANCH  14  15
HETATM   15  C   UNL     1      -9.305   7.088  69.134  1.00  0.00    -0.140 C  
BRANCH  15  16
HETATM   16  C   UNL     1      -9.253   6.818  67.633  1.00  0.00    -0.118 C  
BRANCH  16  17
HETATM   17  N   UNL     1      -8.256   7.640  66.991  1.00  0.00    -0.116 N  
HETATM   18  N   UNL     1      -8.203   9.010  67.162  1.00  0.00    -0.109 NA 
HETATM   19  C   UNL     1      -7.309   9.386  66.300  1.00  0.00    -0.096 A  
HETATM   20  C   UNL     1      -6.825  10.761  66.049  1.00  0.00    -0.107 A  
HETATM   21  C   UNL     1      -5.891  10.930  65.096  1.00  0.00     0.059 A  
HETATM   22  C   UNL     1      -5.380   9.807  64.331  1.00  0.00    -0.069 A  
HETATM   23  C   UNL     1      -5.835   8.567  64.573  1.00  0.00    -0.064 A  
HETATM   24  N   UNL     1      -6.773   8.388  65.549  1.00  0.00    -0.059 N  
HETATM   25  C   UNL     1      -7.395   7.231  65.957  1.00  0.00    -0.075 C  
HETATM   26  O   UNL     1      -7.261   6.100  65.507  1.00  0.00    -0.070 OA 
ENDBRANCH  16  17
ENDBRANCH  15  16
ENDBRANCH  14  15
ENDBRANCH  11  14
ENDBRANCH   6   8
TORSDOF 5
ENDMDL
MODEL      243
REMARK 921   NORMALIZED FREE ENERGY PREDICTED BY IDOCK:   -2.96 KCAL/MOL
REMARK 922        TOTAL FREE ENERGY PREDICTED BY IDOCK:   -4.46 KCAL/MOL
REMARK 923 INTER-LIGAND FREE ENERGY PREDICTED BY IDOCK:   -3.79 KCAL/MOL
REMARK 924 INTRA-LIGAND FREE ENERGY PREDICTED BY IDOCK:   -0.67 KCAL/MOL
REMARK 927      BINDING AFFINITY PREDICTED BY RF-SCORE:    0.00 PKD
ROOT
HETATM    1 CL   UNL     1     -12.100  15.465  69.991  1.00  0.00    -0.363 Cl 
HETATM    2  C   UNL     1     -11.556  14.417  68.736  1.00  0.00    -0.315 A  
HETATM    3  C   UNL     1     -12.133  14.497  67.475  1.00  0.00    -0.284 A  
HETATM    4  C   UNL     1     -11.692  13.643  66.472  1.00  0.00    -0.414 A  
HETATM    5  C   UNL     1     -10.690  12.704  66.745  1.00  0.00    -0.261 A  
HETATM    6  C   UNL     1     -10.111  12.586  68.018  1.00  0.00    -0.220 A  
HETATM    7  C   UNL     1     -10.555  13.480  69.004  1.00  0.00    -0.126 A  
ENDROOT
BRANCH   6   8
HETATM    8  N   UNL     1      -9.212  11.571  68.293  1.00  0.00    -0.181 NA 
HETATM    9  C   UNL     1      -7.796  11.694  67.915  1.00  0.00    -0.129 C  
HETATM   10  C   UNL     1      -6.913  10.985  68.967  1.00  0.00    -0.097 C  
HETATM   11  N   UNL     1      -7.263   9.566  69.225  1.00  0.00    -0.061 NA 
HETATM   12  C   UNL     1      -9.666  10.203  68.594  1.00  0.00    -0.163 C  
HETATM   13  C   UNL     1      -8.701   9.529  69.604  1.00  0.00    -0.182 C  
BRANCH  11  14
HETATM   14  C   UNL     1      -7.005   8.689  68.072  1.00  0.00    -0.075 C  
BRANCH  14  15
HETATM   15  C   UNL     1      -7.660   7.313  68.206  1.00  0.00    -0.118 C  
BRANCH  15  16
HETATM   16  C   UNL     1      -6.628   6.253  68.579  1.00  0.00    -0.059 C  
BRANCH  16  17
HETATM   17  N   UNL     1      -6.935   5.654  69.855  1.00  0.00    -0.060 N  
HETATM   18  N   UNL     1      -7.708   4.514  69.973  1.00  0.00    -0.056 NA 
HETATM   19  C   UNL     1      -7.896   4.409  71.252  1.00  0.00    -0.080 A  
HETATM   20  C   UNL     1      -8.648   3.355  71.966  1.00  0.00    -0.101 A  
HETATM   21  C   UNL     1      -8.726   3.441  73.306  1.00  0.00    -0.081 A  
HETATM   22  C   UNL     1      -8.104   4.535  74.030  1.00  0.00    -0.097 A  
HETATM   23  C   UNL     1      -7.428   5.484  73.362  1.00  0.00    -0.095 A  
HETATM   24  N   UNL     1      -7.334   5.393  72.002  1.00  0.00    -0.087 N  
HETATM   25  C   UNL     1      -6.720   6.243  71.114  1.00  0.00    -0.055 C  
HETATM   26  O   UNL     1      -6.141   7.297  71.350  1.00  0.00    -0.036 OA 
ENDBRANCH  16  17
ENDBRANCH  15  16
ENDBRANCH  14  15
ENDBRANCH  11  14
ENDBRANCH   6   8
TORSDOF 5
ENDMDL
MODEL      244
REMARK 921   NORMALIZED FREE ENERGY PREDICTED BY IDOCK:   -2.94 KCAL/MOL
REMARK 922        TOTAL FREE ENERGY PREDICTED BY IDOCK:   -4.43 KCAL/MOL
REMARK 923 INTER-LIGAND FREE ENERGY PREDICTED BY IDOCK:   -5.29 KCAL/MOL
REMARK 924 INTRA-LIGAND FREE ENERGY PREDICTED BY IDOCK:    0.86 KCAL/MOL
REMARK 927      BINDING AFFINITY PREDICTED BY RF-SCORE:    0.00 PKD
ROOT
HETATM    1 CL   UNL     1     -10.686  16.011  65.982  1.00  0.00    -0.302 Cl 
HETATM    2  C   UNL     1      -9.544  14.907  66.649  1.00  0.00    -0.266 A  
HETATM    3  C   UNL     1      -8.579  15.368  67.536  1.00  0.00    -0.187 A  
HETATM    4  C   UNL     1      -7.659  14.470  68.064  1.00  0.00    -0.138 A  
HETATM    5  C   UNL     1      -7.702  13.123  67.686  1.00  0.00    -0.168 A  
HETATM    6  C   UNL     1      -8.651  12.638  66.772  1.00  0.00    -0.098 A  
HETATM    7  C   UNL     1      -9.585  13.561  66.277  1.00  0.00    -0.245 A  
ENDROOT
BRANCH   6   8
HETATM    8  N   UNL     1      -8.596  11.331  66.323  1.00  0.00    -0.177 NA 
HETATM    9  C   UNL     1      -9.709  10.748  65.559  1.00  0.00    -0.239 C  
HETATM   10  C   UNL     1      -9.155   9.751  64.515  1.00  0.00    -0.249 C  
HETATM   11  N   UNL     1      -8.286   8.683  65.068  1.00  0.00    -0.149 NA 
HETATM   12  C   UNL     1      -7.653  10.359  66.903  1.00  0.00    -0.107 C  
HETATM   13  C   UNL     1      -7.190   9.352  65.819  1.00  0.00    -0.095 C  
BRANCH  11  14
HETATM   14  C   UNL     1      -9.011   7.739  65.934  1.00  0.00    -0.113 C  
BRANCH  14  15
HETATM   15  C   UNL     1     -10.040   8.423  66.836  1.00  0.00    -0.364 C  
BRANCH  15  16
HETATM   16  C   UNL     1     -10.780   7.399  67.692  1.00  0.00    -0.207 C  
BRANCH  16  17
HETATM   17  N   UNL     1     -10.511   7.602  69.094  1.00  0.00    -0.218 N  
HETATM   18  N   UNL     1      -9.289   8.051  69.558  1.00  0.00    -0.156 NA 
HETATM   19  C   UNL     1      -9.393   7.929  70.845  1.00  0.00    -0.153 A  
HETATM   20  C   UNL     1      -8.380   8.277  71.865  1.00  0.00    -0.206 A  
HETATM   21  C   UNL     1      -8.692   8.061  73.155  1.00  0.00    -0.300 A  
HETATM   22  C   UNL     1      -9.973   7.495  73.538  1.00  0.00    -0.371 A  
HETATM   23  C   UNL     1     -10.878   7.184  72.596  1.00  0.00    -0.279 A  
HETATM   24  N   UNL     1     -10.571   7.415  71.285  1.00  0.00    -0.216 N  
HETATM   25  C   UNL     1     -11.318   7.162  70.159  1.00  0.00    -0.241 C  
HETATM   26  O   UNL     1     -12.424   6.640  70.085  1.00  0.00    -0.049 OA 
ENDBRANCH  16  17
ENDBRANCH  15  16
ENDBRANCH  14  15
ENDBRANCH  11  14
ENDBRANCH   6   8
TORSDOF 5
ENDMDL
MODEL      245
REMARK 921   NORMALIZED FREE ENERGY PREDICTED BY IDOCK:   -2.93 KCAL/MOL
REMARK 922        TOTAL FREE ENERGY PREDICTED BY IDOCK:   -4.42 KCAL/MOL
REMARK 923 INTER-LIGAND FREE ENERGY PREDICTED BY IDOCK:   -4.04 KCAL/MOL
REMARK 924 INTRA-LIGAND FREE ENERGY PREDICTED BY IDOCK:   -0.39 KCAL/MOL
REMARK 927      BINDING AFFINITY PREDICTED BY RF-SCORE:    0.00 PKD
ROOT
HETATM    1 CL   UNL     1     -11.923  15.186  68.743  1.00  0.00    -0.316 Cl 
HETATM    2  C   UNL     1     -11.382  13.921  67.708  1.00  0.00    -0.308 A  
HETATM    3  C   UNL     1     -11.519  14.052  66.332  1.00  0.00    -0.361 A  
HETATM    4  C   UNL     1     -11.085  13.022  65.505  1.00  0.00    -0.300 A  
HETATM    5  C   UNL     1     -10.534  11.864  66.064  1.00  0.00    -0.282 A  
HETATM    6  C   UNL     1     -10.408  11.697  67.452  1.00  0.00    -0.205 A  
HETATM    7  C   UNL     1     -10.828  12.764  68.261  1.00  0.00    -0.270 A  
ENDROOT
BRANCH   6   8
HETATM    8  N   UNL     1      -9.973  10.495  67.983  1.00  0.00    -0.153 NA 
HETATM    9  C   UNL     1      -8.701  10.410  68.715  1.00  0.00    -0.146 C  
HETATM   10  C   UNL     1      -8.823   9.365  69.848  1.00  0.00    -0.199 C  
HETATM   11  N   UNL     1      -9.266   8.018  69.413  1.00  0.00    -0.152 NA 
HETATM   12  C   UNL     1     -10.520   9.209  67.520  1.00  0.00    -0.270 C  
HETATM   13  C   UNL     1     -10.553   8.190  68.688  1.00  0.00    -0.109 C  
BRANCH  11  14
HETATM   14  C   UNL     1      -8.278   7.331  68.565  1.00  0.00    -0.125 C  
BRANCH  14  15
HETATM   15  C   UNL     1      -8.292   5.811  68.740  1.00  0.00    -0.104 C  
BRANCH  15  16
HETATM   16  C   UNL     1      -9.301   5.395  69.806  1.00  0.00    -0.142 C  
BRANCH  16  17
HETATM   17  N   UNL     1      -8.643   4.769  70.928  1.00  0.00    -0.108 N  
HETATM   18  N   UNL     1      -8.221   5.483  72.033  1.00  0.00    -0.114 NA 
HETATM   19  C   UNL     1      -7.537   4.613  72.710  1.00  0.00    -0.087 A  
HETATM   20  C   UNL     1      -6.855   4.818  74.006  1.00  0.00    -0.074 A  
HETATM   21  C   UNL     1      -6.190   3.775  74.534  1.00  0.00    -0.026 A  
HETATM   22  C   UNL     1      -6.132   2.493  73.854  1.00  0.00    -0.008 A  
HETATM   23  C   UNL     1      -6.757   2.329  72.677  1.00  0.00    -0.018 A  
HETATM   24  N   UNL     1      -7.445   3.382  72.143  1.00  0.00    -0.055 N  
HETATM   25  C   UNL     1      -8.136   3.457  70.957  1.00  0.00    -0.062 C  
HETATM   26  O   UNL     1      -8.261   2.594  70.096  1.00  0.00    -0.041 OA 
ENDBRANCH  16  17
ENDBRANCH  15  16
ENDBRANCH  14  15
ENDBRANCH  11  14
ENDBRANCH   6   8
TORSDOF 5
ENDMDL
MODEL      246
REMARK 921   NORMALIZED FREE ENERGY PREDICTED BY IDOCK:   -2.87 KCAL/MOL
REMARK 922        TOTAL FREE ENERGY PREDICTED BY IDOCK:   -4.35 KCAL/MOL
REMARK 923 INTER-LIGAND FREE ENERGY PREDICTED BY IDOCK:   -3.83 KCAL/MOL
REMARK 924 INTRA-LIGAND FREE ENERGY PREDICTED BY IDOCK:   -0.52 KCAL/MOL
REMARK 927      BINDING AFFINITY PREDICTED BY RF-SCORE:    0.00 PKD
ROOT
HETATM    1 CL   UNL     1     -11.933  15.305  68.723  1.00  0.00    -0.318 Cl 
HETATM    2  C   UNL     1     -11.432  14.014  67.700  1.00  0.00    -0.334 A  
HETATM    3  C   UNL     1     -11.754  14.042  66.349  1.00  0.00    -0.407 A  
HETATM    4  C   UNL     1     -11.350  12.992  65.532  1.00  0.00    -0.330 A  
HETATM    5  C   UNL     1     -10.643  11.916  66.079  1.00  0.00    -0.304 A  
HETATM    6  C   UNL     1     -10.328  11.851  67.445  1.00  0.00    -0.207 A  
HETATM    7  C   UNL     1     -10.723  12.938  68.240  1.00  0.00    -0.261 A  
ENDROOT
BRANCH   6   8
HETATM    8  N   UNL     1      -9.737  10.721  67.981  1.00  0.00    -0.159 NA 
HETATM    9  C   UNL     1      -8.379  10.775  68.545  1.00  0.00    -0.138 C  
HETATM   10  C   UNL     1      -8.275   9.802  69.742  1.00  0.00    -0.173 C  
HETATM   11  N   UNL     1      -8.662   8.400  69.445  1.00  0.00    -0.136 NA 
HETATM   12  C   UNL     1     -10.234   9.371  67.667  1.00  0.00    -0.227 C  
HETATM   13  C   UNL     1     -10.040   8.432  68.885  1.00  0.00    -0.199 C  
BRANCH  11  14
HETATM   14  C   UNL     1      -7.737   7.731  68.515  1.00  0.00    -0.118 C  
BRANCH  14  15
HETATM   15  C   UNL     1      -7.760   6.206  68.642  1.00  0.00    -0.100 C  
BRANCH  15  16
HETATM   16  C   UNL     1      -6.371   5.620  68.407  1.00  0.00    -0.041 C  
BRANCH  16  17
HETATM   17  N   UNL     1      -6.371   4.715  67.283  1.00  0.00    -0.039 N  
HETATM   18  N   UNL     1      -6.100   5.134  65.994  1.00  0.00    -0.029 NA 
HETATM   19  C   UNL     1      -6.373   4.089  65.275  1.00  0.00    -0.028 A  
HETATM   20  C   UNL     1      -6.252   3.952  63.807  1.00  0.00    -0.022 A  
HETATM   21  C   UNL     1      -6.598   2.774  63.259  1.00  0.00    -0.026 A  
HETATM   22  C   UNL     1      -7.085   1.675  64.074  1.00  0.00    -0.036 A  
HETATM   23  C   UNL     1      -7.190   1.822  65.405  1.00  0.00    -0.052 A  
HETATM   24  N   UNL     1      -6.826   3.012  65.968  1.00  0.00    -0.047 N  
HETATM   25  C   UNL     1      -6.865   3.398  67.287  1.00  0.00    -0.046 C  
HETATM   26  O   UNL     1      -7.267   2.760  68.252  1.00  0.00    -0.048 OA 
ENDBRANCH  16  17
ENDBRANCH  15  16
ENDBRANCH  14  15
ENDBRANCH  11  14
ENDBRANCH   6   8
TORSDOF 5
ENDMDL
MODEL      247
REMARK 921   NORMALIZED FREE ENERGY PREDICTED BY IDOCK:   -2.70 KCAL/MOL
REMARK 922        TOTAL FREE ENERGY PREDICTED BY IDOCK:   -4.12 KCAL/MOL
REMARK 923 INTER-LIGAND FREE ENERGY PREDICTED BY IDOCK:   -4.11 KCAL/MOL
REMARK 924 INTRA-LIGAND FREE ENERGY PREDICTED BY IDOCK:   -0.01 KCAL/MOL
REMARK 927      BINDING AFFINITY PREDICTED BY RF-SCORE:    0.00 PKD
ROOT
HETATM    1 CL   UNL     1     -10.445  16.760  65.932  1.00  0.00    -0.345 Cl 
HETATM    2  C   UNL     1      -9.469  15.776  66.955  1.00  0.00    -0.223 A  
HETATM    3  C   UNL     1      -8.370  16.332  67.599  1.00  0.00    -0.172 A  
HETATM    4  C   UNL     1      -7.585  15.529  68.418  1.00  0.00    -0.116 A  
HETATM    5  C   UNL     1      -7.897  14.173  68.570  1.00  0.00    -0.140 A  
HETATM    6  C   UNL     1      -8.985  13.582  67.910  1.00  0.00    -0.200 A  
HETATM    7  C   UNL     1      -9.777  14.423  67.113  1.00  0.00    -0.248 A  
ENDROOT
BRANCH   6   8
HETATM    8  N   UNL     1      -9.199  12.217  67.981  1.00  0.00    -0.190 NA 
HETATM    9  C   UNL     1     -10.245  11.574  67.173  1.00  0.00    -0.204 C  
HETATM   10  C   UNL     1      -9.783  10.159  66.756  1.00  0.00    -0.187 C  
HETATM   11  N   UNL     1      -9.373   9.277  67.877  1.00  0.00    -0.129 NA 
HETATM   12  C   UNL     1      -8.700  11.420  69.114  1.00  0.00     0.202 C  
HETATM   13  C   UNL     1      -8.316   9.995  68.639  1.00  0.00    -0.116 C  
BRANCH  11  14
HETATM   14  C   UNL     1     -10.492   8.908  68.760  1.00  0.00    -0.200 C  
BRANCH  14  15
HETATM   15  C   UNL     1     -10.223   9.225  70.232  1.00  0.00    -0.270 C  
BRANCH  15  16
HETATM   16  C   UNL     1     -11.486   9.043  71.068  1.00  0.00    -0.295 C  
BRANCH  16  17
HETATM   17  N   UNL     1     -11.433   7.820  71.831  1.00  0.00    -0.263 N  
HETATM   18  N   UNL     1     -10.574   7.649  72.900  1.00  0.00    -0.321 NA 
HETATM   19  C   UNL     1     -10.700   6.391  73.190  1.00  0.00    -0.268 A  
HETATM   20  C   UNL     1     -10.021   5.645  74.271  1.00  0.00    -0.245 A  
HETATM   21  C   UNL     1     -10.293   4.334  74.392  1.00  0.00    -0.296 A  
HETATM   22  C   UNL     1     -11.212   3.666  73.488  1.00  0.00    -0.285 A  
HETATM   23  C   UNL     1     -11.816   4.362  72.511  1.00  0.00     0.800 A  
HETATM   24  N   UNL     1     -11.554   5.697  72.393  1.00  0.00    -0.263 N  
HETATM   25  C   UNL     1     -12.032   6.599  71.471  1.00  0.00    -0.352 C  
HETATM   26  O   UNL     1     -12.783   6.391  70.526  1.00  0.00     0.216 OA 
ENDBRANCH  16  17
ENDBRANCH  15  16
ENDBRANCH  14  15
ENDBRANCH  11  14
ENDBRANCH   6   8
TORSDOF 5
ENDMDL
MODEL      248
REMARK 921   NORMALIZED FREE ENERGY PREDICTED BY IDOCK:   -2.63 KCAL/MOL
REMARK 922        TOTAL FREE ENERGY PREDICTED BY IDOCK:   -4.03 KCAL/MOL
REMARK 923 INTER-LIGAND FREE ENERGY PREDICTED BY IDOCK:   -4.09 KCAL/MOL
REMARK 924 INTRA-LIGAND FREE ENERGY PREDICTED BY IDOCK:    0.05 KCAL/MOL
REMARK 927      BINDING AFFINITY PREDICTED BY RF-SCORE:    0.00 PKD
ROOT
HETATM    1 CL   UNL     1     -13.821  11.988  72.118  1.00  0.00    -0.118 Cl 
HETATM    2  C   UNL     1     -12.965  10.549  71.713  1.00  0.00    -0.476 A  
HETATM    3  C   UNL     1     -13.479   9.314  72.087  1.00  0.00    -0.539 A  
HETATM    4  C   UNL     1     -12.776   8.160  71.761  1.00  0.00    -0.356 A  
HETATM    5  C   UNL     1     -11.558   8.254  71.079  1.00  0.00    -0.301 A  
HETATM    6  C   UNL     1     -11.005   9.491  70.713  1.00  0.00    -0.321 A  
HETATM    7  C   UNL     1     -11.749  10.638  71.030  1.00  0.00    -0.329 A  
ENDROOT
BRANCH   6   8
HETATM    8  N   UNL     1      -9.744   9.562  70.150  1.00  0.00    -0.231 NA 
HETATM    9  C   UNL     1      -8.723   8.548  70.454  1.00  0.00    -0.149 C  
HETATM   10  C   UNL     1      -7.837   8.313  69.209  1.00  0.00    -0.108 C  
HETATM   11  N   UNL     1      -7.208   9.535  68.647  1.00  0.00    -0.073 NA 
HETATM   12  C   UNL     1      -9.233  10.813  69.566  1.00  0.00     0.131 C  
HETATM   13  C   UNL     1      -8.302  10.503  68.365  1.00  0.00    -0.126 C  
BRANCH  11  14
HETATM   14  C   UNL     1      -6.203  10.130  69.543  1.00  0.00    -0.048 C  
BRANCH  14  15
HETATM   15  C   UNL     1      -5.204  11.027  68.810  1.00  0.00    -0.040 C  
BRANCH  15  16
HETATM   16  C   UNL     1      -5.927  12.034  67.919  1.00  0.00    -0.062 C  
BRANCH  16  17
HETATM   17  N   UNL     1      -5.766  13.378  68.418  1.00  0.00    -0.079 N  
HETATM   18  N   UNL     1      -5.299  13.646  69.691  1.00  0.00    -0.085 NA 
HETATM   19  C   UNL     1      -5.470  14.927  69.810  1.00  0.00    -0.098 A  
HETATM   20  C   UNL     1      -5.129  15.774  70.973  1.00  0.00    -0.164 A  
HETATM   21  C   UNL     1      -5.400  17.089  70.888  1.00  0.00    -0.123 A  
HETATM   22  C   UNL     1      -6.015  17.660  69.703  1.00  0.00    -0.254 A  
HETATM   23  C   UNL     1      -6.318  16.872  68.659  1.00  0.00    -0.161 A  
HETATM   24  N   UNL     1      -6.032  15.538  68.734  1.00  0.00    -0.098 N  
HETATM   25  C   UNL     1      -6.267  14.545  67.813  1.00  0.00    -0.136 C  
HETATM   26  O   UNL     1      -6.816  14.638  66.722  1.00  0.00     0.257 OA 
ENDBRANCH  16  17
ENDBRANCH  15  16
ENDBRANCH  14  15
ENDBRANCH  11  14
ENDBRANCH   6   8
TORSDOF 5
ENDMDL
MODEL      249
REMARK 921   NORMALIZED FREE ENERGY PREDICTED BY IDOCK:   -2.61 KCAL/MOL
REMARK 922        TOTAL FREE ENERGY PREDICTED BY IDOCK:   -4.01 KCAL/MOL
REMARK 923 INTER-LIGAND FREE ENERGY PREDICTED BY IDOCK:   -5.05 KCAL/MOL
REMARK 924 INTRA-LIGAND FREE ENERGY PREDICTED BY IDOCK:    1.05 KCAL/MOL
REMARK 927      BINDING AFFINITY PREDICTED BY RF-SCORE:    0.00 PKD
ROOT
HETATM    1 CL   UNL     1     -11.375   6.620  71.746  1.00  0.00    -0.302 Cl 
HETATM    2  C   UNL     1     -10.857   6.803  70.114  1.00  0.00    -0.266 A  
HETATM    3  C   UNL     1     -11.420   6.010  69.121  1.00  0.00     0.015 A  
HETATM    4  C   UNL     1     -10.991   6.162  67.807  1.00  0.00    -0.400 A  
HETATM    5  C   UNL     1      -9.991   7.092  67.503  1.00  0.00    -0.201 A  
HETATM    6  C   UNL     1      -9.389   7.885  68.492  1.00  0.00    -0.141 A  
HETATM    7  C   UNL     1      -9.861   7.732  69.804  1.00  0.00    -0.178 A  
ENDROOT
BRANCH   6   8
HETATM    8  N   UNL     1      -8.321   8.708  68.183  1.00  0.00    -0.126 NA 
HETATM    9  C   UNL     1      -7.458   9.255  69.242  1.00  0.00    -0.075 C  
HETATM   10  C   UNL     1      -6.006   9.365  68.724  1.00  0.00    -0.043 C  
HETATM   11  N   UNL     1      -5.846  10.140  67.468  1.00  0.00    -0.049 NA 
HETATM   12  C   UNL     1      -8.227   9.390  66.881  1.00  0.00    -0.116 C  
HETATM   13  C   UNL     1      -6.743   9.525  66.453  1.00  0.00    -0.075 C  
BRANCH  11  14
HETATM   14  C   UNL     1      -6.148  11.572  67.631  1.00  0.00    -0.062 C  
BRANCH  14  15
HETATM   15  C   UNL     1      -7.528  11.828  68.239  1.00  0.00    -0.103 C  
BRANCH  15  16
HETATM   16  C   UNL     1      -8.337  12.786  67.369  1.00  0.00    -0.189 C  
BRANCH  16  17
HETATM   17  N   UNL     1      -9.455  13.333  68.099  1.00  0.00    -0.218 N  
HETATM   18  N   UNL     1      -9.498  14.652  68.509  1.00  0.00    -0.212 NA 
HETATM   19  C   UNL     1     -10.551  14.696  69.267  1.00  0.00    -0.226 A  
HETATM   20  C   UNL     1     -11.100  15.872  69.975  1.00  0.00    -0.356 A  
HETATM   21  C   UNL     1     -12.205  15.694  70.719  1.00  0.00    -0.463 A  
HETATM   22  C   UNL     1     -12.836  14.391  70.836  1.00  0.00    -0.419 A  
HETATM   23  C   UNL     1     -12.319  13.336  70.187  1.00  0.00    -0.236 A  
HETATM   24  N   UNL     1     -11.205  13.514  69.418  1.00  0.00    -0.225 N  
HETATM   25  C   UNL     1     -10.495  12.591  68.688  1.00  0.00    -0.200 C  
HETATM   26  O   UNL     1     -10.694  11.386  68.590  1.00  0.00    -0.187 OA 
ENDBRANCH  16  17
ENDBRANCH  15  16
ENDBRANCH  14  15
ENDBRANCH  11  14
ENDBRANCH   6   8
TORSDOF 5
ENDMDL
MODEL      250
REMARK 921   NORMALIZED FREE ENERGY PREDICTED BY IDOCK:   -2.60 KCAL/MOL
REMARK 922        TOTAL FREE ENERGY PREDICTED BY IDOCK:   -3.99 KCAL/MOL
REMARK 923 INTER-LIGAND FREE ENERGY PREDICTED BY IDOCK:   -2.81 KCAL/MOL
REMARK 924 INTRA-LIGAND FREE ENERGY PREDICTED BY IDOCK:   -1.18 KCAL/MOL
REMARK 927      BINDING AFFINITY PREDICTED BY RF-SCORE:    0.00 PKD
ROOT
HETATM    1 CL   UNL     1      -8.046   9.415  71.442  1.00  0.00     0.143 Cl 
HETATM    2  C   UNL     1      -8.723   7.906  71.924  1.00  0.00    -0.129 A  
HETATM    3  C   UNL     1      -9.739   7.880  72.872  1.00  0.00    -0.339 A  
HETATM    4  C   UNL     1     -10.274   6.657  73.258  1.00  0.00    -0.256 A  
HETATM    5  C   UNL     1      -9.776   5.471  72.707  1.00  0.00    -0.166 A  
HETATM    6  C   UNL     1      -8.733   5.470  71.767  1.00  0.00    -0.136 A  
HETATM    7  C   UNL     1      -8.231   6.720  71.374  1.00  0.00    -0.111 A  
ENDROOT
BRANCH   6   8
HETATM    8  N   UNL     1      -8.178   4.281  71.329  1.00  0.00    -0.080 NA 
HETATM    9  C   UNL     1      -6.814   4.242  70.781  1.00  0.00    -0.036 C  
HETATM   10  C   UNL     1      -6.141   2.901  71.156  1.00  0.00    -0.018 C  
HETATM   11  N   UNL     1      -6.899   1.688  70.760  1.00  0.00    -0.031 NA 
HETATM   12  C   UNL     1      -9.016   3.112  71.015  1.00  0.00    -0.097 C  
HETATM   13  C   UNL     1      -8.258   1.803  71.355  1.00  0.00    -0.047 C  
BRANCH  11  14
HETATM   14  C   UNL     1      -6.981   1.509  69.302  1.00  0.00    -0.033 C  
BRANCH  14  15
HETATM   15  C   UNL     1      -6.153   2.535  68.525  1.00  0.00    -0.025 C  
BRANCH  15  16
HETATM   16  C   UNL     1      -6.817   2.876  67.194  1.00  0.00    -0.045 C  
BRANCH  16  17
HETATM   17  N   UNL     1      -7.670   4.032  67.321  1.00  0.00    -0.083 N  
HETATM   18  N   UNL     1      -7.170   5.319  67.389  1.00  0.00    -0.073 NA 
HETATM   19  C   UNL     1      -8.215   6.033  67.674  1.00  0.00    -0.109 A  
HETATM   20  C   UNL     1      -8.280   7.499  67.855  1.00  0.00    -0.123 A  
HETATM   21  C   UNL     1      -9.473   8.040  68.158  1.00  0.00    -0.152 A  
HETATM   22  C   UNL     1     -10.659   7.216  68.313  1.00  0.00    -0.230 A  
HETATM   23  C   UNL     1     -10.577   5.886  68.148  1.00  0.00    -0.244 A  
HETATM   24  N   UNL     1      -9.370   5.333  67.826  1.00  0.00    -0.116 N  
HETATM   25  C   UNL     1      -9.042   4.013  67.630  1.00  0.00    -0.145 C  
HETATM   26  O   UNL     1      -9.766   3.029  67.730  1.00  0.00    -0.128 OA 
ENDBRANCH  16  17
ENDBRANCH  15  16
ENDBRANCH  14  15
ENDBRANCH  11  14
ENDBRANCH   6   8
TORSDOF 5
ENDMDL
MODEL      251
REMARK 921   NORMALIZED FREE ENERGY PREDICTED BY IDOCK:   -2.47 KCAL/MOL
REMARK 922        TOTAL FREE ENERGY PREDICTED BY IDOCK:   -3.83 KCAL/MOL
REMARK 923 INTER-LIGAND FREE ENERGY PREDICTED BY IDOCK:   -3.18 KCAL/MOL
REMARK 924 INTRA-LIGAND FREE ENERGY PREDICTED BY IDOCK:   -0.64 KCAL/MOL
REMARK 927      BINDING AFFINITY PREDICTED BY RF-SCORE:    0.00 PKD
ROOT
HETATM    1 CL   UNL     1      -8.541   9.765  70.289  1.00  0.00    -0.219 Cl 
HETATM    2  C   UNL     1      -9.174   8.457  71.213  1.00  0.00    -0.178 A  
HETATM    3  C   UNL     1      -9.869   8.717  72.387  1.00  0.00    -0.315 A  
HETATM    4  C   UNL     1     -10.371   7.653  73.128  1.00  0.00    -0.411 A  
HETATM    5  C   UNL     1     -10.156   6.339  72.697  1.00  0.00    -0.192 A  
HETATM    6  C   UNL     1      -9.434   6.050  71.529  1.00  0.00    -0.149 A  
HETATM    7  C   UNL     1      -8.965   7.143  70.785  1.00  0.00    -0.152 A  
ENDROOT
BRANCH   6   8
HETATM    8  N   UNL     1      -9.132   4.743  71.190  1.00  0.00    -0.133 NA 
HETATM    9  C   UNL     1      -8.018   4.437  70.281  1.00  0.00    -0.062 C  
HETATM   10  C   UNL     1      -7.359   3.102  70.698  1.00  0.00    -0.037 C  
HETATM   11  N   UNL     1      -8.288   1.948  70.793  1.00  0.00    -0.048 NA 
HETATM   12  C   UNL     1     -10.109   3.656  71.377  1.00  0.00     0.003 C  
HETATM   13  C   UNL     1      -9.378   2.334  71.728  1.00  0.00    -0.108 C  
BRANCH  11  14
HETATM   14  C   UNL     1      -8.839   1.542  69.489  1.00  0.00    -0.071 C  
BRANCH  14  15
HETATM   15  C   UNL     1      -7.826   1.656  68.348  1.00  0.00    -0.051 C  
BRANCH  15  16
HETATM   16  C   UNL     1      -8.531   1.681  66.995  1.00  0.00    -0.088 C  
BRANCH  16  17
HETATM   17  N   UNL     1      -8.215   2.886  66.267  1.00  0.00    -0.086 N  
HETATM   18  N   UNL     1      -8.129   4.122  66.880  1.00  0.00    -0.100 NA 
HETATM   19  C   UNL     1      -8.012   4.944  65.884  1.00  0.00    -0.107 A  
HETATM   20  C   UNL     1      -7.866   6.414  65.945  1.00  0.00    -0.102 A  
HETATM   21  C   UNL     1      -7.767   7.081  64.781  1.00  0.00    -0.115 A  
HETATM   22  C   UNL     1      -7.813   6.388  63.506  1.00  0.00    -0.110 A  
HETATM   23  C   UNL     1      -7.949   5.053  63.473  1.00  0.00    -0.098 A  
HETATM   24  N   UNL     1      -8.035   4.369  64.653  1.00  0.00    -0.089 N  
HETATM   25  C   UNL     1      -8.197   3.021  64.867  1.00  0.00    -0.087 C  
HETATM   26  O   UNL     1      -8.330   2.131  64.035  1.00  0.00    -0.080 OA 
ENDBRANCH  16  17
ENDBRANCH  15  16
ENDBRANCH  14  15
ENDBRANCH  11  14
ENDBRANCH   6   8
TORSDOF 5
ENDMDL
MODEL      252
REMARK 921   NORMALIZED FREE ENERGY PREDICTED BY IDOCK:   -2.47 KCAL/MOL
REMARK 922        TOTAL FREE ENERGY PREDICTED BY IDOCK:   -3.82 KCAL/MOL
REMARK 923 INTER-LIGAND FREE ENERGY PREDICTED BY IDOCK:   -3.10 KCAL/MOL
REMARK 924 INTRA-LIGAND FREE ENERGY PREDICTED BY IDOCK:   -0.72 KCAL/MOL
REMARK 927      BINDING AFFINITY PREDICTED BY RF-SCORE:    0.00 PKD
ROOT
HETATM    1 CL   UNL     1      -8.619  14.374  66.936  1.00  0.00    -0.222 Cl 
HETATM    2  C   UNL     1      -9.098  12.778  67.369  1.00  0.00    -0.192 A  
HETATM    3  C   UNL     1     -10.309  12.576  68.019  1.00  0.00    -0.226 A  
HETATM    4  C   UNL     1     -10.684  11.283  68.369  1.00  0.00    -0.238 A  
HETATM    5  C   UNL     1      -9.835  10.209  68.082  1.00  0.00    -0.164 A  
HETATM    6  C   UNL     1      -8.595  10.390  67.450  1.00  0.00    -0.125 A  
HETATM    7  C   UNL     1      -8.255  11.701  67.082  1.00  0.00    -0.165 A  
ENDROOT
BRANCH   6   8
HETATM    8  N   UNL     1      -7.723   9.329  67.288  1.00  0.00    -0.095 NA 
HETATM    9  C   UNL     1      -7.727   8.530  66.053  1.00  0.00    -0.093 C  
HETATM   10  C   UNL     1      -6.289   8.063  65.731  1.00  0.00    -0.042 C  
HETATM   11  N   UNL     1      -5.611   7.326  66.827  1.00  0.00    -0.023 NA 
HETATM   12  C   UNL     1      -7.054   8.702  68.440  1.00  0.00    -0.077 C  
HETATM   13  C   UNL     1      -5.645   8.198  68.032  1.00  0.00    -0.034 C  
BRANCH  11  14
HETATM   14  C   UNL     1      -6.226   6.019  67.111  1.00  0.00    -0.029 C  
BRANCH  14  15
HETATM   15  C   UNL     1      -5.843   5.463  68.484  1.00  0.00    -0.016 C  
BRANCH  15  16
HETATM   16  C   UNL     1      -7.069   4.923  69.214  1.00  0.00    -0.055 C  
BRANCH  16  17
HETATM   17  N   UNL     1      -7.628   5.918  70.097  1.00  0.00    -0.088 N  
HETATM   18  N   UNL     1      -7.105   6.176  71.349  1.00  0.00    -0.076 NA 
HETATM   19  C   UNL     1      -7.975   6.980  71.879  1.00  0.00    -0.098 A  
HETATM   20  C   UNL     1      -7.925   7.600  73.220  1.00  0.00    -0.156 A  
HETATM   21  C   UNL     1      -8.943   8.403  73.575  1.00  0.00    -0.126 A  
HETATM   22  C   UNL     1     -10.061   8.647  72.681  1.00  0.00    -0.150 A  
HETATM   23  C   UNL     1     -10.088   8.071  71.469  1.00  0.00    -0.180 A  
HETATM   24  N   UNL     1      -9.048   7.266  71.097  1.00  0.00    -0.151 N  
HETATM   25  C   UNL     1      -8.868   6.562  69.930  1.00  0.00    -0.143 C  
HETATM   26  O   UNL     1      -9.623   6.479  68.970  1.00  0.00    -0.134 OA 
ENDBRANCH  16  17
ENDBRANCH  15  16
ENDBRANCH  14  15
ENDBRANCH  11  14
ENDBRANCH   6   8
TORSDOF 5
ENDMDL
MODEL      253
REMARK 921   NORMALIZED FREE ENERGY PREDICTED BY IDOCK:   -2.44 KCAL/MOL
REMARK 922        TOTAL FREE ENERGY PREDICTED BY IDOCK:   -3.79 KCAL/MOL
REMARK 923 INTER-LIGAND FREE ENERGY PREDICTED BY IDOCK:   -4.15 KCAL/MOL
REMARK 924 INTRA-LIGAND FREE ENERGY PREDICTED BY IDOCK:    0.36 KCAL/MOL
REMARK 927      BINDING AFFINITY PREDICTED BY RF-SCORE:    0.00 PKD
ROOT
HETATM    1 CL   UNL     1     -10.519  17.355  65.653  1.00  0.00    -0.262 Cl 
HETATM    2  C   UNL     1     -11.068  15.764  65.287  1.00  0.00    -0.273 A  
HETATM    3  C   UNL     1     -11.992  15.573  64.268  1.00  0.00    -0.161 A  
HETATM    4  C   UNL     1     -12.434  14.285  63.985  1.00  0.00    -0.171 A  
HETATM    5  C   UNL     1     -11.959  13.204  64.736  1.00  0.00    -0.435 A  
HETATM    6  C   UNL     1     -11.045  13.375  65.788  1.00  0.00    -0.282 A  
HETATM    7  C   UNL     1     -10.595  14.681  66.033  1.00  0.00    -0.314 A  
ENDROOT
BRANCH   6   8
HETATM    8  N   UNL     1     -10.686  12.307  66.591  1.00  0.00    -0.239 NA 
HETATM    9  C   UNL     1     -11.597  11.170  66.787  1.00  0.00     0.264 C  
HETATM   10  C   UNL     1     -10.778   9.867  66.935  1.00  0.00    -0.125 C  
HETATM   11  N   UNL     1      -9.742   9.895  67.997  1.00  0.00    -0.139 NA 
HETATM   12  C   UNL     1      -9.601  12.422  67.581  1.00  0.00    -0.193 C  
HETATM   13  C   UNL     1      -8.864  11.065  67.726  1.00  0.00    -0.133 C  
BRANCH  11  14
HETATM   14  C   UNL     1     -10.309   9.972  69.354  1.00  0.00    -0.227 C  
BRANCH  14  15
HETATM   15  C   UNL     1      -9.578   9.080  70.360  1.00  0.00    -0.246 C  
BRANCH  15  16
HETATM   16  C   UNL     1      -9.890   7.608  70.110  1.00  0.00    -0.184 C  
BRANCH  16  17
HETATM   17  N   UNL     1      -9.131   7.098  68.994  1.00  0.00    -0.133 N  
HETATM   18  N   UNL     1      -8.096   7.807  68.415  1.00  0.00    -0.122 NA 
HETATM   19  C   UNL     1      -7.803   7.107  67.363  1.00  0.00    -0.112 A  
HETATM   20  C   UNL     1      -6.749   7.384  66.364  1.00  0.00    -0.060 A  
HETATM   21  C   UNL     1      -6.620   6.526  65.337  1.00  0.00    -0.043 A  
HETATM   22  C   UNL     1      -7.489   5.370  65.203  1.00  0.00    -0.073 A  
HETATM   23  C   UNL     1      -8.442   5.139  66.121  1.00  0.00    -0.115 A  
HETATM   24  N   UNL     1      -8.568   6.000  67.174  1.00  0.00    -0.107 N  
HETATM   25  C   UNL     1      -9.470   5.979  68.211  1.00  0.00    -0.115 C  
HETATM   26  O   UNL     1     -10.387   5.190  68.403  1.00  0.00    -0.147 OA 
ENDBRANCH  16  17
ENDBRANCH  15  16
ENDBRANCH  14  15
ENDBRANCH  11  14
ENDBRANCH   6   8
TORSDOF 5
ENDMDL
MODEL      254
REMARK 921   NORMALIZED FREE ENERGY PREDICTED BY IDOCK:   -2.27 KCAL/MOL
REMARK 922        TOTAL FREE ENERGY PREDICTED BY IDOCK:   -3.57 KCAL/MOL
REMARK 923 INTER-LIGAND FREE ENERGY PREDICTED BY IDOCK:   -3.13 KCAL/MOL
REMARK 924 INTRA-LIGAND FREE ENERGY PREDICTED BY IDOCK:   -0.44 KCAL/MOL
REMARK 927      BINDING AFFINITY PREDICTED BY RF-SCORE:    0.00 PKD
ROOT
HETATM    1 CL   UNL     1      -6.970  13.496  68.945  1.00  0.00    -0.109 Cl 
HETATM    2  C   UNL     1      -7.232  11.847  68.525  1.00  0.00    -0.100 A  
HETATM    3  C   UNL     1      -7.255  10.879  69.521  1.00  0.00    -0.113 A  
HETATM    4  C   UNL     1      -7.461   9.549  69.170  1.00  0.00    -0.074 A  
HETATM    5  C   UNL     1      -7.624   9.200  67.825  1.00  0.00    -0.085 A  
HETATM    6  C   UNL     1      -7.579  10.156  66.799  1.00  0.00    -0.105 A  
HETATM    7  C   UNL     1      -7.398  11.493  67.183  1.00  0.00    -0.139 A  
ENDROOT
BRANCH   6   8
HETATM    8  N   UNL     1      -7.621   9.769  65.471  1.00  0.00    -0.113 NA 
HETATM    9  C   UNL     1      -8.805  10.041  64.643  1.00  0.00    -0.200 C  
HETATM   10  C   UNL     1      -8.368  10.326  63.188  1.00  0.00    -0.167 C  
HETATM   11  N   UNL     1      -7.528   9.271  62.568  1.00  0.00    -0.103 NA 
HETATM   12  C   UNL     1      -6.702   8.749  64.939  1.00  0.00    -0.069 C  
HETATM   13  C   UNL     1      -6.356   9.059  63.459  1.00  0.00    -0.089 C  
BRANCH  11  14
HETATM   14  C   UNL     1      -8.254   8.008  62.352  1.00  0.00    -0.150 C  
BRANCH  14  15
HETATM   15  C   UNL     1      -7.400   6.770  62.634  1.00  0.00    -0.066 C  
BRANCH  15  16
HETATM   16  C   UNL     1      -8.255   5.507  62.628  1.00  0.00    -0.106 C  
BRANCH  16  17
HETATM   17  N   UNL     1      -8.607   5.111  63.970  1.00  0.00    -0.122 N  
HETATM   18  N   UNL     1      -8.447   5.950  65.057  1.00  0.00    -0.140 NA 
HETATM   19  C   UNL     1      -8.698   5.180  66.070  1.00  0.00    -0.130 A  
HETATM   20  C   UNL     1      -8.693   5.549  67.502  1.00  0.00    -0.107 A  
HETATM   21  C   UNL     1      -8.978   4.586  68.397  1.00  0.00    -0.143 A  
HETATM   22  C   UNL     1      -9.269   3.227  67.978  1.00  0.00    -0.243 A  
HETATM   23  C   UNL     1      -9.266   2.913  66.672  1.00  0.00    -0.114 A  
HETATM   24  N   UNL     1      -8.992   3.890  65.759  1.00  0.00    -0.125 N  
HETATM   25  C   UNL     1      -8.912   3.803  64.389  1.00  0.00    -0.124 C  
HETATM   26  O   UNL     1      -9.042   2.810  63.683  1.00  0.00    -0.095 OA 
ENDBRANCH  16  17
ENDBRANCH  15  16
ENDBRANCH  14  15
ENDBRANCH  11  14
ENDBRANCH   6   8
TORSDOF 5
ENDMDL
MODEL      255
REMARK 921   NORMALIZED FREE ENERGY PREDICTED BY IDOCK:   -2.18 KCAL/MOL
REMARK 922        TOTAL FREE ENERGY PREDICTED BY IDOCK:   -3.46 KCAL/MOL
REMARK 923 INTER-LIGAND FREE ENERGY PREDICTED BY IDOCK:   -3.20 KCAL/MOL
REMARK 924 INTRA-LIGAND FREE ENERGY PREDICTED BY IDOCK:   -0.26 KCAL/MOL
REMARK 927      BINDING AFFINITY PREDICTED BY RF-SCORE:    0.00 PKD
ROOT
HETATM    1 CL   UNL     1      -9.070  19.163  67.152  1.00  0.00    -0.309 Cl 
HETATM    2  C   UNL     1      -9.832  17.907  68.051  1.00  0.00    -0.320 A  
HETATM    3  C   UNL     1     -10.503  18.214  69.227  1.00  0.00     0.241 A  
HETATM    4  C   UNL     1     -11.110  17.192  69.949  1.00  0.00     0.548 A  
HETATM    5  C   UNL     1     -11.024  15.871  69.495  1.00  0.00    -0.311 A  
HETATM    6  C   UNL     1     -10.329  15.533  68.323  1.00  0.00    -0.235 A  
HETATM    7  C   UNL     1      -9.751  16.587  67.600  1.00  0.00    -0.239 A  
ENDROOT
BRANCH   6   8
HETATM    8  N   UNL     1     -10.156  14.209  67.962  1.00  0.00    -0.228 NA 
HETATM    9  C   UNL     1      -9.403  13.849  66.751  1.00  0.00    -0.275 C  
HETATM   10  C   UNL     1      -8.644  12.522  66.986  1.00  0.00    -0.188 C  
HETATM   11  N   UNL     1      -9.490  11.387  67.432  1.00  0.00    -0.166 NA 
HETATM   12  C   UNL     1     -11.016  13.145  68.508  1.00  0.00    -0.263 C  
HETATM   13  C   UNL     1     -10.210  11.829  68.657  1.00  0.00    -0.201 C  
BRANCH  11  14
HETATM   14  C   UNL     1     -10.440  10.935  66.403  1.00  0.00    -0.250 C  
BRANCH  14  15
HETATM   15  C   UNL     1     -10.961   9.518  66.649  1.00  0.00     0.192 C  
BRANCH  15  16
HETATM   16  C   UNL     1     -10.184   8.840  67.774  1.00  0.00    -0.228 C  
BRANCH  16  17
HETATM   17  N   UNL     1      -9.165   7.966  67.247  1.00  0.00    -0.139 N  
HETATM   18  N   UNL     1      -7.899   8.414  66.921  1.00  0.00    -0.095 NA 
HETATM   19  C   UNL     1      -7.361   7.392  66.329  1.00  0.00    -0.082 A  
HETATM   20  C   UNL     1      -5.994   7.292  65.776  1.00  0.00    -0.037 A  
HETATM   21  C   UNL     1      -5.639   6.133  65.192  1.00  0.00    -0.017 A  
HETATM   22  C   UNL     1      -6.567   5.020  65.096  1.00  0.00    -0.040 A  
HETATM   23  C   UNL     1      -7.805   5.134  65.603  1.00  0.00    -0.096 A  
HETATM   24  N   UNL     1      -8.165   6.304  66.210  1.00  0.00    -0.113 N  
HETATM   25  C   UNL     1      -9.368   6.656  66.776  1.00  0.00    -0.158 C  
HETATM   26  O   UNL     1     -10.400   5.998  66.834  1.00  0.00    -0.191 OA 
ENDBRANCH  16  17
ENDBRANCH  15  16
ENDBRANCH  14  15
ENDBRANCH  11  14
ENDBRANCH   6   8
TORSDOF 5
ENDMDL
MODEL      256
REMARK 921   NORMALIZED FREE ENERGY PREDICTED BY IDOCK:   -2.07 KCAL/MOL
REMARK 922        TOTAL FREE ENERGY PREDICTED BY IDOCK:   -3.31 KCAL/MOL
REMARK 923 INTER-LIGAND FREE ENERGY PREDICTED BY IDOCK:   -2.87 KCAL/MOL
REMARK 924 INTRA-LIGAND FREE ENERGY PREDICTED BY IDOCK:   -0.44 KCAL/MOL
REMARK 927      BINDING AFFINITY PREDICTED BY RF-SCORE:    0.00 PKD
ROOT
HETATM    1 CL   UNL     1      -6.964  18.081  66.930  1.00  0.00    -0.208 Cl 
HETATM    2  C   UNL     1      -8.523  17.465  66.534  1.00  0.00    -0.264 A  
HETATM    3  C   UNL     1      -9.639  18.281  66.668  1.00  0.00    -0.315 A  
HETATM    4  C   UNL     1     -10.894  17.773  66.352  1.00  0.00     0.061 A  
HETATM    5  C   UNL     1     -11.021  16.448  65.922  1.00  0.00     0.003 A  
HETATM    6  C   UNL     1      -9.912  15.596  65.803  1.00  0.00    -0.359 A  
HETATM    7  C   UNL     1      -8.655  16.143  66.101  1.00  0.00    -0.331 A  
ENDROOT
BRANCH   6   8
HETATM    8  N   UNL     1     -10.079  14.258  65.494  1.00  0.00    -0.344 NA 
HETATM    9  C   UNL     1     -11.423  13.684  65.325  1.00  0.00    -0.308 C  
HETATM   10  C   UNL     1     -11.385  12.583  64.240  1.00  0.00    -0.361 C  
HETATM   11  N   UNL     1     -10.385  11.511  64.471  1.00  0.00    -0.280 NA 
HETATM   12  C   UNL     1      -9.000  13.279  65.709  1.00  0.00     0.672 C  
HETATM   13  C   UNL     1      -9.060  12.169  64.627  1.00  0.00     0.648 C  
BRANCH  11  14
HETATM   14  C   UNL     1     -10.693  10.676  65.644  1.00  0.00    -0.034 C  
BRANCH  14  15
HETATM   15  C   UNL     1      -9.447  10.070  66.292  1.00  0.00    -0.241 C  
BRANCH  15  16
HETATM   16  C   UNL     1      -9.601  10.002  67.809  1.00  0.00    -0.148 C  
BRANCH  16  17
HETATM   17  N   UNL     1      -9.557  11.320  68.395  1.00  0.00    -0.189 N  
HETATM   18  N   UNL     1     -10.690  11.970  68.845  1.00  0.00    -0.211 NA 
HETATM   19  C   UNL     1     -10.262  13.163  69.123  1.00  0.00     0.230 A  
HETATM   20  C   UNL     1     -11.045  14.295  69.662  1.00  0.00    -0.218 A  
HETATM   21  C   UNL     1     -10.400  15.457  69.871  1.00  0.00    -0.298 A  
HETATM   22  C   UNL     1      -8.987  15.603  69.569  1.00  0.00    -0.231 A  
HETATM   23  C   UNL     1      -8.296  14.563  69.077  1.00  0.00    -0.061 A  
HETATM   24  N   UNL     1      -8.943  13.376  68.876  1.00  0.00     0.148 N  
HETATM   25  C   UNL     1      -8.455  12.194  68.370  1.00  0.00    -0.145 C  
HETATM   26  O   UNL     1      -7.327  11.955  67.957  1.00  0.00    -0.087 OA 
ENDBRANCH  16  17
ENDBRANCH  15  16
ENDBRANCH  14  15
ENDBRANCH  11  14
ENDBRANCH   6   8
TORSDOF 5
ENDMDL
MODEL      257
REMARK 921   NORMALIZED FREE ENERGY PREDICTED BY IDOCK:   -1.69 KCAL/MOL
REMARK 922        TOTAL FREE ENERGY PREDICTED BY IDOCK:   -2.82 KCAL/MOL
REMARK 923 INTER-LIGAND FREE ENERGY PREDICTED BY IDOCK:   -2.33 KCAL/MOL
REMARK 924 INTRA-LIGAND FREE ENERGY PREDICTED BY IDOCK:   -0.49 KCAL/MOL
REMARK 927      BINDING AFFINITY PREDICTED BY RF-SCORE:    0.00 PKD
ROOT
HETATM    1 CL   UNL     1      -6.488   7.501  63.296  1.00  0.00    -0.054 Cl 
HETATM    2  C   UNL     1      -7.587   8.660  63.940  1.00  0.00    -0.127 A  
HETATM    3  C   UNL     1      -7.756   9.879  63.295  1.00  0.00    -0.143 A  
HETATM    4  C   UNL     1      -8.642  10.810  63.826  1.00  0.00    -0.036 A  
HETATM    5  C   UNL     1      -9.335  10.520  65.007  1.00  0.00    -0.268 A  
HETATM    6  C   UNL     1      -9.161   9.307  65.690  1.00  0.00    -0.216 A  
HETATM    7  C   UNL     1      -8.283   8.374  65.117  1.00  0.00    -0.158 A  
ENDROOT
BRANCH   6   8
HETATM    8  N   UNL     1      -9.764   9.094  66.917  1.00  0.00    -0.178 NA 
HETATM    9  C   UNL     1     -10.834   8.097  67.070  1.00  0.00    -0.016 C  
HETATM   10  C   UNL     1     -10.745   7.450  68.471  1.00  0.00    -0.098 C  
HETATM   11  N   UNL     1     -10.759   8.408  69.605  1.00  0.00    -0.225 NA 
HETATM   12  C   UNL     1      -9.671  10.087  68.001  1.00  0.00    -0.139 C  
HETATM   13  C   UNL     1      -9.652   9.375  69.379  1.00  0.00    -0.173 C  
BRANCH  11  14
HETATM   14  C   UNL     1     -12.044   9.111  69.751  1.00  0.00     0.787 C  
BRANCH  14  15
HETATM   15  C   UNL     1     -11.892  10.527  70.311  1.00  0.00    -0.418 C  
BRANCH  15  16
HETATM   16  C   UNL     1     -12.861  11.489  69.630  1.00  0.00     0.511 C  
BRANCH  16  17
HETATM   17  N   UNL     1     -12.436  12.858  69.796  1.00  0.00    -0.015 N  
HETATM   18  N   UNL     1     -11.419  13.415  69.044  1.00  0.00    -0.281 NA 
HETATM   19  C   UNL     1     -11.227  14.568  69.607  1.00  0.00    -0.253 A  
HETATM   20  C   UNL     1     -10.257  15.611  69.209  1.00  0.00    -0.250 A  
HETATM   21  C   UNL     1     -10.217  16.739  69.940  1.00  0.00     0.138 A  
HETATM   22  C   UNL     1     -11.086  16.927  71.088  1.00  0.00     0.665 A  
HETATM   23  C   UNL     1     -11.958  15.966  71.433  1.00  0.00    -0.457 A  
HETATM   24  N   UNL     1     -12.012  14.824  70.685  1.00  0.00    -0.289 N  
HETATM   25  C   UNL     1     -12.799  13.709  70.855  1.00  0.00    -0.251 C  
HETATM   26  O   UNL     1     -13.611  13.483  71.744  1.00  0.00    -0.380 OA 
ENDBRANCH  16  17
ENDBRANCH  15  16
ENDBRANCH  14  15
ENDBRANCH  11  14
ENDBRANCH   6   8
TORSDOF 5
ENDMDL
MODEL      258
REMARK 921   NORMALIZED FREE ENERGY PREDICTED BY IDOCK:   -1.40 KCAL/MOL
REMARK 922        TOTAL FREE ENERGY PREDICTED BY IDOCK:   -2.45 KCAL/MOL
REMARK 923 INTER-LIGAND FREE ENERGY PREDICTED BY IDOCK:   -3.40 KCAL/MOL
REMARK 924 INTRA-LIGAND FREE ENERGY PREDICTED BY IDOCK:    0.96 KCAL/MOL
REMARK 927      BINDING AFFINITY PREDICTED BY RF-SCORE:    0.00 PKD
ROOT
HETATM    1 CL   UNL     1     -11.086   9.925  69.025  1.00  0.00    -0.217 Cl 
HETATM    2  C   UNL     1     -11.061   8.812  70.339  1.00  0.00    -0.236 A  
HETATM    3  C   UNL     1     -11.755   9.109  71.505  1.00  0.00    -0.433 A  
HETATM    4  C   UNL     1     -11.724   8.206  72.562  1.00  0.00    -0.457 A  
HETATM    5  C   UNL     1     -10.984   7.024  72.448  1.00  0.00    -0.282 A  
HETATM    6  C   UNL     1     -10.254   6.714  71.290  1.00  0.00    -0.200 A  
HETATM    7  C   UNL     1     -10.327   7.629  70.229  1.00  0.00    -0.214 A  
ENDROOT
BRANCH   6   8
HETATM    8  N   UNL     1      -9.435   5.599  71.249  1.00  0.00    -0.147 NA 
HETATM    9  C   UNL     1      -8.035   5.675  71.691  1.00  0.00    -0.117 C  
HETATM   10  C   UNL     1      -7.623   4.335  72.344  1.00  0.00    -0.074 C  
HETATM   11  N   UNL     1      -7.840   3.134  71.499  1.00  0.00    -0.055 NA 
HETATM   12  C   UNL     1      -9.770   4.430  70.418  1.00  0.00    -0.214 C  
HETATM   13  C   UNL     1      -9.273   3.129  71.099  1.00  0.00    -0.126 C  
BRANCH  11  14
HETATM   14  C   UNL     1      -6.967   3.097  70.315  1.00  0.00    -0.034 C  
BRANCH  14  15
HETATM   15  C   UNL     1      -6.627   4.488  69.777  1.00  0.00    -0.033 C  
BRANCH  15  16
HETATM   16  C   UNL     1      -6.198   4.416  68.314  1.00  0.00    -0.032 C  
BRANCH  16  17
HETATM   17  N   UNL     1      -6.437   5.670  67.641  1.00  0.00    -0.046 N  
HETATM   18  N   UNL     1      -6.777   5.740  66.303  1.00  0.00    -0.055 NA 
HETATM   19  C   UNL     1      -6.726   7.011  66.046  1.00  0.00    -0.053 A  
HETATM   20  C   UNL     1      -7.013   7.679  64.759  1.00  0.00    -0.055 A  
HETATM   21  C   UNL     1      -6.891   9.017  64.709  1.00  0.00    -0.080 A  
HETATM   22  C   UNL     1      -6.480   9.783  65.872  1.00  0.00    -0.082 A  
HETATM   23  C   UNL     1      -6.221   9.156  67.031  1.00  0.00    -0.058 A  
HETATM   24  N   UNL     1      -6.358   7.798  67.091  1.00  0.00    -0.053 N  
HETATM   25  C   UNL     1      -6.133   6.947  68.146  1.00  0.00    -0.033 C  
HETATM   26  O   UNL     1      -5.726   7.222  69.269  1.00  0.00    -0.018 OA 
ENDBRANCH  16  17
ENDBRANCH  15  16
ENDBRANCH  14  15
ENDBRANCH  11  14
ENDBRANCH   6   8
TORSDOF 5
ENDMDL
MODEL      259
REMARK 921   NORMALIZED FREE ENERGY PREDICTED BY IDOCK:   -0.81 KCAL/MOL
REMARK 922        TOTAL FREE ENERGY PREDICTED BY IDOCK:   -1.69 KCAL/MOL
REMARK 923 INTER-LIGAND FREE ENERGY PREDICTED BY IDOCK:   -1.32 KCAL/MOL
REMARK 924 INTRA-LIGAND FREE ENERGY PREDICTED BY IDOCK:   -0.36 KCAL/MOL
REMARK 927      BINDING AFFINITY PREDICTED BY RF-SCORE:    0.00 PKD
ROOT
HETATM    1 CL   UNL     1      -6.398  21.371  65.615  1.00  0.00    -0.048 Cl 
HETATM    2  C   UNL     1      -7.385  20.221  66.433  1.00  0.00    -0.261 A  
HETATM    3  C   UNL     1      -8.631  20.603  66.913  1.00  0.00    -0.201 A  
HETATM    4  C   UNL     1      -9.418  19.669  67.578  1.00  0.00    -0.434 A  
HETATM    5  C   UNL     1      -8.943  18.367  67.771  1.00  0.00    -0.292 A  
HETATM    6  C   UNL     1      -7.676  17.965  67.318  1.00  0.00    -0.204 A  
HETATM    7  C   UNL     1      -6.916  18.919  66.626  1.00  0.00    -0.224 A  
ENDROOT
BRANCH   6   8
HETATM    8  N   UNL     1      -7.182  16.710  67.628  1.00  0.00    -0.132 NA 
HETATM    9  C   UNL     1      -7.287  15.599  66.670  1.00  0.00     0.235 C  
HETATM   10  C   UNL     1      -6.049  14.682  66.800  1.00  0.00     2.018 C  
HETATM   11  N   UNL     1      -5.790  14.169  68.168  1.00  0.00    -0.119 NA 
HETATM   12  C   UNL     1      -6.903  16.317  69.020  1.00  0.00    -0.182 C  
HETATM   13  C   UNL     1      -5.693  15.348  69.070  1.00  0.00    -0.098 C  
BRANCH  11  14
HETATM   14  C   UNL     1      -6.826  13.235  68.640  1.00  0.00    -0.099 C  
BRANCH  14  15
HETATM   15  C   UNL     1      -6.852  11.923  67.854  1.00  0.00    -0.083 C  
BRANCH  15  16
HETATM   16  C   UNL     1      -6.521  10.740  68.759  1.00  0.00    -0.048 C  
BRANCH  16  17
HETATM   17  N   UNL     1      -7.385   9.617  68.484  1.00  0.00    -0.077 N  
HETATM   18  N   UNL     1      -8.160   9.021  69.460  1.00  0.00    -0.101 NA 
HETATM   19  C   UNL     1      -8.635   7.969  68.867  1.00  0.00    -0.131 A  
HETATM   20  C   UNL     1      -9.550   6.955  69.433  1.00  0.00    -0.147 A  
HETATM   21  C   UNL     1      -9.915   5.931  68.641  1.00  0.00    -0.188 A  
HETATM   22  C   UNL     1      -9.422   5.816  67.280  1.00  0.00    -0.116 A  
HETATM   23  C   UNL     1      -8.589   6.747  66.787  1.00  0.00    -0.119 A  
HETATM   24  N   UNL     1      -8.227   7.796  67.583  1.00  0.00    -0.123 N  
HETATM   25  C   UNL     1      -7.382   8.845  67.308  1.00  0.00    -0.080 C  
HETATM   26  O   UNL     1      -6.739   9.053  66.286  1.00  0.00    -0.069 OA 
ENDBRANCH  16  17
ENDBRANCH  15  16
ENDBRANCH  14  15
ENDBRANCH  11  14
ENDBRANCH   6   8
TORSDOF 5
ENDMDL
MODEL      260
REMARK 921   NORMALIZED FREE ENERGY PREDICTED BY IDOCK:   -0.44 KCAL/MOL
REMARK 922        TOTAL FREE ENERGY PREDICTED BY IDOCK:   -1.21 KCAL/MOL
REMARK 923 INTER-LIGAND FREE ENERGY PREDICTED BY IDOCK:   -1.81 KCAL/MOL
REMARK 924 INTRA-LIGAND FREE ENERGY PREDICTED BY IDOCK:    0.60 KCAL/MOL
REMARK 927      BINDING AFFINITY PREDICTED BY RF-SCORE:    0.00 PKD
ROOT
HETATM    1 CL   UNL     1     -11.646   8.976  68.296  1.00  0.00     0.893 Cl 
HETATM    2  C   UNL     1     -10.796   8.404  69.681  1.00  0.00    -0.148 A  
HETATM    3  C   UNL     1     -10.690   9.213  70.805  1.00  0.00    -0.327 A  
HETATM    4  C   UNL     1      -9.996   8.745  71.915  1.00  0.00    -0.401 A  
HETATM    5  C   UNL     1      -9.400   7.480  71.882  1.00  0.00    -0.171 A  
HETATM    6  C   UNL     1      -9.470   6.655  70.749  1.00  0.00    -0.168 A  
HETATM    7  C   UNL     1     -10.201   7.141  69.654  1.00  0.00    -0.215 A  
ENDROOT
BRANCH   6   8
HETATM    8  N   UNL     1      -8.771   5.463  70.699  1.00  0.00    -0.126 NA 
HETATM    9  C   UNL     1      -7.327   5.422  70.974  1.00  0.00    -0.083 C  
HETATM   10  C   UNL     1      -6.968   4.091  71.674  1.00  0.00    -0.031 C  
HETATM   11  N   UNL     1      -7.396   2.868  70.951  1.00  0.00    -0.033 NA 
HETATM   12  C   UNL     1      -9.311   4.284  70.000  1.00  0.00    -0.164 C  
HETATM   13  C   UNL     1      -8.860   2.984  70.716  1.00  0.00    -0.083 C  
BRANCH  11  14
HETATM   14  C   UNL     1      -6.678   2.667  69.681  1.00  0.00    -0.033 C  
BRANCH  14  15
HETATM   15  C   UNL     1      -6.391   3.975  68.942  1.00  0.00    -0.032 C  
BRANCH  15  16
HETATM   16  C   UNL     1      -6.077   3.712  67.472  1.00  0.00    -0.028 C  
BRANCH  16  17
HETATM   17  N   UNL     1      -6.456   4.835  66.650  1.00  0.00    -0.040 N  
HETATM   18  N   UNL     1      -6.541   6.122  67.146  1.00  0.00    -0.053 NA 
HETATM   19  C   UNL     1      -7.074   6.787  66.168  1.00  0.00    -0.066 A  
HETATM   20  C   UNL     1      -7.387   8.232  66.129  1.00  0.00    -0.077 A  
HETATM   21  C   UNL     1      -7.949   8.719  65.009  1.00  0.00    -0.132 A  
HETATM   22  C   UNL     1      -8.249   7.860  63.877  1.00  0.00    -0.020 A  
HETATM   23  C   UNL     1      -7.959   6.550  63.935  1.00  0.00    -0.080 A  
HETATM   24  N   UNL     1      -7.375   6.053  65.065  1.00  0.00    -0.070 N  
HETATM   25  C   UNL     1      -7.009   4.760  65.359  1.00  0.00    -0.062 C  
HETATM   26  O   UNL     1      -7.157   3.756  64.672  1.00  0.00    -0.058 OA 
ENDBRANCH  16  17
ENDBRANCH  15  16
ENDBRANCH  14  15
ENDBRANCH  11  14
ENDBRANCH   6   8
TORSDOF 5
ENDMDL
MODEL      261
REMARK 921   NORMALIZED FREE ENERGY PREDICTED BY IDOCK:   -0.20 KCAL/MOL
REMARK 922        TOTAL FREE ENERGY PREDICTED BY IDOCK:   -0.89 KCAL/MOL
REMARK 923 INTER-LIGAND FREE ENERGY PREDICTED BY IDOCK:   -1.79 KCAL/MOL
REMARK 924 INTRA-LIGAND FREE ENERGY PREDICTED BY IDOCK:    0.91 KCAL/MOL
REMARK 927      BINDING AFFINITY PREDICTED BY RF-SCORE:    0.00 PKD
ROOT
HETATM    1 CL   UNL     1     -11.345   7.546  67.490  1.00  0.00     0.275 Cl 
HETATM    2  C   UNL     1     -10.355   7.138  68.839  1.00  0.00    -0.196 A  
HETATM    3  C   UNL     1     -10.257   8.017  69.910  1.00  0.00    -0.204 A  
HETATM    4  C   UNL     1      -9.450   7.681  70.992  1.00  0.00    -0.164 A  
HETATM    5  C   UNL     1      -8.737   6.477  70.983  1.00  0.00    -0.138 A  
HETATM    6  C   UNL     1      -8.800   5.585  69.901  1.00  0.00    -0.127 A  
HETATM    7  C   UNL     1      -9.643   5.936  68.837  1.00  0.00    -0.158 A  
ENDROOT
BRANCH   6   8
HETATM    8  N   UNL     1      -7.992   4.462  69.864  1.00  0.00    -0.056 NA 
HETATM    9  C   UNL     1      -6.543   4.567  70.091  1.00  0.00    -0.036 C  
HETATM   10  C   UNL     1      -6.038   3.300  70.819  1.00  0.00    -0.018 C  
HETATM   11  N   UNL     1      -6.370   2.018  70.149  1.00  0.00    -0.024 NA 
HETATM   12  C   UNL     1      -8.440   3.215  69.221  1.00  0.00    -0.062 C  
HETATM   13  C   UNL     1      -7.845   1.988  69.961  1.00  0.00    -0.042 C  
BRANCH  11  14
HETATM   14  C   UNL     1      -5.677   1.843  68.863  1.00  0.00    -0.022 C  
BRANCH  14  15
HETATM   15  C   UNL     1      -5.684   3.107  68.000  1.00  0.00    -0.019 C  
BRANCH  15  16
HETATM   16  C   UNL     1      -5.195   2.804  66.587  1.00  0.00    -0.008 C  
BRANCH  16  17
HETATM   17  N   UNL     1      -6.232   3.050  65.615  1.00  0.00    -0.023 N  
HETATM   18  N   UNL     1      -6.156   4.076  64.693  1.00  0.00    -0.022 NA 
HETATM   19  C   UNL     1      -7.331   4.072  64.141  1.00  0.00    -0.062 A  
HETATM   20  C   UNL     1      -7.819   4.957  63.061  1.00  0.00    -0.071 A  
HETATM   21  C   UNL     1      -9.084   4.786  62.637  1.00  0.00    -0.087 A  
HETATM   22  C   UNL     1      -9.947   3.776  63.223  1.00  0.00    -0.162 A  
HETATM   23  C   UNL     1      -9.484   2.985  64.204  1.00  0.00    -0.139 A  
HETATM   24  N   UNL     1      -8.196   3.145  64.628  1.00  0.00    -0.089 N  
HETATM   25  C   UNL     1      -7.516   2.476  65.619  1.00  0.00    -0.068 C  
HETATM   26  O   UNL     1      -7.934   1.598  66.365  1.00  0.00    -0.069 OA 
ENDBRANCH  16  17
ENDBRANCH  15  16
ENDBRANCH  14  15
ENDBRANCH  11  14
ENDBRANCH   6   8
TORSDOF 5
ENDMDL
MODEL      262
REMARK 921   NORMALIZED FREE ENERGY PREDICTED BY IDOCK:    0.77 KCAL/MOL
REMARK 922        TOTAL FREE ENERGY PREDICTED BY IDOCK:    0.37 KCAL/MOL
REMARK 923 INTER-LIGAND FREE ENERGY PREDICTED BY IDOCK:    0.30 KCAL/MOL
REMARK 924 INTRA-LIGAND FREE ENERGY PREDICTED BY IDOCK:    0.06 KCAL/MOL
REMARK 927      BINDING AFFINITY PREDICTED BY RF-SCORE:    0.00 PKD
ROOT
HETATM    1 CL   UNL     1     -12.154   6.618  66.531  1.00  0.00     2.746 Cl 
HETATM    2  C   UNL     1     -10.882   6.027  67.531  1.00  0.00    -0.302 A  
HETATM    3  C   UNL     1     -10.731   6.525  68.818  1.00  0.00    -0.320 A  
HETATM    4  C   UNL     1      -9.697   6.046  69.615  1.00  0.00    -0.188 A  
HETATM    5  C   UNL     1      -8.814   5.086  69.108  1.00  0.00    -0.114 A  
HETATM    6  C   UNL     1      -8.930   4.586  67.802  1.00  0.00    -0.116 A  
HETATM    7  C   UNL     1      -9.999   5.066  67.031  1.00  0.00    -0.231 A  
ENDROOT
BRANCH   6   8
HETATM    8  N   UNL     1      -7.974   3.730  67.286  1.00  0.00    -0.090 NA 
HETATM    9  C   UNL     1      -6.540   4.009  67.456  1.00  0.00    -0.046 C  
HETATM   10  C   UNL     1      -5.766   2.679  67.604  1.00  0.00    -0.019 C  
HETATM   11  N   UNL     1      -5.981   1.703  66.506  1.00  0.00    -0.019 NA 
HETATM   12  C   UNL     1      -8.304   2.755  66.233  1.00  0.00    -0.094 C  
HETATM   13  C   UNL     1      -7.447   1.473  66.402  1.00  0.00    -0.060 C  
BRANCH  11  14
HETATM   14  C   UNL     1      -5.431   2.154  65.217  1.00  0.00    -0.008 C  
BRANCH  14  15
HETATM   15  C   UNL     1      -5.222   3.668  65.152  1.00  0.00    -0.009 C  
BRANCH  15  16
HETATM   16  C   UNL     1      -5.635   4.216  63.789  1.00  0.00    -0.013 C  
BRANCH  16  17
HETATM   17  N   UNL     1      -6.053   5.594  63.887  1.00  0.00    -0.024 N  
HETATM   18  N   UNL     1      -5.153   6.634  64.021  1.00  0.00    -0.025 NA 
HETATM   19  C   UNL     1      -5.912   7.660  64.254  1.00  0.00    -0.048 A  
HETATM   20  C   UNL     1      -5.489   9.061  64.466  1.00  0.00    -0.055 A  
HETATM   21  C   UNL     1      -6.447   9.974  64.702  1.00  0.00    -0.125 A  
HETATM   22  C   UNL     1      -7.850   9.602  64.758  1.00  0.00    -0.128 A  
HETATM   23  C   UNL     1      -8.212   8.323  64.565  1.00  0.00    -0.135 A  
HETATM   24  N   UNL     1      -7.243   7.394  64.311  1.00  0.00    -0.073 N  
HETATM   25  C   UNL     1      -7.369   6.041  64.103  1.00  0.00    -0.069 C  
HETATM   26  O   UNL     1      -8.388   5.361  64.131  1.00  0.00    -0.133 OA 
ENDBRANCH  16  17
ENDBRANCH  15  16
ENDBRANCH  14  15
ENDBRANCH  11  14
ENDBRANCH   6   8
TORSDOF 5
ENDMDL
MODEL      263
REMARK 921   NORMALIZED FREE ENERGY PREDICTED BY IDOCK:    2.17 KCAL/MOL
REMARK 922        TOTAL FREE ENERGY PREDICTED BY IDOCK:    2.17 KCAL/MOL
REMARK 923 INTER-LIGAND FREE ENERGY PREDICTED BY IDOCK:    2.07 KCAL/MOL
REMARK 924 INTRA-LIGAND FREE ENERGY PREDICTED BY IDOCK:    0.10 KCAL/MOL
REMARK 927      BINDING AFFINITY PREDICTED BY RF-SCORE:    0.00 PKD
ROOT
HETATM    1 CL   UNL     1     -10.243  14.396  70.357  1.00  0.00     0.757 Cl 
HETATM    2  C   UNL     1      -8.698  13.878  69.797  1.00  0.00     1.439 A  
HETATM    3  C   UNL     1      -7.628  14.763  69.814  1.00  0.00     0.025 A  
HETATM    4  C   UNL     1      -6.387  14.337  69.355  1.00  0.00    -0.120 A  
HETATM    5  C   UNL     1      -6.234  13.035  68.866  1.00  0.00    -0.088 A  
HETATM    6  C   UNL     1      -7.306  12.130  68.814  1.00  0.00    -0.090 A  
HETATM    7  C   UNL     1      -8.540  12.578  69.311  1.00  0.00     0.905 A  
ENDROOT
BRANCH   6   8
HETATM    8  N   UNL     1      -7.158  10.892  68.215  1.00  0.00    -0.073 NA 
HETATM    9  C   UNL     1      -6.327  10.731  67.012  1.00  0.00    -0.078 C  
HETATM   10  C   UNL     1      -5.642   9.345  67.036  1.00  0.00    -0.040 C  
HETATM   11  N   UNL     1      -6.564   8.193  67.193  1.00  0.00    -0.057 NA 
HETATM   12  C   UNL     1      -8.099   9.792  68.482  1.00  0.00    -0.104 C  
HETATM   13  C   UNL     1      -7.360   8.430  68.427  1.00  0.00    -0.094 C  
BRANCH  11  14
HETATM   14  C   UNL     1      -7.447   7.998  66.031  1.00  0.00    -0.077 C  
BRANCH  14  15
HETATM   15  C   UNL     1      -8.886   8.448  66.291  1.00  0.00    -0.190 C  
BRANCH  15  16
HETATM   16  C   UNL     1      -9.417   9.276  65.125  1.00  0.00    -0.114 C  
BRANCH  16  17
HETATM   17  N   UNL     1      -9.934  10.543  65.580  1.00  0.00    -0.262 N  
HETATM   18  N   UNL     1     -11.259  10.721  65.931  1.00  0.00     0.166 NA 
HETATM   19  C   UNL     1     -11.355  12.003  66.102  1.00  0.00    -0.351 A  
HETATM   20  C   UNL     1     -12.555  12.768  66.505  1.00  0.00     0.540 A  
HETATM   21  C   UNL     1     -12.436  14.103  66.618  1.00  0.00    -0.255 A  
HETATM   22  C   UNL     1     -11.179  14.776  66.345  1.00  0.00    -0.342 A  
HETATM   23  C   UNL     1     -10.103  14.062  65.977  1.00  0.00    -0.315 A  
HETATM   24  N   UNL     1     -10.214  12.705  65.875  1.00  0.00    -0.269 N  
HETATM   25  C   UNL     1      -9.268  11.780  65.502  1.00  0.00    -0.057 C  
HETATM   26  O   UNL     1      -8.112  11.979  65.147  1.00  0.00     1.215 OA 
ENDBRANCH  16  17
ENDBRANCH  15  16
ENDBRANCH  14  15
ENDBRANCH  11  14
ENDBRANCH   6   8
TORSDOF 5
ENDMDL
MODEL      264
REMARK 921   NORMALIZED FREE ENERGY PREDICTED BY IDOCK:    3.58 KCAL/MOL
REMARK 922        TOTAL FREE ENERGY PREDICTED BY IDOCK:    3.99 KCAL/MOL
REMARK 923 INTER-LIGAND FREE ENERGY PREDICTED BY IDOCK:    3.02 KCAL/MOL
REMARK 924 INTRA-LIGAND FREE ENERGY PREDICTED BY IDOCK:    0.96 KCAL/MOL
REMARK 927      BINDING AFFINITY PREDICTED BY RF-SCORE:    0.00 PKD
ROOT
HETATM    1 CL   UNL     1      -6.396  21.369  65.607  1.00  0.00    -0.048 Cl 
HETATM    2  C   UNL     1      -7.364  20.165  66.368  1.00  0.00    -0.281 A  
HETATM    3  C   UNL     1      -8.615  20.504  66.867  1.00  0.00    -0.271 A  
HETATM    4  C   UNL     1      -9.387  19.526  67.484  1.00  0.00    -0.403 A  
HETATM    5  C   UNL     1      -8.891  18.223  67.612  1.00  0.00    -0.261 A  
HETATM    6  C   UNL     1      -7.619  17.863  67.139  1.00  0.00    -0.201 A  
HETATM    7  C   UNL     1      -6.874  18.863  66.495  1.00  0.00    -0.223 A  
ENDROOT
BRANCH   6   8
HETATM    8  N   UNL     1      -7.105  16.603  67.386  1.00  0.00    -0.146 NA 
HETATM    9  C   UNL     1      -7.193  15.540  66.374  1.00  0.00     1.192 C  
HETATM   10  C   UNL     1      -5.941  14.637  66.458  1.00  0.00     3.283 C  
HETATM   11  N   UNL     1      -5.673  14.060  67.799  1.00  0.00    -0.287 NA 
HETATM   12  C   UNL     1      -6.819  16.145  68.757  1.00  0.00    -0.144 C  
HETATM   13  C   UNL     1      -5.594  15.194  68.759  1.00  0.00    -0.090 C  
BRANCH  11  14
HETATM   14  C   UNL     1      -6.693  13.088  68.223  1.00  0.00    -0.096 C  
BRANCH  14  15
HETATM   15  C   UNL     1      -7.823  13.721  69.039  1.00  0.00     0.097 C  
BRANCH  15  16
HETATM   16  C   UNL     1      -9.159  13.586  68.315  1.00  0.00    -0.189 C  
BRANCH  16  17
HETATM   17  N   UNL     1     -10.213  13.229  69.232  1.00  0.00     0.229 N  
HETATM   18  N   UNL     1     -11.002  12.108  69.056  1.00  0.00    -0.226 NA 
HETATM   19  C   UNL     1     -11.920  12.240  69.964  1.00  0.00    -0.304 A  
HETATM   20  C   UNL     1     -13.037  11.316  70.253  1.00  0.00     0.233 A  
HETATM   21  C   UNL     1     -13.886  11.652  71.241  1.00  0.00     1.323 A  
HETATM   22  C   UNL     1     -13.721  12.882  71.994  1.00  0.00    -0.393 A  
HETATM   23  C   UNL     1     -12.700  13.708  71.713  1.00  0.00    -0.265 A  
HETATM   24  N   UNL     1     -11.827  13.365  70.720  1.00  0.00    -0.121 N  
HETATM   25  C   UNL     1     -10.735  14.052  70.247  1.00  0.00     0.706 C  
HETATM   26  O   UNL     1     -10.318  15.150  70.599  1.00  0.00    -0.091 OA 
ENDBRANCH  16  17
ENDBRANCH  15  16
ENDBRANCH  14  15
ENDBRANCH  11  14
ENDBRANCH   6   8
TORSDOF 5
ENDMDL
MODEL      265
REMARK 921   NORMALIZED FREE ENERGY PREDICTED BY IDOCK:    8.39 KCAL/MOL
REMARK 922        TOTAL FREE ENERGY PREDICTED BY IDOCK:   10.21 KCAL/MOL
REMARK 923 INTER-LIGAND FREE ENERGY PREDICTED BY IDOCK:    9.41 KCAL/MOL
REMARK 924 INTRA-LIGAND FREE ENERGY PREDICTED BY IDOCK:    0.81 KCAL/MOL
REMARK 927      BINDING AFFINITY PREDICTED BY RF-SCORE:    0.00 PKD
ROOT
HETATM    1 CL   UNL     1     -12.970   6.111  65.307  1.00  0.00     7.026 Cl 
HETATM    2  C   UNL     1     -11.885   5.919  66.631  1.00  0.00     1.969 A  
HETATM    3  C   UNL     1     -12.156   6.548  67.839  1.00  0.00     2.791 A  
HETATM    4  C   UNL     1     -11.271   6.391  68.900  1.00  0.00    -0.385 A  
HETATM    5  C   UNL     1     -10.115   5.621  68.736  1.00  0.00    -0.245 A  
HETATM    6  C   UNL     1      -9.806   4.996  67.517  1.00  0.00    -0.165 A  
HETATM    7  C   UNL     1     -10.731   5.147  66.473  1.00  0.00    -0.262 A  
ENDROOT
BRANCH   6   8
HETATM    8  N   UNL     1      -8.599   4.342  67.345  1.00  0.00    -0.103 NA 
HETATM    9  C   UNL     1      -8.326   3.069  68.029  1.00  0.00    -0.079 C  
HETATM   10  C   UNL     1      -7.447   2.172  67.127  1.00  0.00    -0.060 C  
HETATM   11  N   UNL     1      -6.183   2.797  66.664  1.00  0.00    -0.024 NA 
HETATM   12  C   UNL     1      -7.414   5.042  66.822  1.00  0.00    -0.087 C  
HETATM   13  C   UNL     1      -6.544   4.070  65.983  1.00  0.00    -0.041 C  
BRANCH  11  14
HETATM   14  C   UNL     1      -5.227   3.043  67.755  1.00  0.00    -0.012 C  
BRANCH  14  15
HETATM   15  C   UNL     1      -5.892   3.106  69.132  1.00  0.00    -0.023 C  
BRANCH  15  16
HETATM   16  C   UNL     1      -5.972   4.545  69.633  1.00  0.00    -0.018 C  
BRANCH  16  17
HETATM   17  N   UNL     1      -6.726   4.626  70.861  1.00  0.00    -0.034 N  
HETATM   18  N   UNL     1      -7.211   3.506  71.509  1.00  0.00    -0.035 NA 
HETATM   19  C   UNL     1      -7.964   4.001  72.442  1.00  0.00    -0.082 A  
HETATM   20  C   UNL     1      -8.736   3.259  73.462  1.00  0.00    -0.077 A  
HETATM   21  C   UNL     1      -9.463   3.975  74.338  1.00  0.00    -0.130 A  
HETATM   22  C   UNL     1      -9.501   5.426  74.282  1.00  0.00    -0.142 A  
HETATM   23  C   UNL     1      -8.796   6.079  73.345  1.00  0.00    -0.126 A  
HETATM   24  N   UNL     1      -8.044   5.357  72.462  1.00  0.00    -0.103 N  
HETATM   25  C   UNL     1      -7.265   5.799  71.419  1.00  0.00    -0.078 C  
HETATM   26  O   UNL     1      -7.098   6.950  71.032  1.00  0.00    -0.068 OA 
ENDBRANCH  16  17
ENDBRANCH  15  16
ENDBRANCH  14  15
ENDBRANCH  11  14
ENDBRANCH   6   8
TORSDOF 5
ENDMDL
