MODEL        1
REMARK 921   NORMALIZED FREE ENERGY PREDICTED BY IDOCK:   -7.06 KCAL/MOL
REMARK 922        TOTAL FREE ENERGY PREDICTED BY IDOCK:  -12.87 KCAL/MOL
REMARK 923 INTER-LIGAND FREE ENERGY PREDICTED BY IDOCK:  -10.78 KCAL/MOL
REMARK 924 INTRA-LIGAND FREE ENERGY PREDICTED BY IDOCK:   -2.09 KCAL/MOL
REMARK 927      BINDING AFFINITY PREDICTED BY RF-SCORE:    0.00 PKD
ROOT
HETATM    1  C   UNL     1     -10.495  12.976  67.837  1.00  0.00    -0.234 C  
HETATM    2  C   UNL     1      -9.066  12.898  68.373  1.00  0.00    -0.126 C  
HETATM    3  C   UNL     1      -8.367  11.960  67.384  1.00  0.00    -0.163 C  
HETATM    4  O   UNL     1      -7.511  11.063  68.077  1.00  0.00    -0.086 OA 
HETATM    5  C   UNL     1      -9.482  11.158  66.661  1.00  0.00    -0.204 C  
HETATM    6  H   UNL     1      -7.078  10.481  67.463  1.00  0.00     0.000 HD 
HETATM    7  C   UNL     1     -12.332  10.360  70.716  1.00  0.00    -0.463 A  
HETATM    8  C   UNL     1     -10.780  11.544  67.416  1.00  0.00    -0.275 C  
HETATM    9  C   UNL     1     -13.067  10.828  71.794  1.00  0.00    -0.573 A  
HETATM   10  C   UNL     1     -11.013  10.634  68.631  1.00  0.00    -0.291 C  
HETATM   11  C   UNL     1     -13.279  12.195  71.933  1.00  0.00    -0.474 A  
HETATM   12  C   UNL     1     -11.817  11.248  69.757  1.00  0.00    -0.437 A  
HETATM   13  C   UNL     1     -12.750  13.116  71.014  1.00  0.00    -0.277 A  
HETATM   14  C   UNL     1     -12.005  12.650  69.901  1.00  0.00    -0.365 A  
HETATM   15  C   UNL     1     -11.519  13.553  68.796  1.00  0.00    -0.349 C  
ENDROOT
BRANCH   5  16
HETATM   16  C   UNL     1      -9.622  11.532  65.169  1.00  0.00    -0.235 C  
BRANCH  16  17
HETATM   17  C   UNL     1     -10.871  10.994  64.469  1.00  0.00    -0.257 C  
BRANCH  17  18
HETATM   18  C   UNL     1     -11.772  12.048  63.812  1.00  0.00    -0.481 C  
HETATM   19  O   UNL     1     -12.539  11.436  62.776  1.00  0.00    -0.952 OA 
HETATM   20  H   UNL     1     -13.096  12.087  62.369  1.00  0.00     0.000 HD 
BRANCH  18  21
HETATM   21  C   UNL     1     -12.761  12.658  64.816  1.00  0.00    -0.460 C  
BRANCH  21  22
HETATM   22  C   UNL     1     -12.543  14.157  65.024  1.00  0.00    -0.399 C  
BRANCH  22  23
HETATM   23  C   UNL     1     -11.166  14.615  64.553  1.00  0.00    -0.290 C  
BRANCH  23  24
HETATM   24  C   UNL     1     -10.740  15.864  65.325  1.00  0.00    -0.442 C  
HETATM   25  C   UNL     1      -9.374  15.691  65.963  1.00  0.00    -0.384 C  
ENDBRANCH  23  24
ENDBRANCH  22  23
ENDBRANCH  21  22
ENDBRANCH  18  21
ENDBRANCH  17  18
ENDBRANCH  16  17
ENDBRANCH   5  16
BRANCH  13  26
HETATM   26  O   UNL     1     -13.112  14.405  71.338  1.00  0.00    -0.316 OA 
BRANCH  26  27
HETATM   27  C   UNL     1     -13.489  14.684  72.681  1.00  0.00    -0.483 C  
HETATM   28  C   UNL     1     -12.719  15.860  73.253  1.00  0.00    -0.539 C  
HETATM   29  O   UNL     1     -11.887  16.444  72.364  1.00  0.00    -0.533 OA 
HETATM   30  O   UNL     1     -12.842  16.255  74.404  1.00  0.00    -0.689 OA 
ENDBRANCH  26  27
ENDBRANCH  13  26
TORSDOF 9
ENDMDL
MODEL        2
REMARK 921   NORMALIZED FREE ENERGY PREDICTED BY IDOCK:   -6.95 KCAL/MOL
REMARK 922        TOTAL FREE ENERGY PREDICTED BY IDOCK:  -12.70 KCAL/MOL
REMARK 923 INTER-LIGAND FREE ENERGY PREDICTED BY IDOCK:  -10.00 KCAL/MOL
REMARK 924 INTRA-LIGAND FREE ENERGY PREDICTED BY IDOCK:   -2.71 KCAL/MOL
REMARK 927      BINDING AFFINITY PREDICTED BY RF-SCORE:    0.00 PKD
ROOT
HETATM    1  C   UNL     1     -11.661  12.509  65.882  1.00  0.00    -0.480 C  
HETATM    2  C   UNL     1     -12.770  12.970  64.936  1.00  0.00    -0.456 C  
HETATM    3  C   UNL     1     -12.213  12.637  63.549  1.00  0.00    -0.547 C  
HETATM    4  O   UNL     1     -12.500  13.688  62.637  1.00  0.00    -0.733 OA 
HETATM    5  C   UNL     1     -10.675  12.493  63.705  1.00  0.00    -0.483 C  
HETATM    6  H   UNL     1     -12.154  13.482  61.777  1.00  0.00     0.000 HD 
HETATM    7  C   UNL     1     -10.048  16.388  66.809  1.00  0.00    -0.287 A  
HETATM    8  C   UNL     1     -10.396  12.943  65.161  1.00  0.00    -0.320 C  
HETATM    9  C   UNL     1     -10.324  17.052  67.993  1.00  0.00    -0.341 A  
HETATM   10  C   UNL     1     -10.189  14.463  65.249  1.00  0.00    -0.416 C  
HETATM   11  C   UNL     1     -11.105  16.428  68.960  1.00  0.00    -0.315 A  
HETATM   12  C   UNL     1     -10.532  15.089  66.583  1.00  0.00    -0.284 A  
HETATM   13  C   UNL     1     -11.637  15.144  68.755  1.00  0.00    -0.349 A  
HETATM   14  C   UNL     1     -11.354  14.450  67.552  1.00  0.00    -0.345 A  
HETATM   15  C   UNL     1     -11.767  13.021  67.307  1.00  0.00    -0.429 C  
ENDROOT
BRANCH   5  16
HETATM   16  C   UNL     1     -10.184  11.041  63.510  1.00  0.00    -0.424 C  
BRANCH  16  17
HETATM   17  C   UNL     1      -9.099  10.576  64.483  1.00  0.00    -0.251 C  
BRANCH  17  18
HETATM   18  C   UNL     1      -9.523   9.495  65.485  1.00  0.00    -0.268 C  
HETATM   19  O   UNL     1      -8.888   8.262  65.149  1.00  0.00    -0.363 OA 
HETATM   20  H   UNL     1      -9.150   7.593  65.770  1.00  0.00     0.000 HD 
BRANCH  18  21
HETATM   21  C   UNL     1      -9.104   9.852  66.919  1.00  0.00    -0.162 C  
BRANCH  21  22
HETATM   22  C   UNL     1      -8.011  10.919  66.967  1.00  0.00    -0.132 C  
BRANCH  22  23
HETATM   23  C   UNL     1      -8.248  11.947  68.070  1.00  0.00    -0.157 C  
BRANCH  23  24
HETATM   24  C   UNL     1      -7.604  13.279  67.688  1.00  0.00    -0.171 C  
HETATM   25  C   UNL     1      -7.778  14.320  68.779  1.00  0.00    -0.134 C  
ENDBRANCH  23  24
ENDBRANCH  22  23
ENDBRANCH  21  22
ENDBRANCH  18  21
ENDBRANCH  17  18
ENDBRANCH  16  17
ENDBRANCH   5  16
BRANCH  13  26
HETATM   26  O   UNL     1     -12.350  14.722  69.854  1.00  0.00    -0.315 OA 
BRANCH  26  27
HETATM   27  C   UNL     1     -12.636  15.666  70.879  1.00  0.00    -0.449 C  
HETATM   28  C   UNL     1     -13.680  15.147  71.852  1.00  0.00    -0.474 C  
HETATM   29  O   UNL     1     -14.078  13.883  71.593  1.00  0.00    -0.334 OA 
HETATM   30  O   UNL     1     -14.118  15.801  72.788  1.00  0.00    -0.576 OA 
ENDBRANCH  26  27
ENDBRANCH  13  26
TORSDOF 9
ENDMDL
MODEL        3
REMARK 921   NORMALIZED FREE ENERGY PREDICTED BY IDOCK:   -6.88 KCAL/MOL
REMARK 922        TOTAL FREE ENERGY PREDICTED BY IDOCK:  -12.59 KCAL/MOL
REMARK 923 INTER-LIGAND FREE ENERGY PREDICTED BY IDOCK:  -10.91 KCAL/MOL
REMARK 924 INTRA-LIGAND FREE ENERGY PREDICTED BY IDOCK:   -1.67 KCAL/MOL
REMARK 927      BINDING AFFINITY PREDICTED BY RF-SCORE:    0.00 PKD
ROOT
HETATM    1  C   UNL     1     -11.701  12.909  66.292  1.00  0.00    -0.457 C  
HETATM    2  C   UNL     1     -12.755  13.434  65.317  1.00  0.00    -0.481 C  
HETATM    3  C   UNL     1     -12.225  12.987  63.951  1.00  0.00    -0.437 C  
HETATM    4  O   UNL     1     -12.403  14.020  62.992  1.00  0.00    -1.101 OA 
HETATM    5  C   UNL     1     -10.710  12.701  64.128  1.00  0.00    -0.435 C  
HETATM    6  H   UNL     1     -12.074  13.743  62.144  1.00  0.00     0.000 HD 
HETATM    7  C   UNL     1      -9.720  16.649  67.066  1.00  0.00    -0.253 A  
HETATM    8  C   UNL     1     -10.396  13.185  65.566  1.00  0.00    -0.299 C  
HETATM    9  C   UNL     1      -9.936  17.389  68.218  1.00  0.00    -0.320 A  
HETATM   10  C   UNL     1     -10.041  14.680  65.589  1.00  0.00    -0.389 C  
HETATM   11  C   UNL     1     -10.780  16.887  69.203  1.00  0.00    -0.298 A  
HETATM   12  C   UNL     1     -10.329  15.395  66.892  1.00  0.00    -0.277 A  
HETATM   13  C   UNL     1     -11.434  15.653  69.049  1.00  0.00    -0.363 A  
HETATM   14  C   UNL     1     -11.214  14.882  67.880  1.00  0.00    -0.324 A  
HETATM   15  C   UNL     1     -11.764  13.491  67.693  1.00  0.00    -0.398 C  
ENDROOT
BRANCH   5  16
HETATM   16  C   UNL     1     -10.362  11.201  64.001  1.00  0.00    -0.437 C  
BRANCH  16  17
HETATM   17  C   UNL     1      -9.404  10.654  65.061  1.00  0.00    -0.259 C  
BRANCH  17  18
HETATM   18  C   UNL     1     -10.011   9.658  66.057  1.00  0.00    -0.274 C  
HETATM   19  O   UNL     1      -9.465   8.361  65.822  1.00  0.00    -0.409 OA 
HETATM   20  H   UNL     1      -9.841   7.744  66.438  1.00  0.00     0.000 HD 
BRANCH  18  21
HETATM   21  C   UNL     1      -9.687  10.036  67.510  1.00  0.00    -0.189 C  
BRANCH  21  22
HETATM   22  C   UNL     1     -10.880   9.855  68.448  1.00  0.00    -0.263 C  
BRANCH  22  23
HETATM   23  C   UNL     1     -10.611  10.408  69.845  1.00  0.00    -0.299 C  
BRANCH  23  24
HETATM   24  C   UNL     1     -11.810  10.135  70.753  1.00  0.00    -0.443 C  
HETATM   25  C   UNL     1     -12.623  11.392  71.001  1.00  0.00    -0.487 C  
ENDBRANCH  23  24
ENDBRANCH  22  23
ENDBRANCH  21  22
ENDBRANCH  18  21
ENDBRANCH  17  18
ENDBRANCH  16  17
ENDBRANCH   5  16
BRANCH  13  26
HETATM   26  O   UNL     1     -12.191  15.352  70.159  1.00  0.00    -0.340 OA 
BRANCH  26  27
HETATM   27  C   UNL     1     -11.520  15.067  71.380  1.00  0.00    -0.318 C  
HETATM   28  C   UNL     1     -12.390  15.363  72.587  1.00  0.00    -0.396 C  
HETATM   29  O   UNL     1     -13.637  15.770  72.267  1.00  0.00    -0.477 OA 
HETATM   30  O   UNL     1     -12.010  15.238  73.744  1.00  0.00    -0.490 OA 
ENDBRANCH  26  27
ENDBRANCH  13  26
TORSDOF 9
ENDMDL
MODEL        4
REMARK 921   NORMALIZED FREE ENERGY PREDICTED BY IDOCK:   -6.54 KCAL/MOL
REMARK 922        TOTAL FREE ENERGY PREDICTED BY IDOCK:  -12.07 KCAL/MOL
REMARK 923 INTER-LIGAND FREE ENERGY PREDICTED BY IDOCK:  -10.20 KCAL/MOL
REMARK 924 INTRA-LIGAND FREE ENERGY PREDICTED BY IDOCK:   -1.87 KCAL/MOL
REMARK 927      BINDING AFFINITY PREDICTED BY RF-SCORE:    0.00 PKD
ROOT
HETATM    1  C   UNL     1     -11.819  12.902  66.207  1.00  0.00    -0.477 C  
HETATM    2  C   UNL     1     -12.826  13.435  65.189  1.00  0.00    -0.380 C  
HETATM    3  C   UNL     1     -12.286  12.917  63.853  1.00  0.00    -0.449 C  
HETATM    4  O   UNL     1     -12.397  13.921  62.853  1.00  0.00    -1.023 OA 
HETATM    5  C   UNL     1     -10.789  12.572  64.076  1.00  0.00    -0.446 C  
HETATM    6  H   UNL     1     -12.061  13.599  62.024  1.00  0.00     0.000 HD 
HETATM    7  C   UNL     1      -9.696  16.580  66.895  1.00  0.00    -0.259 A  
HETATM    8  C   UNL     1     -10.486  13.096  65.503  1.00  0.00    -0.297 C  
HETATM    9  C   UNL     1      -9.905  17.370  68.014  1.00  0.00    -0.288 A  
HETATM   10  C   UNL     1     -10.068  14.573  65.482  1.00  0.00    -0.394 C  
HETATM   11  C   UNL     1     -10.792  16.941  68.996  1.00  0.00    -0.255 A  
HETATM   12  C   UNL     1     -10.354  15.347  66.751  1.00  0.00    -0.279 A  
HETATM   13  C   UNL     1     -11.495  15.731  68.870  1.00  0.00    -0.378 A  
HETATM   14  C   UNL     1     -11.282  14.909  67.734  1.00  0.00    -0.329 A  
HETATM   15  C   UNL     1     -11.888  13.537  67.584  1.00  0.00    -0.399 C  
ENDROOT
BRANCH   5  16
HETATM   16  C   UNL     1     -10.504  11.056  64.010  1.00  0.00    -0.433 C  
BRANCH  16  17
HETATM   17  C   UNL     1      -9.163  10.664  63.387  1.00  0.00    -0.289 C  
BRANCH  17  18
HETATM   18  C   UNL     1      -8.161   9.988  64.332  1.00  0.00    -0.156 C  
HETATM   19  O   UNL     1      -7.553  10.977  65.163  1.00  0.00    -0.354 OA 
HETATM   20  H   UNL     1      -6.933  10.559  65.748  1.00  0.00     0.000 HD 
BRANCH  18  21
HETATM   21  C   UNL     1      -8.846   8.970  65.255  1.00  0.00    -0.234 C  
BRANCH  21  22
HETATM   22  C   UNL     1      -8.759   9.358  66.731  1.00  0.00    -0.138 C  
BRANCH  22  23
HETATM   23  C   UNL     1     -10.132   9.604  67.350  1.00  0.00    -0.257 C  
BRANCH  23  24
HETATM   24  C   UNL     1     -10.007  10.578  68.522  1.00  0.00    -0.181 C  
HETATM   25  C   UNL     1     -11.172  10.447  69.486  1.00  0.00    -0.325 C  
ENDBRANCH  23  24
ENDBRANCH  22  23
ENDBRANCH  21  22
ENDBRANCH  18  21
ENDBRANCH  17  18
ENDBRANCH  16  17
ENDBRANCH   5  16
BRANCH  13  26
HETATM   26  O   UNL     1     -12.290  15.502  69.971  1.00  0.00    -0.369 OA 
BRANCH  26  27
HETATM   27  C   UNL     1     -11.712  15.643  71.263  1.00  0.00    -0.422 C  
HETATM   28  C   UNL     1     -12.769  15.719  72.351  1.00  0.00    -0.453 C  
HETATM   29  O   UNL     1     -14.030  15.574  71.889  1.00  0.00    -0.483 OA 
HETATM   30  O   UNL     1     -12.512  15.885  73.535  1.00  0.00    -0.454 OA 
ENDBRANCH  26  27
ENDBRANCH  13  26
TORSDOF 9
ENDMDL
MODEL        5
REMARK 921   NORMALIZED FREE ENERGY PREDICTED BY IDOCK:   -6.47 KCAL/MOL
REMARK 922        TOTAL FREE ENERGY PREDICTED BY IDOCK:  -11.96 KCAL/MOL
REMARK 923 INTER-LIGAND FREE ENERGY PREDICTED BY IDOCK:  -10.52 KCAL/MOL
REMARK 924 INTRA-LIGAND FREE ENERGY PREDICTED BY IDOCK:   -1.44 KCAL/MOL
REMARK 927      BINDING AFFINITY PREDICTED BY RF-SCORE:    0.00 PKD
ROOT
HETATM    1  C   UNL     1     -10.977  12.751  67.874  1.00  0.00    -0.262 C  
HETATM    2  C   UNL     1     -12.097  12.614  66.843  1.00  0.00    -0.213 C  
HETATM    3  C   UNL     1     -11.786  13.724  65.834  1.00  0.00    -0.383 C  
HETATM    4  O   UNL     1     -12.984  14.375  65.434  1.00  0.00    -0.571 OA 
HETATM    5  C   UNL     1     -10.860  14.740  66.555  1.00  0.00    -0.319 C  
HETATM    6  H   UNL     1     -12.791  15.064  64.809  1.00  0.00     0.000 HD 
HETATM    7  C   UNL     1     -13.269  14.684  70.959  1.00  0.00    -0.431 A  
HETATM    8  C   UNL     1     -10.835  14.256  68.027  1.00  0.00    -0.247 C  
HETATM    9  C   UNL     1     -13.754  14.010  72.068  1.00  0.00    -0.569 A  
HETATM   10  C   UNL     1     -11.998  14.853  68.834  1.00  0.00    -0.295 C  
HETATM   11  C   UNL     1     -13.446  12.664  72.237  1.00  0.00    -0.541 A  
HETATM   12  C   UNL     1     -12.458  14.030  70.017  1.00  0.00    -0.339 A  
HETATM   13  C   UNL     1     -12.667  11.967  71.299  1.00  0.00    -0.298 A  
HETATM   14  C   UNL     1     -12.157  12.648  70.165  1.00  0.00    -0.368 A  
HETATM   15  C   UNL     1     -11.204  12.016  69.183  1.00  0.00    -0.305 C  
ENDROOT
BRANCH   5  16
HETATM   16  C   UNL     1      -9.423  14.750  65.990  1.00  0.00    -0.299 C  
BRANCH  16  17
HETATM   17  C   UNL     1      -8.332  15.188  66.970  1.00  0.00    -0.263 C  
BRANCH  17  18
HETATM   18  C   UNL     1      -7.916  16.661  66.889  1.00  0.00    -0.220 C  
HETATM   19  O   UNL     1      -8.534  17.267  65.754  1.00  0.00    -0.532 OA 
HETATM   20  H   UNL     1      -8.276  18.179  65.703  1.00  0.00     0.000 HD 
BRANCH  18  21
HETATM   21  C   UNL     1      -8.363  17.449  68.129  1.00  0.00    -0.240 C  
BRANCH  21  22
HETATM   22  C   UNL     1      -9.831  17.871  68.065  1.00  0.00    -0.320 C  
BRANCH  22  23
HETATM   23  C   UNL     1     -10.037  19.326  68.476  1.00  0.00    -0.513 C  
BRANCH  23  24
HETATM   24  C   UNL     1      -9.812  20.244  67.274  1.00  0.00    -0.593 C  
HETATM   25  C   UNL     1     -10.629  19.805  66.073  1.00  0.00    -0.573 C  
ENDBRANCH  23  24
ENDBRANCH  22  23
ENDBRANCH  21  22
ENDBRANCH  18  21
ENDBRANCH  17  18
ENDBRANCH  16  17
ENDBRANCH   5  16
BRANCH  13  26
HETATM   26  O   UNL     1     -12.472  10.661  71.689  1.00  0.00    -0.373 OA 
BRANCH  26  27
HETATM   27  C   UNL     1     -13.457   9.696  71.341  1.00  0.00    -0.329 C  
HETATM   28  C   UNL     1     -13.128   8.324  71.901  1.00  0.00    -0.344 C  
HETATM   29  O   UNL     1     -12.015   8.305  72.663  1.00  0.00    -0.399 OA 
HETATM   30  O   UNL     1     -13.807   7.327  71.694  1.00  0.00    -0.384 OA 
ENDBRANCH  26  27
ENDBRANCH  13  26
TORSDOF 9
ENDMDL
MODEL        6
REMARK 921   NORMALIZED FREE ENERGY PREDICTED BY IDOCK:   -6.36 KCAL/MOL
REMARK 922        TOTAL FREE ENERGY PREDICTED BY IDOCK:  -11.79 KCAL/MOL
REMARK 923 INTER-LIGAND FREE ENERGY PREDICTED BY IDOCK:  -10.43 KCAL/MOL
REMARK 924 INTRA-LIGAND FREE ENERGY PREDICTED BY IDOCK:   -1.36 KCAL/MOL
REMARK 927      BINDING AFFINITY PREDICTED BY RF-SCORE:    0.00 PKD
ROOT
HETATM    1  C   UNL     1     -10.841  12.514  67.423  1.00  0.00    -0.272 C  
HETATM    2  C   UNL     1     -12.030  12.483  66.464  1.00  0.00    -0.367 C  
HETATM    3  C   UNL     1     -11.898  13.800  65.693  1.00  0.00    -0.365 C  
HETATM    4  O   UNL     1     -13.173  14.401  65.520  1.00  0.00    -0.579 OA 
HETATM    5  C   UNL     1     -10.998  14.732  66.549  1.00  0.00    -0.325 C  
HETATM    6  H   UNL     1     -13.091  15.218  65.043  1.00  0.00     0.000 HD 
HETATM    7  C   UNL     1     -13.009  13.547  70.992  1.00  0.00    -0.276 A  
HETATM    8  C   UNL     1     -10.808  13.962  67.880  1.00  0.00    -0.256 C  
HETATM    9  C   UNL     1     -13.342  12.616  71.965  1.00  0.00    -0.555 A  
HETATM   10  C   UNL     1     -11.942  14.268  68.871  1.00  0.00    -0.356 C  
HETATM   11  C   UNL     1     -12.913  11.300  71.825  1.00  0.00    -0.519 A  
HETATM   12  C   UNL     1     -12.231  13.180  69.882  1.00  0.00    -0.293 A  
HETATM   13  C   UNL     1     -12.164  10.888  70.711  1.00  0.00    -0.383 A  
HETATM   14  C   UNL     1     -11.808  11.832  69.714  1.00  0.00    -0.420 A  
HETATM   15  C   UNL     1     -10.895  11.509  68.559  1.00  0.00    -0.254 C  
ENDROOT
BRANCH   5  16
HETATM   16  C   UNL     1      -9.620  14.996  65.903  1.00  0.00    -0.356 C  
BRANCH  16  17
HETATM   17  C   UNL     1      -8.463  15.205  66.882  1.00  0.00    -0.278 C  
BRANCH  17  18
HETATM   18  C   UNL     1      -7.813  16.595  66.858  1.00  0.00    -0.226 C  
HETATM   19  O   UNL     1      -8.284  17.318  65.722  1.00  0.00    -0.533 OA 
HETATM   20  H   UNL     1      -7.882  18.178  65.707  1.00  0.00     0.000 HD 
BRANCH  18  21
HETATM   21  C   UNL     1      -8.172  17.414  68.106  1.00  0.00    -0.238 C  
BRANCH  21  22
HETATM   22  C   UNL     1      -9.631  17.872  68.112  1.00  0.00    -0.306 C  
BRANCH  22  23
HETATM   23  C   UNL     1      -9.799  19.271  68.699  1.00  0.00    -0.500 C  
BRANCH  23  24
HETATM   24  C   UNL     1      -9.855  20.304  67.574  1.00  0.00    -0.576 C  
HETATM   25  C   UNL     1     -10.534  19.748  66.336  1.00  0.00    -0.618 C  
ENDBRANCH  23  24
ENDBRANCH  22  23
ENDBRANCH  21  22
ENDBRANCH  18  21
ENDBRANCH  17  18
ENDBRANCH  16  17
ENDBRANCH   5  16
BRANCH  13  26
HETATM   26  O   UNL     1     -11.831   9.555  70.802  1.00  0.00    -0.277 OA 
BRANCH  26  27
HETATM   27  C   UNL     1     -10.724   9.189  71.616  1.00  0.00    -0.371 C  
HETATM   28  C   UNL     1     -11.039   7.993  72.496  1.00  0.00    -0.375 C  
HETATM   29  O   UNL     1     -12.270   7.479  72.288  1.00  0.00    -0.274 OA 
HETATM   30  O   UNL     1     -10.255   7.527  73.312  1.00  0.00    -0.286 OA 
ENDBRANCH  26  27
ENDBRANCH  13  26
TORSDOF 9
ENDMDL
MODEL        7
REMARK 921   NORMALIZED FREE ENERGY PREDICTED BY IDOCK:   -6.28 KCAL/MOL
REMARK 922        TOTAL FREE ENERGY PREDICTED BY IDOCK:  -11.68 KCAL/MOL
REMARK 923 INTER-LIGAND FREE ENERGY PREDICTED BY IDOCK:   -9.53 KCAL/MOL
REMARK 924 INTRA-LIGAND FREE ENERGY PREDICTED BY IDOCK:   -2.15 KCAL/MOL
REMARK 927      BINDING AFFINITY PREDICTED BY RF-SCORE:    0.00 PKD
ROOT
HETATM    1  C   UNL     1     -11.054   9.749  68.196  1.00  0.00    -0.169 C  
HETATM    2  C   UNL     1     -10.392   8.696  67.308  1.00  0.00    -0.366 C  
HETATM    3  C   UNL     1     -10.052   7.569  68.288  1.00  0.00    -0.183 C  
HETATM    4  O   UNL     1      -8.765   7.039  68.002  1.00  0.00    -0.126 OA 
HETATM    5  C   UNL     1     -10.050   8.195  69.709  1.00  0.00    -0.197 C  
HETATM    6  H   UNL     1      -8.554   6.340  68.611  1.00  0.00     0.000 HD 
HETATM    7  C   UNL     1      -7.726  12.463  68.450  1.00  0.00    -0.144 A  
HETATM    8  C   UNL     1     -10.205   9.716  69.456  1.00  0.00    -0.233 C  
HETATM    9  C   UNL     1      -7.647  13.627  67.701  1.00  0.00    -0.186 A  
HETATM   10  C   UNL     1      -8.842  10.390  69.236  1.00  0.00    -0.166 C  
HETATM   11  C   UNL     1      -8.707  13.977  66.872  1.00  0.00    -0.185 A  
HETATM   12  C   UNL     1      -8.868  11.647  68.394  1.00  0.00    -0.161 A  
HETATM   13  C   UNL     1      -9.851  13.169  66.763  1.00  0.00    -0.251 A  
HETATM   14  C   UNL     1      -9.948  11.981  67.531  1.00  0.00    -0.199 A  
HETATM   15  C   UNL     1     -11.190  11.129  67.579  1.00  0.00    -0.369 C  
ENDROOT
BRANCH   5  16
HETATM   16  C   UNL     1     -11.217   7.696  70.588  1.00  0.00    -0.280 C  
BRANCH  16  17
HETATM   17  C   UNL     1     -11.633   8.631  71.725  1.00  0.00    -0.403 C  
BRANCH  17  18
HETATM   18  C   UNL     1     -13.141   8.855  71.886  1.00  0.00    -0.386 C  
HETATM   19  O   UNL     1     -13.448   9.046  73.266  1.00  0.00    -0.945 OA 
HETATM   20  H   UNL     1     -14.382   9.185  73.366  1.00  0.00     0.000 HD 
BRANCH  18  21
HETATM   21  C   UNL     1     -13.614  10.107  71.133  1.00  0.00    -0.147 C  
BRANCH  21  22
HETATM   22  C   UNL     1     -13.098  11.403  71.758  1.00  0.00    -0.523 C  
BRANCH  22  23
HETATM   23  C   UNL     1     -12.196  12.188  70.810  1.00  0.00    -0.367 C  
BRANCH  23  24
HETATM   24  C   UNL     1     -12.711  13.620  70.667  1.00  0.00    -0.303 C  
HETATM   25  C   UNL     1     -11.955  14.383  69.595  1.00  0.00    -0.385 C  
ENDBRANCH  23  24
ENDBRANCH  22  23
ENDBRANCH  21  22
ENDBRANCH  18  21
ENDBRANCH  17  18
ENDBRANCH  16  17
ENDBRANCH   5  16
BRANCH  13  26
HETATM   26  O   UNL     1     -10.774  13.729  65.909  1.00  0.00    -0.279 OA 
BRANCH  26  27
HETATM   27  C   UNL     1     -10.580  15.074  65.490  1.00  0.00    -0.363 C  
HETATM   28  C   UNL     1     -11.549  15.470  64.390  1.00  0.00    -0.258 C  
HETATM   29  O   UNL     1     -12.435  14.501  64.076  1.00  0.00    -0.778 OA 
HETATM   30  O   UNL     1     -11.541  16.564  63.842  1.00  0.00    -1.175 OA 
ENDBRANCH  26  27
ENDBRANCH  13  26
TORSDOF 9
ENDMDL
MODEL        8
REMARK 921   NORMALIZED FREE ENERGY PREDICTED BY IDOCK:   -6.23 KCAL/MOL
REMARK 922        TOTAL FREE ENERGY PREDICTED BY IDOCK:  -11.59 KCAL/MOL
REMARK 923 INTER-LIGAND FREE ENERGY PREDICTED BY IDOCK:   -9.37 KCAL/MOL
REMARK 924 INTRA-LIGAND FREE ENERGY PREDICTED BY IDOCK:   -2.23 KCAL/MOL
REMARK 927      BINDING AFFINITY PREDICTED BY RF-SCORE:    0.00 PKD
ROOT
HETATM    1  C   UNL     1     -11.993  12.442  68.410  1.00  0.00    -0.269 C  
HETATM    2  C   UNL     1     -11.795  13.730  69.208  1.00  0.00    -0.392 C  
HETATM    3  C   UNL     1     -11.608  14.794  68.123  1.00  0.00    -0.332 C  
HETATM    4  O   UNL     1     -10.577  15.699  68.491  1.00  0.00    -0.241 OA 
HETATM    5  C   UNL     1     -11.199  14.045  66.826  1.00  0.00    -0.323 C  
HETATM    6  H   UNL     1     -10.460  16.359  67.817  1.00  0.00     0.000 HD 
HETATM    7  C   UNL     1      -8.068  10.786  69.009  1.00  0.00    -0.140 A  
HETATM    8  C   UNL     1     -10.984  12.580  67.283  1.00  0.00    -0.300 C  
HETATM    9  C   UNL     1      -7.809   9.782  69.929  1.00  0.00    -0.168 A  
HETATM   10  C   UNL     1      -9.548  12.354  67.779  1.00  0.00    -0.202 C  
HETATM   11  C   UNL     1      -8.861   9.234  70.655  1.00  0.00    -0.287 A  
HETATM   12  C   UNL     1      -9.379  11.241  68.791  1.00  0.00    -0.136 A  
HETATM   13  C   UNL     1     -10.180   9.687  70.490  1.00  0.00    -0.287 A  
HETATM   14  C   UNL     1     -10.460  10.707  69.545  1.00  0.00    -0.236 A  
HETATM   15  C   UNL     1     -11.858  11.157  69.206  1.00  0.00    -0.422 C  
ENDROOT
BRANCH   5  16
HETATM   16  C   UNL     1     -12.292  14.091  65.735  1.00  0.00    -0.506 C  
BRANCH  16  17
HETATM   17  C   UNL     1     -12.605  12.754  65.059  1.00  0.00    -0.538 C  
BRANCH  17  18
HETATM   18  C   UNL     1     -12.161  12.628  63.596  1.00  0.00    -0.536 C  
HETATM   19  O   UNL     1     -12.384  13.868  62.925  1.00  0.00    -1.023 OA 
HETATM   20  H   UNL     1     -12.109  13.790  62.020  1.00  0.00     0.000 HD 
BRANCH  18  21
HETATM   21  C   UNL     1     -10.664  12.305  63.480  1.00  0.00    -0.497 C  
BRANCH  21  22
HETATM   22  C   UNL     1     -10.373  10.808  63.582  1.00  0.00    -0.265 C  
BRANCH  22  23
HETATM   23  C   UNL     1      -9.322  10.490  64.642  1.00  0.00    -0.294 C  
BRANCH  23  24
HETATM   24  C   UNL     1      -9.901   9.528  65.678  1.00  0.00    -0.343 C  
HETATM   25  C   UNL     1      -8.853   8.558  66.191  1.00  0.00    -0.200 C  
ENDBRANCH  23  24
ENDBRANCH  22  23
ENDBRANCH  21  22
ENDBRANCH  18  21
ENDBRANCH  17  18
ENDBRANCH  16  17
ENDBRANCH   5  16
BRANCH  13  26
HETATM   26  O   UNL     1     -11.051   8.982  71.290  1.00  0.00    -0.260 OA 
BRANCH  26  27
HETATM   27  C   UNL     1     -11.248   7.599  71.021  1.00  0.00    -0.267 C  
HETATM   28  C   UNL     1     -11.088   6.751  72.270  1.00  0.00    -0.251 C  
HETATM   29  O   UNL     1     -10.860   7.474  73.387  1.00  0.00    -0.394 OA 
HETATM   30  O   UNL     1     -11.168   5.530  72.275  1.00  0.00    -0.257 OA 
ENDBRANCH  26  27
ENDBRANCH  13  26
TORSDOF 9
ENDMDL
MODEL        9
REMARK 921   NORMALIZED FREE ENERGY PREDICTED BY IDOCK:   -6.20 KCAL/MOL
REMARK 922        TOTAL FREE ENERGY PREDICTED BY IDOCK:  -11.55 KCAL/MOL
REMARK 923 INTER-LIGAND FREE ENERGY PREDICTED BY IDOCK:   -9.99 KCAL/MOL
REMARK 924 INTRA-LIGAND FREE ENERGY PREDICTED BY IDOCK:   -1.55 KCAL/MOL
REMARK 927      BINDING AFFINITY PREDICTED BY RF-SCORE:    0.00 PKD
ROOT
HETATM    1  C   UNL     1     -10.120  14.145  68.596  1.00  0.00    -0.229 C  
HETATM    2  C   UNL     1      -9.350  15.354  68.066  1.00  0.00    -0.196 C  
HETATM    3  C   UNL     1     -10.049  16.541  68.737  1.00  0.00    -0.255 C  
HETATM    4  O   UNL     1     -10.202  17.609  67.814  1.00  0.00    -0.320 OA 
HETATM    5  C   UNL     1     -11.449  16.041  69.187  1.00  0.00    -0.347 C  
HETATM    6  H   UNL     1     -10.636  18.345  68.230  1.00  0.00     0.000 HD 
HETATM    7  C   UNL     1     -12.448  13.355  65.066  1.00  0.00    -0.479 A  
HETATM    8  C   UNL     1     -11.562  14.622  68.574  1.00  0.00    -0.346 C  
HETATM    9  C   UNL     1     -12.136  12.343  64.171  1.00  0.00    -0.539 A  
HETATM   10  C   UNL     1     -12.120  14.672  67.144  1.00  0.00    -0.218 C  
HETATM   11  C   UNL     1     -11.062  11.501  64.441  1.00  0.00    -0.359 A  
HETATM   12  C   UNL     1     -11.706  13.525  66.247  1.00  0.00    -0.401 A  
HETATM   13  C   UNL     1     -10.275  11.663  65.593  1.00  0.00    -0.243 A  
HETATM   14  C   UNL     1     -10.591  12.688  66.522  1.00  0.00    -0.272 A  
HETATM   15  C   UNL     1      -9.888  12.847  67.846  1.00  0.00    -0.227 C  
ENDROOT
BRANCH   5  16
HETATM   16  C   UNL     1     -11.592  15.955  70.722  1.00  0.00    -0.441 C  
BRANCH  16  17
HETATM   17  C   UNL     1     -12.992  15.612  71.235  1.00  0.00    -0.556 C  
BRANCH  17  18
HETATM   18  C   UNL     1     -13.045  14.717  72.480  1.00  0.00    -0.402 C  
HETATM   19  O   UNL     1     -13.572  15.463  73.577  1.00  0.00    -0.610 OA 
HETATM   20  H   UNL     1     -13.605  14.909  74.348  1.00  0.00     0.000 HD 
BRANCH  18  21
HETATM   21  C   UNL     1     -13.958  13.501  72.270  1.00  0.00    -0.638 C  
BRANCH  21  22
HETATM   22  C   UNL     1     -13.177  12.203  72.068  1.00  0.00    -0.496 C  
BRANCH  22  23
HETATM   23  C   UNL     1     -12.439  12.169  70.733  1.00  0.00    -0.362 C  
BRANCH  23  24
HETATM   24  C   UNL     1     -11.800  10.796  70.525  1.00  0.00    -0.453 C  
HETATM   25  C   UNL     1     -12.310   9.782  71.533  1.00  0.00    -0.495 C  
ENDBRANCH  23  24
ENDBRANCH  22  23
ENDBRANCH  21  22
ENDBRANCH  18  21
ENDBRANCH  17  18
ENDBRANCH  16  17
ENDBRANCH   5  16
BRANCH  13  26
HETATM   26  O   UNL     1      -9.292  10.702  65.662  1.00  0.00    -0.182 OA 
BRANCH  26  27
HETATM   27  C   UNL     1      -9.638   9.357  65.352  1.00  0.00    -0.226 C  
HETATM   28  C   UNL     1      -9.966   8.555  66.599  1.00  0.00    -0.293 C  
HETATM   29  O   UNL     1      -9.930   9.284  67.735  1.00  0.00    -0.170 OA 
HETATM   30  O   UNL     1     -10.248   7.365  66.584  1.00  0.00    -0.240 OA 
ENDBRANCH  26  27
ENDBRANCH  13  26
TORSDOF 9
ENDMDL
MODEL       10
REMARK 921   NORMALIZED FREE ENERGY PREDICTED BY IDOCK:   -6.13 KCAL/MOL
REMARK 922        TOTAL FREE ENERGY PREDICTED BY IDOCK:  -11.45 KCAL/MOL
REMARK 923 INTER-LIGAND FREE ENERGY PREDICTED BY IDOCK:   -9.28 KCAL/MOL
REMARK 924 INTRA-LIGAND FREE ENERGY PREDICTED BY IDOCK:   -2.17 KCAL/MOL
REMARK 927      BINDING AFFINITY PREDICTED BY RF-SCORE:    0.00 PKD
ROOT
HETATM    1  C   UNL     1     -10.917   9.343  69.846  1.00  0.00    -0.251 C  
HETATM    2  C   UNL     1      -9.729   9.356  70.808  1.00  0.00    -0.332 C  
HETATM    3  C   UNL     1      -9.998   8.155  71.719  1.00  0.00    -0.201 C  
HETATM    4  O   UNL     1      -9.692   8.481  73.068  1.00  0.00    -0.197 OA 
HETATM    5  C   UNL     1     -11.510   7.828  71.596  1.00  0.00    -0.299 C  
HETATM    6  H   UNL     1      -9.859   7.736  73.633  1.00  0.00     0.000 HD 
HETATM    7  C   UNL     1     -13.128  12.579  71.620  1.00  0.00    -0.414 A  
HETATM    8  C   UNL     1     -12.085   8.993  70.752  1.00  0.00    -0.169 C  
HETATM    9  C   UNL     1     -13.140  13.860  71.089  1.00  0.00    -0.351 A  
HETATM   10  C   UNL     1     -12.489  10.181  71.638  1.00  0.00    -0.506 C  
HETATM   11  C   UNL     1     -12.463  14.113  69.901  1.00  0.00    -0.313 A  
HETATM   12  C   UNL     1     -12.456  11.535  70.963  1.00  0.00    -0.458 A  
HETATM   13  C   UNL     1     -11.751  13.102  69.233  1.00  0.00    -0.321 A  
HETATM   14  C   UNL     1     -11.739  11.786  69.761  1.00  0.00    -0.408 A  
HETATM   15  C   UNL     1     -11.118  10.615  69.043  1.00  0.00    -0.307 C  
ENDROOT
BRANCH   5  16
HETATM   16  C   UNL     1     -11.779   6.487  70.877  1.00  0.00    -0.416 C  
BRANCH  16  17
HETATM   17  C   UNL     1     -10.545   5.625  70.608  1.00  0.00    -0.347 C  
BRANCH  17  18
HETATM   18  C   UNL     1     -10.113   5.519  69.140  1.00  0.00    -0.216 C  
HETATM   19  O   UNL     1      -9.982   4.144  68.782  1.00  0.00    -0.076 OA 
HETATM   20  H   UNL     1      -9.714   4.079  67.873  1.00  0.00     0.000 HD 
BRANCH  18  21
HETATM   21  C   UNL     1     -11.150   6.143  68.195  1.00  0.00    -0.328 C  
BRANCH  21  22
HETATM   22  C   UNL     1     -10.510   6.882  67.019  1.00  0.00    -0.374 C  
BRANCH  22  23
HETATM   23  C   UNL     1      -9.075   7.308  67.312  1.00  0.00    -0.133 C  
BRANCH  23  24
HETATM   24  C   UNL     1      -8.839   8.729  66.800  1.00  0.00    -0.147 C  
HETATM   25  C   UNL     1     -10.067   9.285  66.102  1.00  0.00    -0.304 C  
ENDBRANCH  23  24
ENDBRANCH  22  23
ENDBRANCH  21  22
ENDBRANCH  18  21
ENDBRANCH  17  18
ENDBRANCH  16  17
ENDBRANCH   5  16
BRANCH  13  26
HETATM   26  O   UNL     1     -11.188  13.577  68.071  1.00  0.00    -0.250 OA 
BRANCH  26  27
HETATM   27  C   UNL     1     -11.973  14.415  67.231  1.00  0.00    -0.377 C  
HETATM   28  C   UNL     1     -12.471  13.677  66.001  1.00  0.00    -0.426 C  
HETATM   29  O   UNL     1     -12.131  12.371  65.981  1.00  0.00    -0.600 OA 
HETATM   30  O   UNL     1     -13.128  14.205  65.115  1.00  0.00    -0.757 OA 
ENDBRANCH  26  27
ENDBRANCH  13  26
TORSDOF 9
ENDMDL
MODEL       11
REMARK 921   NORMALIZED FREE ENERGY PREDICTED BY IDOCK:   -6.03 KCAL/MOL
REMARK 922        TOTAL FREE ENERGY PREDICTED BY IDOCK:  -11.30 KCAL/MOL
REMARK 923 INTER-LIGAND FREE ENERGY PREDICTED BY IDOCK:   -9.30 KCAL/MOL
REMARK 924 INTRA-LIGAND FREE ENERGY PREDICTED BY IDOCK:   -2.00 KCAL/MOL
REMARK 927      BINDING AFFINITY PREDICTED BY RF-SCORE:    0.00 PKD
ROOT
HETATM    1  C   UNL     1     -11.272   9.736  69.971  1.00  0.00    -0.297 C  
HETATM    2  C   UNL     1     -10.117   9.557  70.955  1.00  0.00    -0.299 C  
HETATM    3  C   UNL     1     -10.396   8.188  71.582  1.00  0.00    -0.224 C  
HETATM    4  O   UNL     1     -10.140   8.224  72.979  1.00  0.00    -0.271 OA 
HETATM    5  C   UNL     1     -11.898   7.880  71.339  1.00  0.00    -0.328 C  
HETATM    6  H   UNL     1     -10.314   7.375  73.369  1.00  0.00     0.000 HD 
HETATM    7  C   UNL     1     -13.594  12.504  72.306  1.00  0.00    -0.443 A  
HETATM    8  C   UNL     1     -12.464   9.192  70.740  1.00  0.00    -0.057 C  
HETATM    9  C   UNL     1     -13.611  13.868  72.057  1.00  0.00    -0.566 A  
HETATM   10  C   UNL     1     -12.917  10.162  71.841  1.00  0.00    -0.549 C  
HETATM   11  C   UNL     1     -12.899  14.372  70.974  1.00  0.00    -0.423 A  
HETATM   12  C   UNL     1     -12.884  11.629  71.468  1.00  0.00    -0.469 A  
HETATM   13  C   UNL     1     -12.149  13.532  70.135  1.00  0.00    -0.354 A  
HETATM   14  C   UNL     1     -12.132  12.134  70.373  1.00  0.00    -0.395 A  
HETATM   15  C   UNL     1     -11.468  11.147  69.447  1.00  0.00    -0.368 C  
ENDROOT
BRANCH   5  16
HETATM   16  C   UNL     1     -12.120   6.719  70.345  1.00  0.00    -0.270 C  
BRANCH  16  17
HETATM   17  C   UNL     1     -10.854   5.996  69.882  1.00  0.00    -0.434 C  
BRANCH  17  18
HETATM   18  C   UNL     1     -10.541   6.092  68.384  1.00  0.00    -0.265 C  
HETATM   19  O   UNL     1     -11.653   6.672  67.704  1.00  0.00    -0.664 OA 
HETATM   20  H   UNL     1     -11.460   6.732  66.776  1.00  0.00     0.000 HD 
BRANCH  18  21
HETATM   21  C   UNL     1      -9.321   6.985  68.113  1.00  0.00    -0.125 C  
BRANCH  21  22
HETATM   22  C   UNL     1      -9.642   8.160  67.190  1.00  0.00    -0.227 C  
BRANCH  22  23
HETATM   23  C   UNL     1      -8.729   9.359  67.435  1.00  0.00    -0.128 C  
BRANCH  23  24
HETATM   24  C   UNL     1      -9.041  10.465  66.427  1.00  0.00    -0.177 C  
HETATM   25  C   UNL     1     -10.131  10.049  65.457  1.00  0.00    -0.325 C  
ENDBRANCH  23  24
ENDBRANCH  22  23
ENDBRANCH  21  22
ENDBRANCH  18  21
ENDBRANCH  17  18
ENDBRANCH  16  17
ENDBRANCH   5  16
BRANCH  13  26
HETATM   26  O   UNL     1     -11.555  14.247  69.119  1.00  0.00    -0.266 OA 
BRANCH  26  27
HETATM   27  C   UNL     1     -11.451  15.659  69.257  1.00  0.00    -0.362 C  
HETATM   28  C   UNL     1     -11.028  16.325  67.960  1.00  0.00    -0.328 C  
HETATM   29  O   UNL     1     -10.901  15.464  66.928  1.00  0.00    -0.313 OA 
HETATM   30  O   UNL     1     -10.830  17.527  67.849  1.00  0.00    -0.374 OA 
ENDBRANCH  26  27
ENDBRANCH  13  26
TORSDOF 9
ENDMDL
MODEL       12
REMARK 921   NORMALIZED FREE ENERGY PREDICTED BY IDOCK:   -6.02 KCAL/MOL
REMARK 922        TOTAL FREE ENERGY PREDICTED BY IDOCK:  -11.27 KCAL/MOL
REMARK 923 INTER-LIGAND FREE ENERGY PREDICTED BY IDOCK:   -9.42 KCAL/MOL
REMARK 924 INTRA-LIGAND FREE ENERGY PREDICTED BY IDOCK:   -1.86 KCAL/MOL
REMARK 927      BINDING AFFINITY PREDICTED BY RF-SCORE:    0.00 PKD
ROOT
HETATM    1  C   UNL     1     -10.636  11.856  67.954  1.00  0.00    -0.229 C  
HETATM    2  C   UNL     1      -9.255  11.662  68.578  1.00  0.00    -0.163 C  
HETATM    3  C   UNL     1      -8.955  10.182  68.321  1.00  0.00    -0.120 C  
HETATM    4  O   UNL     1      -8.349   9.596  69.465  1.00  0.00    -0.124 OA 
HETATM    5  C   UNL     1     -10.316   9.489  68.045  1.00  0.00    -0.260 C  
HETATM    6  H   UNL     1      -8.163   8.678  69.305  1.00  0.00     0.000 HD 
HETATM    7  C   UNL     1     -12.915  11.894  71.603  1.00  0.00    -0.447 A  
HETATM    8  C   UNL     1     -11.370  10.585  68.347  1.00  0.00    -0.328 C  
HETATM    9  C   UNL     1     -13.381  13.063  72.185  1.00  0.00    -0.622 A  
HETATM   10  C   UNL     1     -11.759  10.593  69.833  1.00  0.00    -0.395 C  
HETATM   11  C   UNL     1     -13.163  14.278  71.544  1.00  0.00    -0.420 A  
HETATM   12  C   UNL     1     -12.243  11.923  70.370  1.00  0.00    -0.399 A  
HETATM   13  C   UNL     1     -12.466  14.350  70.327  1.00  0.00    -0.354 A  
HETATM   14  C   UNL     1     -11.992  13.161  69.717  1.00  0.00    -0.382 A  
HETATM   15  C   UNL     1     -11.356  13.132  68.351  1.00  0.00    -0.324 C  
ENDROOT
BRANCH   5  16
HETATM   16  C   UNL     1     -10.466   9.019  66.581  1.00  0.00    -0.235 C  
BRANCH  16  17
HETATM   17  C   UNL     1      -9.206   9.132  65.721  1.00  0.00    -0.294 C  
BRANCH  17  18
HETATM   18  C   UNL     1      -9.304  10.078  64.517  1.00  0.00    -0.286 C  
HETATM   19  O   UNL     1      -9.234   9.319  63.311  1.00  0.00    -0.429 OA 
HETATM   20  H   UNL     1      -9.294   9.905  62.566  1.00  0.00     0.000 HD 
BRANCH  18  21
HETATM   21  C   UNL     1     -10.635  10.844  64.501  1.00  0.00    -0.335 C  
BRANCH  21  22
HETATM   22  C   UNL     1     -10.499  12.255  63.930  1.00  0.00    -0.458 C  
BRANCH  22  23
HETATM   23  C   UNL     1     -11.821  12.796  63.393  1.00  0.00    -0.591 C  
BRANCH  23  24
HETATM   24  C   UNL     1     -12.397  13.823  64.368  1.00  0.00    -0.389 C  
HETATM   25  C   UNL     1     -11.369  14.873  64.749  1.00  0.00    -0.400 C  
ENDBRANCH  23  24
ENDBRANCH  22  23
ENDBRANCH  21  22
ENDBRANCH  18  21
ENDBRANCH  17  18
ENDBRANCH  16  17
ENDBRANCH   5  16
BRANCH  13  26
HETATM   26  O   UNL     1     -12.398  15.647  69.871  1.00  0.00    -0.354 OA 
BRANCH  26  27
HETATM   27  C   UNL     1     -11.240  16.414  70.180  1.00  0.00    -0.250 C  
HETATM   28  C   UNL     1     -10.580  16.972  68.932  1.00  0.00    -0.328 C  
HETATM   29  O   UNL     1     -11.251  16.690  67.795  1.00  0.00    -0.222 OA 
HETATM   30  O   UNL     1      -9.546  17.625  68.947  1.00  0.00    -0.277 OA 
ENDBRANCH  26  27
ENDBRANCH  13  26
TORSDOF 9
ENDMDL
MODEL       13
REMARK 921   NORMALIZED FREE ENERGY PREDICTED BY IDOCK:   -6.01 KCAL/MOL
REMARK 922        TOTAL FREE ENERGY PREDICTED BY IDOCK:  -11.26 KCAL/MOL
REMARK 923 INTER-LIGAND FREE ENERGY PREDICTED BY IDOCK:   -9.50 KCAL/MOL
REMARK 924 INTRA-LIGAND FREE ENERGY PREDICTED BY IDOCK:   -1.76 KCAL/MOL
REMARK 927      BINDING AFFINITY PREDICTED BY RF-SCORE:    0.00 PKD
ROOT
HETATM    1  C   UNL     1     -10.458  12.619  66.470  1.00  0.00    -0.264 C  
HETATM    2  C   UNL     1     -11.710  12.400  65.622  1.00  0.00    -0.468 C  
HETATM    3  C   UNL     1     -12.097  13.818  65.191  1.00  0.00    -0.399 C  
HETATM    4  O   UNL     1     -13.506  13.988  65.264  1.00  0.00    -0.622 OA 
HETATM    5  C   UNL     1     -11.406  14.793  66.181  1.00  0.00    -0.330 C  
HETATM    6  H   UNL     1     -13.746  14.867  64.997  1.00  0.00     0.000 HD 
HETATM    7  C   UNL     1     -12.284  12.112  70.332  1.00  0.00    -0.378 A  
HETATM    8  C   UNL     1     -10.798  13.868  67.265  1.00  0.00    -0.292 C  
HETATM    9  C   UNL     1     -12.172  10.942  71.068  1.00  0.00    -0.464 A  
HETATM   10  C   UNL     1     -11.811  13.570  68.380  1.00  0.00    -0.408 C  
HETATM   11  C   UNL     1     -11.392   9.900  70.579  1.00  0.00    -0.399 A  
HETATM   12  C   UNL     1     -11.605  12.261  69.112  1.00  0.00    -0.373 A  
HETATM   13  C   UNL     1     -10.726  10.000  69.346  1.00  0.00    -0.233 A  
HETATM   14  C   UNL     1     -10.824  11.194  68.588  1.00  0.00    -0.251 A  
HETATM   15  C   UNL     1     -10.037  11.438  67.326  1.00  0.00    -0.218 C  
ENDROOT
BRANCH   5  16
HETATM   16  C   UNL     1     -10.283  15.624  65.521  1.00  0.00    -0.414 C  
BRANCH  16  17
HETATM   17  C   UNL     1      -9.087  15.945  66.419  1.00  0.00    -0.355 C  
BRANCH  17  18
HETATM   18  C   UNL     1      -9.229  17.196  67.296  1.00  0.00    -0.230 C  
HETATM   19  O   UNL     1     -10.482  17.824  67.026  1.00  0.00    -0.347 OA 
HETATM   20  H   UNL     1     -10.570  18.598  67.569  1.00  0.00     0.000 HD 
BRANCH  18  21
HETATM   21  C   UNL     1      -9.203  16.848  68.792  1.00  0.00    -0.260 C  
BRANCH  21  22
HETATM   22  C   UNL     1     -10.602  16.722  69.394  1.00  0.00    -0.318 C  
BRANCH  22  23
HETATM   23  C   UNL     1     -10.655  15.713  70.538  1.00  0.00    -0.217 C  
BRANCH  23  24
HETATM   24  C   UNL     1     -11.706  16.140  71.562  1.00  0.00    -0.533 C  
HETATM   25  C   UNL     1     -13.076  15.581  71.226  1.00  0.00    -0.581 C  
ENDBRANCH  23  24
ENDBRANCH  22  23
ENDBRANCH  21  22
ENDBRANCH  18  21
ENDBRANCH  17  18
ENDBRANCH  16  17
ENDBRANCH   5  16
BRANCH  13  26
HETATM   26  O   UNL     1      -9.996   8.862  69.083  1.00  0.00    -0.179 OA 
BRANCH  26  27
HETATM   27  C   UNL     1     -10.698   7.652  68.826  1.00  0.00    -0.077 C  
HETATM   28  C   UNL     1     -10.585   7.231  67.371  1.00  0.00    -0.300 C  
HETATM   29  O   UNL     1      -9.797   8.042  66.634  1.00  0.00    -0.227 OA 
HETATM   30  O   UNL     1     -11.144   6.247  66.906  1.00  0.00    -0.361 OA 
ENDBRANCH  26  27
ENDBRANCH  13  26
TORSDOF 9
ENDMDL
MODEL       14
REMARK 921   NORMALIZED FREE ENERGY PREDICTED BY IDOCK:   -5.94 KCAL/MOL
REMARK 922        TOTAL FREE ENERGY PREDICTED BY IDOCK:  -11.15 KCAL/MOL
REMARK 923 INTER-LIGAND FREE ENERGY PREDICTED BY IDOCK:  -10.09 KCAL/MOL
REMARK 924 INTRA-LIGAND FREE ENERGY PREDICTED BY IDOCK:   -1.07 KCAL/MOL
REMARK 927      BINDING AFFINITY PREDICTED BY RF-SCORE:    0.00 PKD
ROOT
HETATM    1  C   UNL     1     -10.757  12.325  66.991  1.00  0.00    -0.263 C  
HETATM    2  C   UNL     1     -12.025  12.282  66.139  1.00  0.00    -0.323 C  
HETATM    3  C   UNL     1     -12.107  13.695  65.555  1.00  0.00    -0.411 C  
HETATM    4  O   UNL     1     -13.450  14.160  65.576  1.00  0.00    -0.710 OA 
HETATM    5  C   UNL     1     -11.230  14.605  66.456  1.00  0.00    -0.346 C  
HETATM    6  H   UNL     1     -13.500  15.037  65.214  1.00  0.00     0.000 HD 
HETATM    7  C   UNL     1     -12.660  12.617  70.838  1.00  0.00    -0.338 A  
HETATM    8  C   UNL     1     -10.832  13.694  67.645  1.00  0.00    -0.268 C  
HETATM    9  C   UNL     1     -12.796  11.534  71.692  1.00  0.00    -0.475 A  
HETATM   10  C   UNL     1     -11.888  13.731  68.759  1.00  0.00    -0.398 C  
HETATM   11  C   UNL     1     -12.249  10.307  71.332  1.00  0.00    -0.481 A  
HETATM   12  C   UNL     1     -11.961  12.493  69.626  1.00  0.00    -0.339 A  
HETATM   13  C   UNL     1     -11.573  10.136  70.112  1.00  0.00    -0.277 A  
HETATM   14  C   UNL     1     -11.418  11.239  69.234  1.00  0.00    -0.369 A  
HETATM   15  C   UNL     1     -10.594  11.180  67.973  1.00  0.00    -0.233 C  
ENDROOT
BRANCH   5  16
HETATM   16  C   UNL     1      -9.957  15.112  65.743  1.00  0.00    -0.375 C  
BRANCH  16  17
HETATM   17  C   UNL     1      -9.439  16.474  66.208  1.00  0.00    -0.339 C  
BRANCH  17  18
HETATM   18  C   UNL     1     -10.159  17.696  65.624  1.00  0.00     0.045 C  
HETATM   19  O   UNL     1     -11.154  17.261  64.698  1.00  0.00    -1.052 OA 
HETATM   20  H   UNL     1     -11.600  18.018  64.336  1.00  0.00     0.000 HD 
BRANCH  18  21
HETATM   21  C   UNL     1     -10.870  18.513  66.713  1.00  0.00    -0.168 C  
BRANCH  21  22
HETATM   22  C   UNL     1     -10.249  18.321  68.096  1.00  0.00    -0.406 C  
BRANCH  22  23
HETATM   23  C   UNL     1      -9.352  19.489  68.498  1.00  0.00    -0.435 C  
BRANCH  23  24
HETATM   24  C   UNL     1      -7.895  19.030  68.560  1.00  0.00    -0.375 C  
HETATM   25  C   UNL     1      -7.020  19.808  67.595  1.00  0.00    -0.280 C  
ENDBRANCH  23  24
ENDBRANCH  22  23
ENDBRANCH  21  22
ENDBRANCH  18  21
ENDBRANCH  17  18
ENDBRANCH  16  17
ENDBRANCH   5  16
BRANCH  13  26
HETATM   26  O   UNL     1     -11.096   8.851  69.985  1.00  0.00    -0.237 OA 
BRANCH  26  27
HETATM   27  C   UNL     1     -10.895   8.084  71.167  1.00  0.00    -0.238 C  
HETATM   28  C   UNL     1     -11.250   6.623  70.960  1.00  0.00    -0.300 C  
HETATM   29  O   UNL     1     -11.618   6.330  69.694  1.00  0.00    -0.430 OA 
HETATM   30  O   UNL     1     -11.201   5.781  71.846  1.00  0.00    -0.264 OA 
ENDBRANCH  26  27
ENDBRANCH  13  26
TORSDOF 9
ENDMDL
MODEL       15
REMARK 921   NORMALIZED FREE ENERGY PREDICTED BY IDOCK:   -5.93 KCAL/MOL
REMARK 922        TOTAL FREE ENERGY PREDICTED BY IDOCK:  -11.14 KCAL/MOL
REMARK 923 INTER-LIGAND FREE ENERGY PREDICTED BY IDOCK:   -8.50 KCAL/MOL
REMARK 924 INTRA-LIGAND FREE ENERGY PREDICTED BY IDOCK:   -2.64 KCAL/MOL
REMARK 927      BINDING AFFINITY PREDICTED BY RF-SCORE:    0.00 PKD
ROOT
HETATM    1  C   UNL     1     -11.604  11.857  67.933  1.00  0.00    -0.393 C  
HETATM    2  C   UNL     1     -11.949  12.369  69.331  1.00  0.00    -0.319 C  
HETATM    3  C   UNL     1     -11.732  13.881  69.218  1.00  0.00    -0.334 C  
HETATM    4  O   UNL     1     -11.091  14.375  70.385  1.00  0.00    -0.478 OA 
HETATM    5  C   UNL     1     -10.815  14.112  67.987  1.00  0.00    -0.256 C  
HETATM    6  H   UNL     1     -10.956  15.313  70.315  1.00  0.00     0.000 HD 
HETATM    7  C   UNL     1      -7.716  10.258  68.849  1.00  0.00    -0.098 A  
HETATM    8  C   UNL     1     -10.387  12.686  67.556  1.00  0.00    -0.220 C  
HETATM    9  C   UNL     1      -7.487   8.904  69.038  1.00  0.00    -0.074 A  
HETATM   10  C   UNL     1      -9.133  12.224  68.313  1.00  0.00    -0.187 C  
HETATM   11  C   UNL     1      -8.534   8.004  68.870  1.00  0.00    -0.131 A  
HETATM   12  C   UNL     1      -8.986  10.726  68.473  1.00  0.00    -0.160 A  
HETATM   13  C   UNL     1      -9.825   8.439  68.528  1.00  0.00    -0.173 A  
HETATM   14  C   UNL     1     -10.071   9.820  68.323  1.00  0.00    -0.189 A  
HETATM   15  C   UNL     1     -11.387  10.359  67.824  1.00  0.00    -0.205 C  
ENDROOT
BRANCH   5  16
HETATM   16  C   UNL     1     -11.543  14.809  66.817  1.00  0.00    -0.333 C  
BRANCH  16  17
HETATM   17  C   UNL     1     -11.150  14.331  65.417  1.00  0.00    -0.327 C  
BRANCH  17  18
HETATM   18  C   UNL     1     -12.314  14.010  64.471  1.00  0.00    -0.378 C  
HETATM   19  O   UNL     1     -12.524  15.110  63.588  1.00  0.00    -0.985 OA 
HETATM   20  H   UNL     1     -13.245  14.912  63.002  1.00  0.00     0.000 HD 
BRANCH  18  21
HETATM   21  C   UNL     1     -12.021  12.776  63.606  1.00  0.00    -0.616 C  
BRANCH  21  22
HETATM   22  C   UNL     1     -10.556  12.341  63.672  1.00  0.00    -0.501 C  
BRANCH  22  23
HETATM   23  C   UNL     1     -10.400  10.886  64.103  1.00  0.00    -0.432 C  
BRANCH  23  24
HETATM   24  C   UNL     1      -9.047  10.687  64.786  1.00  0.00    -0.236 C  
HETATM   25  C   UNL     1      -8.745   9.218  65.015  1.00  0.00    -0.221 C  
ENDBRANCH  23  24
ENDBRANCH  22  23
ENDBRANCH  21  22
ENDBRANCH  18  21
ENDBRANCH  17  18
ENDBRANCH  16  17
ENDBRANCH   5  16
BRANCH  13  26
HETATM   26  O   UNL     1     -10.686   7.373  68.389  1.00  0.00    -0.180 OA 
BRANCH  26  27
HETATM   27  C   UNL     1     -10.953   6.885  67.080  1.00  0.00    -0.357 C  
HETATM   28  C   UNL     1     -10.524   5.438  66.917  1.00  0.00    -0.277 C  
HETATM   29  O   UNL     1     -10.041   4.887  68.051  1.00  0.00    -0.140 OA 
HETATM   30  O   UNL     1     -10.613   4.819  65.865  1.00  0.00    -0.303 OA 
ENDBRANCH  26  27
ENDBRANCH  13  26
TORSDOF 9
ENDMDL
MODEL       16
REMARK 921   NORMALIZED FREE ENERGY PREDICTED BY IDOCK:   -5.83 KCAL/MOL
REMARK 922        TOTAL FREE ENERGY PREDICTED BY IDOCK:  -10.98 KCAL/MOL
REMARK 923 INTER-LIGAND FREE ENERGY PREDICTED BY IDOCK:   -9.19 KCAL/MOL
REMARK 924 INTRA-LIGAND FREE ENERGY PREDICTED BY IDOCK:   -1.79 KCAL/MOL
REMARK 927      BINDING AFFINITY PREDICTED BY RF-SCORE:    0.00 PKD
ROOT
HETATM    1  C   UNL     1     -10.579  10.424  67.457  1.00  0.00    -0.312 C  
HETATM    2  C   UNL     1      -9.200  11.082  67.503  1.00  0.00    -0.149 C  
HETATM    3  C   UNL     1      -8.915  11.406  66.033  1.00  0.00    -0.197 C  
HETATM    4  O   UNL     1      -7.559  11.117  65.720  1.00  0.00    -0.357 OA 
HETATM    5  C   UNL     1      -9.846  10.500  65.184  1.00  0.00    -0.359 C  
HETATM    6  H   UNL     1      -7.382  11.318  64.808  1.00  0.00     0.000 HD 
HETATM    7  C   UNL     1      -9.287   6.350  67.952  1.00  0.00    -0.114 A  
HETATM    8  C   UNL     1     -10.499   9.548  66.219  1.00  0.00    -0.137 C  
HETATM    9  C   UNL     1      -9.373   5.676  69.161  1.00  0.00    -0.151 A  
HETATM   10  C   UNL     1      -9.631   8.304  66.461  1.00  0.00    -0.312 C  
HETATM   11  C   UNL     1      -9.954   6.309  70.255  1.00  0.00    -0.210 A  
HETATM   12  C   UNL     1      -9.794   7.653  67.817  1.00  0.00    -0.196 A  
HETATM   13  C   UNL     1     -10.441   7.624  70.168  1.00  0.00    -0.227 A  
HETATM   14  C   UNL     1     -10.367   8.320  68.934  1.00  0.00    -0.230 A  
HETATM   15  C   UNL     1     -10.985   9.677  68.715  1.00  0.00    -0.153 C  
ENDROOT
BRANCH   5  16
HETATM   16  C   UNL     1     -10.947  11.293  64.446  1.00  0.00    -0.331 C  
BRANCH  16  17
HETATM   17  C   UNL     1     -10.552  12.699  63.988  1.00  0.00    -0.457 C  
BRANCH  17  18
HETATM   18  C   UNL     1     -11.545  13.815  64.333  1.00  0.00    -0.395 C  
HETATM   19  O   UNL     1     -12.484  13.959  63.269  1.00  0.00    -1.113 OA 
HETATM   20  H   UNL     1     -13.099  14.650  63.482  1.00  0.00     0.000 HD 
BRANCH  18  21
HETATM   21  C   UNL     1     -12.340  13.497  65.608  1.00  0.00    -0.522 C  
BRANCH  21  22
HETATM   22  C   UNL     1     -11.737  14.139  66.857  1.00  0.00    -0.437 C  
BRANCH  22  23
HETATM   23  C   UNL     1     -12.089  13.377  68.131  1.00  0.00    -0.267 C  
BRANCH  23  24
HETATM   24  C   UNL     1     -11.882  14.276  69.350  1.00  0.00    -0.372 C  
HETATM   25  C   UNL     1     -11.683  15.726  68.949  1.00  0.00    -0.404 C  
ENDBRANCH  23  24
ENDBRANCH  22  23
ENDBRANCH  21  22
ENDBRANCH  18  21
ENDBRANCH  17  18
ENDBRANCH  16  17
ENDBRANCH   5  16
BRANCH  13  26
HETATM   26  O   UNL     1     -10.994   8.028  71.362  1.00  0.00    -0.228 OA 
BRANCH  26  27
HETATM   27  C   UNL     1     -12.341   7.665  71.640  1.00  0.00    -0.326 C  
HETATM   28  C   UNL     1     -13.213   8.881  71.901  1.00  0.00    -0.393 C  
HETATM   29  O   UNL     1     -12.561  10.054  71.753  1.00  0.00    -0.384 OA 
HETATM   30  O   UNL     1     -14.396   8.814  72.205  1.00  0.00    -0.456 OA 
ENDBRANCH  26  27
ENDBRANCH  13  26
TORSDOF 9
ENDMDL
MODEL       17
REMARK 921   NORMALIZED FREE ENERGY PREDICTED BY IDOCK:   -5.81 KCAL/MOL
REMARK 922        TOTAL FREE ENERGY PREDICTED BY IDOCK:  -10.96 KCAL/MOL
REMARK 923 INTER-LIGAND FREE ENERGY PREDICTED BY IDOCK:   -9.23 KCAL/MOL
REMARK 924 INTRA-LIGAND FREE ENERGY PREDICTED BY IDOCK:   -1.74 KCAL/MOL
REMARK 927      BINDING AFFINITY PREDICTED BY RF-SCORE:    0.00 PKD
ROOT
HETATM    1  C   UNL     1      -9.892  11.343  68.040  1.00  0.00    -0.191 C  
HETATM    2  C   UNL     1     -10.802  10.984  66.866  1.00  0.00    -0.324 C  
HETATM    3  C   UNL     1     -11.064  12.336  66.196  1.00  0.00    -0.311 C  
HETATM    4  O   UNL     1     -12.426  12.436  65.803  1.00  0.00    -0.615 OA 
HETATM    5  C   UNL     1     -10.748  13.429  67.251  1.00  0.00    -0.265 C  
HETATM    6  H   UNL     1     -12.588  13.275  65.387  1.00  0.00     0.000 HD 
HETATM    7  C   UNL     1     -12.845  11.077  71.158  1.00  0.00    -0.491 A  
HETATM    8  C   UNL     1     -10.497  12.636  68.559  1.00  0.00    -0.249 C  
HETATM    9  C   UNL     1     -12.947   9.984  72.004  1.00  0.00    -0.514 A  
HETATM   10  C   UNL     1     -11.807  12.383  69.320  1.00  0.00    -0.361 C  
HETATM   11  C   UNL     1     -12.028   8.946  71.893  1.00  0.00    -0.441 A  
HETATM   12  C   UNL     1     -11.815  11.156  70.206  1.00  0.00    -0.455 A  
HETATM   13  C   UNL     1     -11.005   8.973  70.930  1.00  0.00    -0.268 A  
HETATM   14  C   UNL     1     -10.884  10.090  70.065  1.00  0.00    -0.352 A  
HETATM   15  C   UNL     1      -9.741  10.265  69.098  1.00  0.00    -0.229 C  
ENDROOT
BRANCH   5  16
HETATM   16  C   UNL     1      -9.493  14.258  66.901  1.00  0.00    -0.272 C  
BRANCH  16  17
HETATM   17  C   UNL     1      -9.648  15.775  67.030  1.00  0.00    -0.236 C  
BRANCH  17  18
HETATM   18  C   UNL     1      -9.365  16.358  68.420  1.00  0.00    -0.217 C  
HETATM   19  O   UNL     1      -8.575  17.539  68.287  1.00  0.00    -0.250 OA 
HETATM   20  H   UNL     1      -8.400  17.899  69.148  1.00  0.00     0.000 HD 
BRANCH  18  21
HETATM   21  C   UNL     1     -10.659  16.751  69.147  1.00  0.00    -0.343 C  
BRANCH  21  22
HETATM   22  C   UNL     1     -10.950  15.863  70.358  1.00  0.00    -0.361 C  
BRANCH  22  23
HETATM   23  C   UNL     1     -12.437  15.557  70.511  1.00  0.00    -0.472 C  
BRANCH  23  24
HETATM   24  C   UNL     1     -12.701  14.929  71.880  1.00  0.00    -0.395 C  
HETATM   25  C   UNL     1     -14.186  14.758  72.142  1.00  0.00    -0.608 C  
ENDBRANCH  23  24
ENDBRANCH  22  23
ENDBRANCH  21  22
ENDBRANCH  18  21
ENDBRANCH  17  18
ENDBRANCH  16  17
ENDBRANCH   5  16
BRANCH  13  26
HETATM   26  O   UNL     1     -10.204   7.858  71.026  1.00  0.00    -0.196 OA 
BRANCH  26  27
HETATM   27  C   UNL     1     -10.148   7.170  72.270  1.00  0.00    -0.181 C  
HETATM   28  C   UNL     1     -10.358   5.676  72.100  1.00  0.00    -0.209 C  
HETATM   29  O   UNL     1     -10.488   5.292  70.813  1.00  0.00    -0.253 OA 
HETATM   30  O   UNL     1     -10.396   4.887  73.034  1.00  0.00    -0.168 OA 
ENDBRANCH  26  27
ENDBRANCH  13  26
TORSDOF 9
ENDMDL
MODEL       18
REMARK 921   NORMALIZED FREE ENERGY PREDICTED BY IDOCK:   -5.80 KCAL/MOL
REMARK 922        TOTAL FREE ENERGY PREDICTED BY IDOCK:  -10.95 KCAL/MOL
REMARK 923 INTER-LIGAND FREE ENERGY PREDICTED BY IDOCK:   -9.48 KCAL/MOL
REMARK 924 INTRA-LIGAND FREE ENERGY PREDICTED BY IDOCK:   -1.46 KCAL/MOL
REMARK 927      BINDING AFFINITY PREDICTED BY RF-SCORE:    0.00 PKD
ROOT
HETATM    1  C   UNL     1     -12.241  10.392  71.533  1.00  0.00    -0.418 C  
HETATM    2  C   UNL     1     -13.572   9.679  71.294  1.00  0.00    -0.294 C  
HETATM    3  C   UNL     1     -13.260   8.221  71.644  1.00  0.00    -0.328 C  
HETATM    4  O   UNL     1     -13.874   7.347  70.708  1.00  0.00    -0.577 OA 
HETATM    5  C   UNL     1     -11.718   8.061  71.568  1.00  0.00    -0.321 C  
HETATM    6  H   UNL     1     -13.681   6.442  70.926  1.00  0.00     0.000 HD 
HETATM    7  C   UNL     1     -11.063  10.804  67.415  1.00  0.00    -0.363 A  
HETATM    8  C   UNL     1     -11.223   9.408  70.983  1.00  0.00    -0.412 C  
HETATM    9  C   UNL     1     -11.192  11.992  66.713  1.00  0.00    -0.376 A  
HETATM   10  C   UNL     1     -11.229   9.388  69.447  1.00  0.00    -0.019 C  
HETATM   11  C   UNL     1     -11.664  13.124  67.368  1.00  0.00    -0.419 A  
HETATM   12  C   UNL     1     -11.387  10.737  68.780  1.00  0.00    -0.352 A  
HETATM   13  C   UNL     1     -12.031  13.088  68.723  1.00  0.00    -0.266 A  
HETATM   14  C   UNL     1     -11.895  11.881  69.456  1.00  0.00    -0.395 A  
HETATM   15  C   UNL     1     -12.134  11.786  70.941  1.00  0.00    -0.271 C  
ENDROOT
BRANCH   5  16
HETATM   16  C   UNL     1     -11.068   7.827  72.949  1.00  0.00    -0.457 C  
BRANCH  16  17
HETATM   17  C   UNL     1      -9.881   6.862  72.964  1.00  0.00    -0.204 C  
BRANCH  17  18
HETATM   18  C   UNL     1     -10.231   5.373  72.854  1.00  0.00    -0.186 C  
HETATM   19  O   UNL     1     -11.596   5.179  73.223  1.00  0.00    -0.484 OA 
HETATM   20  H   UNL     1     -11.813   4.257  73.155  1.00  0.00     0.000 HD 
BRANCH  18  21
HETATM   21  C   UNL     1     -10.066   4.854  71.418  1.00  0.00    -0.268 C  
BRANCH  21  22
HETATM   22  C   UNL     1      -8.806   5.390  70.737  1.00  0.00    -0.145 C  
BRANCH  22  23
HETATM   23  C   UNL     1      -9.045   5.753  69.274  1.00  0.00    -0.128 C  
BRANCH  23  24
HETATM   24  C   UNL     1     -10.545   5.872  69.005  1.00  0.00    -0.360 C  
HETATM   25  C   UNL     1     -10.826   6.333  67.587  1.00  0.00    -0.433 C  
ENDBRANCH  23  24
ENDBRANCH  22  23
ENDBRANCH  21  22
ENDBRANCH  18  21
ENDBRANCH  17  18
ENDBRANCH  16  17
ENDBRANCH   5  16
BRANCH  13  26
HETATM   26  O   UNL     1     -12.441  14.327  69.160  1.00  0.00    -0.212 OA 
BRANCH  26  27
HETATM   27  C   UNL     1     -11.682  14.971  70.176  1.00  0.00    -0.299 C  
HETATM   28  C   UNL     1     -12.571  15.679  71.184  1.00  0.00    -0.453 C  
HETATM   29  O   UNL     1     -13.890  15.504  70.956  1.00  0.00    -0.545 OA 
HETATM   30  O   UNL     1     -12.142  16.338  72.121  1.00  0.00    -0.496 OA 
ENDBRANCH  26  27
ENDBRANCH  13  26
TORSDOF 9
ENDMDL
MODEL       19
REMARK 921   NORMALIZED FREE ENERGY PREDICTED BY IDOCK:   -5.77 KCAL/MOL
REMARK 922        TOTAL FREE ENERGY PREDICTED BY IDOCK:  -10.90 KCAL/MOL
REMARK 923 INTER-LIGAND FREE ENERGY PREDICTED BY IDOCK:   -9.72 KCAL/MOL
REMARK 924 INTRA-LIGAND FREE ENERGY PREDICTED BY IDOCK:   -1.17 KCAL/MOL
REMARK 927      BINDING AFFINITY PREDICTED BY RF-SCORE:    0.00 PKD
ROOT
HETATM    1  C   UNL     1     -11.294  13.691  67.163  1.00  0.00    -0.340 C  
HETATM    2  C   UNL     1     -11.118  12.764  65.960  1.00  0.00    -0.315 C  
HETATM    3  C   UNL     1     -11.226  11.365  66.573  1.00  0.00    -0.209 C  
HETATM    4  O   UNL     1     -10.258  10.499  65.998  1.00  0.00    -0.248 OA 
HETATM    5  C   UNL     1     -10.946  11.517  68.093  1.00  0.00    -0.279 C  
HETATM    6  H   UNL     1     -10.324   9.631  66.379  1.00  0.00     0.000 HD 
HETATM    7  C   UNL     1      -7.162  14.786  67.651  1.00  0.00    -0.208 A  
HETATM    8  C   UNL     1     -10.497  12.992  68.251  1.00  0.00    -0.258 C  
HETATM    9  C   UNL     1      -6.650  15.998  67.214  1.00  0.00    -0.219 A  
HETATM   10  C   UNL     1      -8.984  13.145  68.031  1.00  0.00    -0.195 C  
HETATM   11  C   UNL     1      -7.505  16.935  66.645  1.00  0.00    -0.303 A  
HETATM   12  C   UNL     1      -8.533  14.504  67.542  1.00  0.00    -0.201 A  
HETATM   13  C   UNL     1      -8.877  16.675  66.487  1.00  0.00    -0.279 A  
HETATM   14  C   UNL     1      -9.415  15.443  66.939  1.00  0.00    -0.246 A  
HETATM   15  C   UNL     1     -10.891  15.136  66.934  1.00  0.00    -0.317 C  
ENDROOT
BRANCH   5  16
HETATM   16  C   UNL     1     -12.195  11.261  68.964  1.00  0.00    -0.211 C  
BRANCH  16  17
HETATM   17  C   UNL     1     -11.933  11.109  70.463  1.00  0.00    -0.475 C  
BRANCH  17  18
HETATM   18  C   UNL     1     -13.153  11.293  71.375  1.00  0.00    -0.295 C  
HETATM   19  O   UNL     1     -13.125  10.309  72.408  1.00  0.00    -0.515 OA 
HETATM   20  H   UNL     1     -13.880  10.423  72.972  1.00  0.00     0.000 HD 
BRANCH  18  21
HETATM   21  C   UNL     1     -13.154  12.671  72.053  1.00  0.00    -0.471 C  
BRANCH  21  22
HETATM   22  C   UNL     1     -12.568  13.768  71.165  1.00  0.00    -0.452 C  
BRANCH  22  23
HETATM   23  C   UNL     1     -13.285  15.104  71.339  1.00  0.00    -0.528 C  
BRANCH  23  24
HETATM   24  C   UNL     1     -12.390  16.079  72.104  1.00  0.00    -0.557 C  
HETATM   25  C   UNL     1     -12.668  16.044  73.595  1.00  0.00    -0.715 C  
ENDBRANCH  23  24
ENDBRANCH  22  23
ENDBRANCH  21  22
ENDBRANCH  18  21
ENDBRANCH  17  18
ENDBRANCH  16  17
ENDBRANCH   5  16
BRANCH  13  26
HETATM   26  O   UNL     1      -9.525  17.754  65.930  1.00  0.00    -0.521 OA 
BRANCH  26  27
HETATM   27  C   UNL     1      -9.068  19.061  66.254  1.00  0.00    -0.287 C  
HETATM   28  C   UNL     1     -10.110  19.851  67.024  1.00  0.00    -0.446 C  
HETATM   29  O   UNL     1     -11.227  19.144  67.302  1.00  0.00    -0.299 OA 
HETATM   30  O   UNL     1      -9.959  21.014  67.372  1.00  0.00    -0.334 OA 
ENDBRANCH  26  27
ENDBRANCH  13  26
TORSDOF 9
ENDMDL
MODEL       20
REMARK 921   NORMALIZED FREE ENERGY PREDICTED BY IDOCK:   -5.72 KCAL/MOL
REMARK 922        TOTAL FREE ENERGY PREDICTED BY IDOCK:  -10.83 KCAL/MOL
REMARK 923 INTER-LIGAND FREE ENERGY PREDICTED BY IDOCK:   -8.93 KCAL/MOL
REMARK 924 INTRA-LIGAND FREE ENERGY PREDICTED BY IDOCK:   -1.90 KCAL/MOL
REMARK 927      BINDING AFFINITY PREDICTED BY RF-SCORE:    0.00 PKD
ROOT
HETATM    1  C   UNL     1      -9.993  12.463  66.389  1.00  0.00    -0.254 C  
HETATM    2  C   UNL     1     -10.910  11.723  65.416  1.00  0.00    -0.347 C  
HETATM    3  C   UNL     1     -11.678  12.853  64.724  1.00  0.00    -0.346 C  
HETATM    4  O   UNL     1     -13.045  12.499  64.572  1.00  0.00    -0.816 OA 
HETATM    5  C   UNL     1     -11.565  14.100  65.641  1.00  0.00    -0.339 C  
HETATM    6  H   UNL     1     -13.521  13.200  64.142  1.00  0.00     0.000 HD 
HETATM    7  C   UNL     1     -12.214  11.675  69.987  1.00  0.00    -0.338 A  
HETATM    8  C   UNL     1     -10.887  13.567  66.928  1.00  0.00    -0.286 C  
HETATM    9  C   UNL     1     -11.842  10.701  70.901  1.00  0.00    -0.433 A  
HETATM   10  C   UNL     1     -11.922  13.020  67.922  1.00  0.00    -0.338 C  
HETATM   11  C   UNL     1     -10.672   9.979  70.691  1.00  0.00    -0.325 A  
HETATM   12  C   UNL     1     -11.415  11.952  68.866  1.00  0.00    -0.358 A  
HETATM   13  C   UNL     1      -9.865  10.203  69.563  1.00  0.00    -0.232 A  
HETATM   14  C   UNL     1     -10.229  11.204  68.626  1.00  0.00    -0.216 A  
HETATM   15  C   UNL     1      -9.356  11.604  67.465  1.00  0.00    -0.168 C  
ENDROOT
BRANCH   5  16
HETATM   16  C   UNL     1     -10.699  15.222  65.027  1.00  0.00    -0.461 C  
BRANCH  16  17
HETATM   17  C   UNL     1      -9.849  16.017  66.020  1.00  0.00    -0.365 C  
BRANCH  17  18
HETATM   18  C   UNL     1     -10.137  17.521  66.089  1.00  0.00    -0.310 C  
HETATM   19  O   UNL     1     -11.071  17.872  65.068  1.00  0.00    -0.705 OA 
HETATM   20  H   UNL     1     -11.249  18.804  65.111  1.00  0.00     0.000 HD 
BRANCH  18  21
HETATM   21  C   UNL     1     -10.758  17.921  67.436  1.00  0.00    -0.306 C  
BRANCH  21  22
HETATM   22  C   UNL     1     -11.123  16.715  68.300  1.00  0.00    -0.295 C  
BRANCH  22  23
HETATM   23  C   UNL     1     -10.110  16.469  69.414  1.00  0.00    -0.230 C  
BRANCH  23  24
HETATM   24  C   UNL     1     -10.680  15.474  70.426  1.00  0.00    -0.342 C  
HETATM   25  C   UNL     1     -12.196  15.436  70.382  1.00  0.00    -0.430 C  
ENDBRANCH  23  24
ENDBRANCH  22  23
ENDBRANCH  21  22
ENDBRANCH  18  21
ENDBRANCH  17  18
ENDBRANCH  16  17
ENDBRANCH   5  16
BRANCH  13  26
HETATM   26  O   UNL     1      -8.751   9.396  69.582  1.00  0.00    -0.140 OA 
BRANCH  26  27
HETATM   27  C   UNL     1      -7.572   9.884  70.211  1.00  0.00    -0.158 C  
HETATM   28  C   UNL     1      -7.136   8.997  71.363  1.00  0.00    -0.050 C  
HETATM   29  O   UNL     1      -7.905   7.898  71.520  1.00  0.00    -0.085 OA 
HETATM   30  O   UNL     1      -6.175   9.240  72.080  1.00  0.00    -0.253 OA 
ENDBRANCH  26  27
ENDBRANCH  13  26
TORSDOF 9
ENDMDL
MODEL       21
REMARK 921   NORMALIZED FREE ENERGY PREDICTED BY IDOCK:   -5.72 KCAL/MOL
REMARK 922        TOTAL FREE ENERGY PREDICTED BY IDOCK:  -10.82 KCAL/MOL
REMARK 923 INTER-LIGAND FREE ENERGY PREDICTED BY IDOCK:   -9.38 KCAL/MOL
REMARK 924 INTRA-LIGAND FREE ENERGY PREDICTED BY IDOCK:   -1.44 KCAL/MOL
REMARK 927      BINDING AFFINITY PREDICTED BY RF-SCORE:    0.00 PKD
ROOT
HETATM    1  C   UNL     1      -9.958  12.139  68.346  1.00  0.00    -0.206 C  
HETATM    2  C   UNL     1     -11.157  12.235  69.288  1.00  0.00    -0.220 C  
HETATM    3  C   UNL     1     -11.458  10.772  69.628  1.00  0.00    -0.305 C  
HETATM    4  O   UNL     1     -12.860  10.545  69.633  1.00  0.00    -0.614 OA 
HETATM    5  C   UNL     1     -10.797   9.909  68.520  1.00  0.00    -0.257 C  
HETATM    6  H   UNL     1     -13.047   9.637  69.843  1.00  0.00     0.000 HD 
HETATM    7  C   UNL     1     -12.061  12.862  64.664  1.00  0.00    -0.474 A  
HETATM    8  C   UNL     1     -10.301  10.941  67.477  1.00  0.00    -0.237 C  
HETATM    9  C   UNL     1     -12.046  14.089  64.019  1.00  0.00    -0.413 A  
HETATM   10  C   UNL     1     -11.399  11.279  66.457  1.00  0.00    -0.122 C  
HETATM   11  C   UNL     1     -11.276  15.124  64.538  1.00  0.00    -0.283 A  
HETATM   12  C   UNL     1     -11.295  12.649  65.821  1.00  0.00    -0.370 A  
HETATM   13  C   UNL     1     -10.525  14.959  65.714  1.00  0.00    -0.330 A  
HETATM   14  C   UNL     1     -10.524  13.706  66.378  1.00  0.00    -0.288 A  
HETATM   15  C   UNL     1      -9.644  13.400  67.562  1.00  0.00    -0.221 C  
ENDROOT
BRANCH   5  16
HETATM   16  C   UNL     1      -9.600   9.080  69.037  1.00  0.00    -0.160 C  
BRANCH  16  17
HETATM   17  C   UNL     1      -9.624   7.593  68.677  1.00  0.00    -0.152 C  
BRANCH  17  18
HETATM   18  C   UNL     1     -10.923   6.848  69.007  1.00  0.00    -0.181 C  
HETATM   19  O   UNL     1     -11.514   6.368  67.800  1.00  0.00    -0.649 OA 
HETATM   20  H   UNL     1     -12.318   5.907  68.005  1.00  0.00     0.000 HD 
BRANCH  18  21
HETATM   21  C   UNL     1     -10.669   5.632  69.910  1.00  0.00    -0.399 C  
BRANCH  21  22
HETATM   22  C   UNL     1     -10.795   5.963  71.397  1.00  0.00    -0.332 C  
BRANCH  22  23
HETATM   23  C   UNL     1     -12.005   6.842  71.697  1.00  0.00    -0.379 C  
BRANCH  23  24
HETATM   24  C   UNL     1     -11.555   8.134  72.379  1.00  0.00    -0.463 C  
HETATM   25  C   UNL     1     -10.044   8.204  72.505  1.00  0.00    -0.370 C  
ENDBRANCH  23  24
ENDBRANCH  22  23
ENDBRANCH  21  22
ENDBRANCH  18  21
ENDBRANCH  17  18
ENDBRANCH  16  17
ENDBRANCH   5  16
BRANCH  13  26
HETATM   26  O   UNL     1      -9.824  16.104  66.019  1.00  0.00    -0.304 OA 
BRANCH  26  27
HETATM   27  C   UNL     1     -10.251  16.882  67.131  1.00  0.00    -0.297 C  
HETATM   28  C   UNL     1     -10.653  18.286  66.719  1.00  0.00    -0.312 C  
HETATM   29  O   UNL     1     -10.591  18.496  65.387  1.00  0.00    -0.589 OA 
HETATM   30  O   UNL     1     -11.011  19.148  67.510  1.00  0.00    -0.456 OA 
ENDBRANCH  26  27
ENDBRANCH  13  26
TORSDOF 9
ENDMDL
MODEL       22
REMARK 921   NORMALIZED FREE ENERGY PREDICTED BY IDOCK:   -5.67 KCAL/MOL
REMARK 922        TOTAL FREE ENERGY PREDICTED BY IDOCK:  -10.75 KCAL/MOL
REMARK 923 INTER-LIGAND FREE ENERGY PREDICTED BY IDOCK:   -8.87 KCAL/MOL
REMARK 924 INTRA-LIGAND FREE ENERGY PREDICTED BY IDOCK:   -1.87 KCAL/MOL
REMARK 927      BINDING AFFINITY PREDICTED BY RF-SCORE:    0.00 PKD
ROOT
HETATM    1  C   UNL     1     -10.416   7.849  67.976  1.00  0.00    -0.245 C  
HETATM    2  C   UNL     1     -11.044   6.635  67.294  1.00  0.00    -0.418 C  
HETATM    3  C   UNL     1     -10.381   5.449  68.002  1.00  0.00    -0.152 C  
HETATM    4  O   UNL     1     -10.051   4.436  67.062  1.00  0.00    -0.193 OA 
HETATM    5  C   UNL     1      -9.082   5.988  68.659  1.00  0.00    -0.116 C  
HETATM    6  H   UNL     1      -9.640   3.700  67.501  1.00  0.00     0.000 HD 
HETATM    7  C   UNL     1      -7.679   8.920  64.834  1.00  0.00    -0.112 A  
HETATM    8  C   UNL     1      -8.961   7.440  68.130  1.00  0.00    -0.129 C  
HETATM    9  C   UNL     1      -7.921   9.959  63.949  1.00  0.00    -0.149 A  
HETATM   10  C   UNL     1      -8.215   7.487  66.788  1.00  0.00    -0.124 C  
HETATM   11  C   UNL     1      -9.063  10.737  64.107  1.00  0.00    -0.215 A  
HETATM   12  C   UNL     1      -8.563   8.657  65.893  1.00  0.00    -0.177 A  
HETATM   13  C   UNL     1      -9.988  10.483  65.133  1.00  0.00    -0.309 A  
HETATM   14  C   UNL     1      -9.747   9.429  66.050  1.00  0.00    -0.345 A  
HETATM   15  C   UNL     1     -10.611   9.172  67.258  1.00  0.00    -0.303 C  
ENDROOT
BRANCH   5  16
HETATM   16  C   UNL     1      -9.150   6.004  70.202  1.00  0.00    -0.154 C  
BRANCH  16  17
HETATM   17  C   UNL     1     -10.473   5.530  70.808  1.00  0.00    -0.330 C  
BRANCH  17  18
HETATM   18  C   UNL     1     -11.343   6.622  71.444  1.00  0.00    -0.289 C  
HETATM   19  O   UNL     1     -12.166   6.042  72.456  1.00  0.00    -0.533 OA 
HETATM   20  H   UNL     1     -12.704   6.718  72.850  1.00  0.00     0.000 HD 
BRANCH  18  21
HETATM   21  C   UNL     1     -10.492   7.711  72.113  1.00  0.00    -0.270 C  
BRANCH  21  22
HETATM   22  C   UNL     1     -10.631   9.072  71.430  1.00  0.00    -0.393 C  
BRANCH  22  23
HETATM   23  C   UNL     1     -12.074   9.385  71.046  1.00  0.00    -0.373 C  
BRANCH  23  24
HETATM   24  C   UNL     1     -12.311  10.895  71.095  1.00  0.00    -0.479 C  
HETATM   25  C   UNL     1     -11.741  11.591  69.872  1.00  0.00    -0.420 C  
ENDBRANCH  23  24
ENDBRANCH  22  23
ENDBRANCH  21  22
ENDBRANCH  18  21
ENDBRANCH  17  18
ENDBRANCH  16  17
ENDBRANCH   5  16
BRANCH  13  26
HETATM   26  O   UNL     1     -11.019  11.394  65.109  1.00  0.00    -0.267 OA 
BRANCH  26  27
HETATM   27  C   UNL     1     -10.914  12.512  64.236  1.00  0.00    -0.360 C  
HETATM   28  C   UNL     1     -12.251  13.202  64.035  1.00  0.00    -0.414 C  
HETATM   29  O   UNL     1     -13.251  12.665  64.767  1.00  0.00    -0.846 OA 
HETATM   30  O   UNL     1     -12.415  14.159  63.291  1.00  0.00    -0.758 OA 
ENDBRANCH  26  27
ENDBRANCH  13  26
TORSDOF 9
ENDMDL
MODEL       23
REMARK 921   NORMALIZED FREE ENERGY PREDICTED BY IDOCK:   -5.64 KCAL/MOL
REMARK 922        TOTAL FREE ENERGY PREDICTED BY IDOCK:  -10.70 KCAL/MOL
REMARK 923 INTER-LIGAND FREE ENERGY PREDICTED BY IDOCK:   -9.55 KCAL/MOL
REMARK 924 INTRA-LIGAND FREE ENERGY PREDICTED BY IDOCK:   -1.15 KCAL/MOL
REMARK 927      BINDING AFFINITY PREDICTED BY RF-SCORE:    0.00 PKD
ROOT
HETATM    1  C   UNL     1     -10.458  12.668  66.697  1.00  0.00    -0.261 C  
HETATM    2  C   UNL     1     -11.693  12.436  65.828  1.00  0.00    -0.470 C  
HETATM    3  C   UNL     1     -12.152  13.855  65.479  1.00  0.00    -0.407 C  
HETATM    4  O   UNL     1     -13.568  13.947  65.552  1.00  0.00    -0.613 OA 
HETATM    5  C   UNL     1     -11.517  14.804  66.530  1.00  0.00    -0.328 C  
HETATM    6  H   UNL     1     -13.853  14.828  65.336  1.00  0.00     0.000 HD 
HETATM    7  C   UNL     1     -12.271  11.838  70.509  1.00  0.00    -0.438 A  
HETATM    8  C   UNL     1     -10.866  13.849  67.562  1.00  0.00    -0.274 C  
HETATM    9  C   UNL     1     -12.102  10.634  71.175  1.00  0.00    -0.445 A  
HETATM   10  C   UNL     1     -11.867  13.433  68.650  1.00  0.00    -0.397 C  
HETATM   11  C   UNL     1     -11.266   9.665  70.630  1.00  0.00    -0.385 A  
HETATM   12  C   UNL     1     -11.596  12.095  69.305  1.00  0.00    -0.377 A  
HETATM   13  C   UNL     1     -10.601   9.872  69.411  1.00  0.00    -0.229 A  
HETATM   14  C   UNL     1     -10.759  11.103  68.724  1.00  0.00    -0.236 A  
HETATM   15  C   UNL     1      -9.980  11.462  67.485  1.00  0.00    -0.201 C  
ENDROOT
BRANCH   5  16
HETATM   16  C   UNL     1     -10.436  15.730  65.929  1.00  0.00    -0.366 C  
BRANCH  16  17
HETATM   17  C   UNL     1      -9.776  16.697  66.913  1.00  0.00    -0.261 C  
BRANCH  17  18
HETATM   18  C   UNL     1     -10.733  17.481  67.821  1.00  0.00    -0.332 C  
HETATM   19  O   UNL     1     -10.252  17.441  69.163  1.00  0.00    -0.329 OA 
HETATM   20  H   UNL     1     -10.844  17.926  69.725  1.00  0.00     0.000 HD 
BRANCH  18  21
HETATM   21  C   UNL     1     -10.827  18.958  67.410  1.00  0.00    -0.449 C  
BRANCH  21  22
HETATM   22  C   UNL     1      -9.607  19.770  67.843  1.00  0.00    -0.482 C  
BRANCH  22  23
HETATM   23  C   UNL     1      -8.804  20.295  66.656  1.00  0.00    -0.334 C  
BRANCH  23  24
HETATM   24  C   UNL     1      -7.333  20.440  67.045  1.00  0.00    -0.348 C  
HETATM   25  C   UNL     1      -7.011  19.678  68.316  1.00  0.00    -0.333 C  
ENDBRANCH  23  24
ENDBRANCH  22  23
ENDBRANCH  21  22
ENDBRANCH  18  21
ENDBRANCH  17  18
ENDBRANCH  16  17
ENDBRANCH   5  16
BRANCH  13  26
HETATM   26  O   UNL     1      -9.812   8.792  69.086  1.00  0.00    -0.173 OA 
BRANCH  26  27
HETATM   27  C   UNL     1     -10.446   7.547  68.818  1.00  0.00    -0.194 C  
HETATM   28  C   UNL     1     -10.457   7.226  67.334  1.00  0.00    -0.289 C  
HETATM   29  O   UNL     1      -9.813   8.141  66.579  1.00  0.00    -0.240 OA 
HETATM   30  O   UNL     1     -10.987   6.230  66.860  1.00  0.00    -0.358 OA 
ENDBRANCH  26  27
ENDBRANCH  13  26
TORSDOF 9
ENDMDL
MODEL       24
REMARK 921   NORMALIZED FREE ENERGY PREDICTED BY IDOCK:   -5.62 KCAL/MOL
REMARK 922        TOTAL FREE ENERGY PREDICTED BY IDOCK:  -10.67 KCAL/MOL
REMARK 923 INTER-LIGAND FREE ENERGY PREDICTED BY IDOCK:   -9.44 KCAL/MOL
REMARK 924 INTRA-LIGAND FREE ENERGY PREDICTED BY IDOCK:   -1.23 KCAL/MOL
REMARK 927      BINDING AFFINITY PREDICTED BY RF-SCORE:    0.00 PKD
ROOT
HETATM    1  C   UNL     1     -10.892  11.572  68.541  1.00  0.00    -0.254 C  
HETATM    2  C   UNL     1      -9.456  12.085  68.644  1.00  0.00    -0.069 C  
HETATM    3  C   UNL     1      -9.356  13.092  67.494  1.00  0.00    -0.200 C  
HETATM    4  O   UNL     1      -8.104  12.964  66.835  1.00  0.00    -0.374 OA 
HETATM    5  C   UNL     1     -10.501  12.755  66.502  1.00  0.00    -0.276 C  
HETATM    6  H   UNL     1      -8.043  13.589  66.121  1.00  0.00     0.000 HD 
HETATM    7  C   UNL     1     -10.015   7.764  66.742  1.00  0.00    -0.331 A  
HETATM    8  C   UNL     1     -11.097  11.430  67.042  1.00  0.00    -0.364 C  
HETATM    9  C   UNL     1      -9.997   6.580  67.462  1.00  0.00    -0.169 A  
HETATM   10  C   UNL     1     -10.351  10.210  66.483  1.00  0.00    -0.270 C  
HETATM   11  C   UNL     1     -10.333   6.597  68.811  1.00  0.00    -0.214 A  
HETATM   12  C   UNL     1     -10.384   8.973  67.354  1.00  0.00    -0.335 A  
HETATM   13  C   UNL     1     -10.674   7.791  69.467  1.00  0.00    -0.198 A  
HETATM   14  C   UNL     1     -10.705   9.008  68.739  1.00  0.00    -0.140 A  
HETATM   15  C   UNL     1     -11.190  10.309  69.327  1.00  0.00    -0.281 C  
ENDROOT
BRANCH   5  16
HETATM   16  C   UNL     1     -11.601  13.838  66.461  1.00  0.00    -0.386 C  
BRANCH  16  17
HETATM   17  C   UNL     1     -11.903  14.419  65.079  1.00  0.00    -0.400 C  
BRANCH  17  18
HETATM   18  C   UNL     1     -11.039  15.613  64.654  1.00  0.00    -0.373 C  
HETATM   19  O   UNL     1     -11.776  16.434  63.749  1.00  0.00    -1.553 OA 
HETATM   20  H   UNL     1     -11.241  17.173  63.487  1.00  0.00     0.000 HD 
BRANCH  18  21
HETATM   21  C   UNL     1     -10.648  16.489  65.854  1.00  0.00    -0.279 C  
BRANCH  21  22
HETATM   22  C   UNL     1      -9.142  16.492  66.118  1.00  0.00    -0.342 C  
BRANCH  22  23
HETATM   23  C   UNL     1      -8.805  16.872  67.557  1.00  0.00    -0.213 C  
BRANCH  23  24
HETATM   24  C   UNL     1     -10.050  17.415  68.258  1.00  0.00    -0.339 C  
HETATM   25  C   UNL     1      -9.886  18.875  68.641  1.00  0.00    -0.463 C  
ENDBRANCH  23  24
ENDBRANCH  22  23
ENDBRANCH  21  22
ENDBRANCH  18  21
ENDBRANCH  17  18
ENDBRANCH  16  17
ENDBRANCH   5  16
BRANCH  13  26
HETATM   26  O   UNL     1     -10.994   7.559  70.786  1.00  0.00    -0.242 OA 
BRANCH  26  27
HETATM   27  C   UNL     1     -12.070   6.675  71.075  1.00  0.00    -0.327 C  
HETATM   28  C   UNL     1     -13.298   7.420  71.568  1.00  0.00    -0.372 C  
HETATM   29  O   UNL     1     -13.150   8.762  71.571  1.00  0.00    -0.330 OA 
HETATM   30  O   UNL     1     -14.330   6.866  71.921  1.00  0.00    -0.349 OA 
ENDBRANCH  26  27
ENDBRANCH  13  26
TORSDOF 9
ENDMDL
MODEL       25
REMARK 921   NORMALIZED FREE ENERGY PREDICTED BY IDOCK:   -5.61 KCAL/MOL
REMARK 922        TOTAL FREE ENERGY PREDICTED BY IDOCK:  -10.65 KCAL/MOL
REMARK 923 INTER-LIGAND FREE ENERGY PREDICTED BY IDOCK:   -9.76 KCAL/MOL
REMARK 924 INTRA-LIGAND FREE ENERGY PREDICTED BY IDOCK:   -0.89 KCAL/MOL
REMARK 927      BINDING AFFINITY PREDICTED BY RF-SCORE:    0.00 PKD
ROOT
HETATM    1  C   UNL     1     -10.768  12.518  67.373  1.00  0.00    -0.254 C  
HETATM    2  C   UNL     1     -11.948  12.414  66.408  1.00  0.00    -0.346 C  
HETATM    3  C   UNL     1     -11.935  13.765  65.686  1.00  0.00    -0.388 C  
HETATM    4  O   UNL     1     -13.260  14.253  65.530  1.00  0.00    -0.641 OA 
HETATM    5  C   UNL     1     -11.125  14.743  66.579  1.00  0.00    -0.334 C  
HETATM    6  H   UNL     1     -13.252  15.091  65.082  1.00  0.00     0.000 HD 
HETATM    7  C   UNL     1     -13.025  13.218  70.968  1.00  0.00    -0.233 A  
HETATM    8  C   UNL     1     -10.868  13.946  67.882  1.00  0.00    -0.256 C  
HETATM    9  C   UNL     1     -13.272  12.226  71.904  1.00  0.00    -0.481 A  
HETATM   10  C   UNL     1     -12.026  14.110  68.878  1.00  0.00    -0.376 C  
HETATM   11  C   UNL     1     -12.726  10.961  71.718  1.00  0.00    -0.435 A  
HETATM   12  C   UNL     1     -12.216  12.964  69.848  1.00  0.00    -0.258 A  
HETATM   13  C   UNL     1     -11.941  10.659  70.593  1.00  0.00    -0.367 A  
HETATM   14  C   UNL     1     -11.672  11.668  69.633  1.00  0.00    -0.418 A  
HETATM   15  C   UNL     1     -10.732  11.472  68.472  1.00  0.00    -0.242 C  
ENDROOT
BRANCH   5  16
HETATM   16  C   UNL     1      -9.776  15.155  65.950  1.00  0.00    -0.385 C  
BRANCH  16  17
HETATM   17  C   UNL     1      -9.280  16.556  66.314  1.00  0.00    -0.345 C  
BRANCH  17  18
HETATM   18  C   UNL     1     -10.364  17.563  66.716  1.00  0.00    -0.314 C  
HETATM   19  O   UNL     1     -10.359  17.724  68.134  1.00  0.00    -0.355 OA 
HETATM   20  H   UNL     1     -11.030  18.348  68.383  1.00  0.00     0.000 HD 
BRANCH  18  21
HETATM   21  C   UNL     1     -10.114  18.947  66.097  1.00  0.00    -0.438 C  
BRANCH  21  22
HETATM   22  C   UNL     1      -9.014  19.726  66.817  1.00  0.00    -0.431 C  
BRANCH  22  23
HETATM   23  C   UNL     1      -7.815  20.008  65.916  1.00  0.00    -0.277 C  
BRANCH  23  24
HETATM   24  C   UNL     1      -6.522  19.919  66.727  1.00  0.00    -0.213 C  
HETATM   25  C   UNL     1      -6.402  21.063  67.718  1.00  0.00    -0.410 C  
ENDBRANCH  23  24
ENDBRANCH  22  23
ENDBRANCH  21  22
ENDBRANCH  18  21
ENDBRANCH  17  18
ENDBRANCH  16  17
ENDBRANCH   5  16
BRANCH  13  26
HETATM   26  O   UNL     1     -11.488   9.360  70.638  1.00  0.00    -0.264 OA 
BRANCH  26  27
HETATM   27  C   UNL     1     -11.783   8.580  71.790  1.00  0.00    -0.327 C  
HETATM   28  C   UNL     1     -10.529   8.228  72.571  1.00  0.00    -0.336 C  
HETATM   29  O   UNL     1      -9.404   8.774  72.062  1.00  0.00    -0.280 OA 
HETATM   30  O   UNL     1     -10.530   7.527  73.574  1.00  0.00    -0.357 OA 
ENDBRANCH  26  27
ENDBRANCH  13  26
TORSDOF 9
ENDMDL
MODEL       26
REMARK 921   NORMALIZED FREE ENERGY PREDICTED BY IDOCK:   -5.57 KCAL/MOL
REMARK 922        TOTAL FREE ENERGY PREDICTED BY IDOCK:  -10.60 KCAL/MOL
REMARK 923 INTER-LIGAND FREE ENERGY PREDICTED BY IDOCK:   -7.84 KCAL/MOL
REMARK 924 INTRA-LIGAND FREE ENERGY PREDICTED BY IDOCK:   -2.76 KCAL/MOL
REMARK 927      BINDING AFFINITY PREDICTED BY RF-SCORE:    0.00 PKD
ROOT
HETATM    1  C   UNL     1     -12.389   7.718  70.703  1.00  0.00     0.082 C  
HETATM    2  C   UNL     1     -13.603   7.409  71.577  1.00  0.00    -0.454 C  
HETATM    3  C   UNL     1     -14.035   8.788  72.083  1.00  0.00    -0.460 C  
HETATM    4  O   UNL     1     -14.401   8.718  73.454  1.00  0.00    -1.155 OA 
HETATM    5  C   UNL     1     -12.812   9.730  71.921  1.00  0.00    -0.520 C  
HETATM    6  H   UNL     1     -14.669   9.574  73.768  1.00  0.00     0.000 HD 
HETATM    7  C   UNL     1      -9.351   6.439  73.467  1.00  0.00    -0.145 A  
HETATM    8  C   UNL     1     -11.658   8.785  71.499  1.00  0.00    -0.374 C  
HETATM    9  C   UNL     1      -8.701   5.219  73.357  1.00  0.00    -0.115 A  
HETATM   10  C   UNL     1     -10.945   8.189  72.722  1.00  0.00    -0.401 C  
HETATM   11  C   UNL     1      -8.989   4.388  72.280  1.00  0.00    -0.139 A  
HETATM   12  C   UNL     1     -10.279   6.849  72.496  1.00  0.00    -0.205 A  
HETATM   13  C   UNL     1      -9.936   4.748  71.309  1.00  0.00    -0.200 A  
HETATM   14  C   UNL     1     -10.601   5.997  71.404  1.00  0.00    -0.300 A  
HETATM   15  C   UNL     1     -11.528   6.522  70.338  1.00  0.00    -0.465 C  
ENDROOT
BRANCH   5  16
HETATM   16  C   UNL     1     -13.021  10.808  70.835  1.00  0.00    -0.385 C  
BRANCH  16  17
HETATM   17  C   UNL     1     -11.781  11.167  70.015  1.00  0.00    -0.438 C  
BRANCH  17  18
HETATM   18  C   UNL     1     -11.786  10.692  68.557  1.00  0.00    -0.127 C  
HETATM   19  O   UNL     1     -11.970  11.813  67.694  1.00  0.00    -0.599 OA 
HETATM   20  H   UNL     1     -11.973  11.519  66.791  1.00  0.00     0.000 HD 
BRANCH  18  21
HETATM   21  C   UNL     1     -10.456  10.028  68.169  1.00  0.00    -0.250 C  
BRANCH  21  22
HETATM   22  C   UNL     1      -9.292  10.476  69.053  1.00  0.00    -0.205 C  
BRANCH  22  23
HETATM   23  C   UNL     1      -8.704   9.328  69.868  1.00  0.00    -0.189 C  
BRANCH  23  24
HETATM   24  C   UNL     1      -8.574   8.081  68.993  1.00  0.00    -0.137 C  
HETATM   25  C   UNL     1      -7.574   7.095  69.568  1.00  0.00    -0.101 C  
ENDBRANCH  23  24
ENDBRANCH  22  23
ENDBRANCH  21  22
ENDBRANCH  18  21
ENDBRANCH  17  18
ENDBRANCH  16  17
ENDBRANCH   5  16
BRANCH  13  26
HETATM   26  O   UNL     1     -10.033   3.786  70.328  1.00  0.00    -0.134 OA 
BRANCH  26  27
HETATM   27  C   UNL     1      -8.848   3.395  69.645  1.00  0.00    -0.090 C  
HETATM   28  C   UNL     1      -8.843   3.870  68.203  1.00  0.00    -0.110 C  
HETATM   29  O   UNL     1      -9.919   4.617  67.877  1.00  0.00    -0.143 OA 
HETATM   30  O   UNL     1      -7.948   3.615  67.409  1.00  0.00    -0.082 OA 
ENDBRANCH  26  27
ENDBRANCH  13  26
TORSDOF 9
ENDMDL
MODEL       27
REMARK 921   NORMALIZED FREE ENERGY PREDICTED BY IDOCK:   -5.56 KCAL/MOL
REMARK 922        TOTAL FREE ENERGY PREDICTED BY IDOCK:  -10.58 KCAL/MOL
REMARK 923 INTER-LIGAND FREE ENERGY PREDICTED BY IDOCK:   -9.48 KCAL/MOL
REMARK 924 INTRA-LIGAND FREE ENERGY PREDICTED BY IDOCK:   -1.09 KCAL/MOL
REMARK 927      BINDING AFFINITY PREDICTED BY RF-SCORE:    0.00 PKD
ROOT
HETATM    1  C   UNL     1     -12.155   7.540  70.706  1.00  0.00    -0.190 C  
HETATM    2  C   UNL     1     -13.463   7.298  71.458  1.00  0.00    -0.439 C  
HETATM    3  C   UNL     1     -13.900   8.707  71.870  1.00  0.00    -0.432 C  
HETATM    4  O   UNL     1     -14.407   8.698  73.197  1.00  0.00    -1.076 OA 
HETATM    5  C   UNL     1     -12.636   9.606  71.804  1.00  0.00    -0.497 C  
HETATM    6  H   UNL     1     -14.678   9.573  73.452  1.00  0.00     0.000 HD 
HETATM    7  C   UNL     1      -9.461   6.278  73.814  1.00  0.00    -0.164 A  
HETATM    8  C   UNL     1     -11.476   8.615  71.538  1.00  0.00    -0.363 C  
HETATM    9  C   UNL     1      -8.843   5.037  73.814  1.00  0.00    -0.115 A  
HETATM   10  C   UNL     1     -10.913   8.044  72.848  1.00  0.00    -0.398 C  
HETATM   11  C   UNL     1      -9.045   4.175  72.742  1.00  0.00    -0.121 A  
HETATM   12  C   UNL     1     -10.271   6.678  72.738  1.00  0.00    -0.208 A  
HETATM   13  C   UNL     1      -9.875   4.526  71.665  1.00  0.00    -0.190 A  
HETATM   14  C   UNL     1     -10.505   5.796  71.648  1.00  0.00    -0.286 A  
HETATM   15  C   UNL     1     -11.300   6.307  70.474  1.00  0.00    -0.428 C  
ENDROOT
BRANCH   5  16
HETATM   16  C   UNL     1     -12.698  10.649  70.666  1.00  0.00    -0.445 C  
BRANCH  16  17
HETATM   17  C   UNL     1     -11.347  11.199  70.203  1.00  0.00    -0.295 C  
BRANCH  17  18
HETATM   18  C   UNL     1     -11.390  12.128  68.983  1.00  0.00    -0.276 C  
HETATM   19  O   UNL     1     -11.962  11.432  67.877  1.00  0.00    -0.626 OA 
HETATM   20  H   UNL     1     -11.988  12.007  67.122  1.00  0.00     0.000 HD 
BRANCH  18  21
HETATM   21  C   UNL     1     -12.257  13.369  69.242  1.00  0.00    -0.222 C  
BRANCH  21  22
HETATM   22  C   UNL     1     -11.973  14.015  70.599  1.00  0.00    -0.376 C  
BRANCH  22  23
HETATM   23  C   UNL     1     -12.689  15.352  70.767  1.00  0.00    -0.516 C  
BRANCH  23  24
HETATM   24  C   UNL     1     -14.034  15.139  71.461  1.00  0.00    -0.614 C  
HETATM   25  C   UNL     1     -14.029  13.891  72.324  1.00  0.00    -0.663 C  
ENDBRANCH  23  24
ENDBRANCH  22  23
ENDBRANCH  21  22
ENDBRANCH  18  21
ENDBRANCH  17  18
ENDBRANCH  16  17
ENDBRANCH   5  16
BRANCH  13  26
HETATM   26  O   UNL     1      -9.901   3.531  70.714  1.00  0.00    -0.169 OA 
BRANCH  26  27
HETATM   27  C   UNL     1      -8.675   3.147  70.103  1.00  0.00    -0.070 C  
HETATM   28  C   UNL     1      -8.655   3.469  68.620  1.00  0.00    -0.091 C  
HETATM   29  O   UNL     1      -9.764   4.109  68.192  1.00  0.00    -0.152 OA 
HETATM   30  O   UNL     1      -7.723   3.190  67.878  1.00  0.00    -0.063 OA 
ENDBRANCH  26  27
ENDBRANCH  13  26
TORSDOF 9
ENDMDL
MODEL       28
REMARK 921   NORMALIZED FREE ENERGY PREDICTED BY IDOCK:   -5.53 KCAL/MOL
REMARK 922        TOTAL FREE ENERGY PREDICTED BY IDOCK:  -10.54 KCAL/MOL
REMARK 923 INTER-LIGAND FREE ENERGY PREDICTED BY IDOCK:   -8.23 KCAL/MOL
REMARK 924 INTRA-LIGAND FREE ENERGY PREDICTED BY IDOCK:   -2.31 KCAL/MOL
REMARK 927      BINDING AFFINITY PREDICTED BY RF-SCORE:    0.00 PKD
ROOT
HETATM    1  C   UNL     1      -7.749  15.597  69.178  1.00  0.00    -0.212 C  
HETATM    2  C   UNL     1      -6.890  14.344  69.012  1.00  0.00    -0.111 C  
HETATM    3  C   UNL     1      -5.594  14.882  68.398  1.00  0.00    -0.109 C  
HETATM    4  O   UNL     1      -5.131  14.007  67.379  1.00  0.00    -0.324 OA 
HETATM    5  C   UNL     1      -5.931  16.265  67.778  1.00  0.00    -0.157 C  
HETATM    6  H   UNL     1      -4.327  14.341  66.998  1.00  0.00     0.000 HD 
HETATM    7  C   UNL     1     -10.364  14.952  65.824  1.00  0.00    -0.351 A  
HETATM    8  C   UNL     1      -7.472  16.373  67.902  1.00  0.00    -0.151 C  
HETATM    9  C   UNL     1     -11.652  14.457  65.960  1.00  0.00    -0.364 A  
HETATM   10  C   UNL     1      -8.177  15.741  66.692  1.00  0.00    -0.305 C  
HETATM   11  C   UNL     1     -12.157  14.209  67.232  1.00  0.00    -0.407 A  
HETATM   12  C   UNL     1      -9.574  15.222  66.953  1.00  0.00    -0.245 A  
HETATM   13  C   UNL     1     -11.384  14.433  68.383  1.00  0.00    -0.287 A  
HETATM   14  C   UNL     1     -10.069  14.949  68.258  1.00  0.00    -0.221 A  
HETATM   15  C   UNL     1      -9.223  15.346  69.440  1.00  0.00    -0.268 C  
ENDROOT
BRANCH   5  16
HETATM   16  C   UNL     1      -5.269  17.439  68.532  1.00  0.00    -0.139 C  
BRANCH  16  17
HETATM   17  C   UNL     1      -6.136  18.689  68.699  1.00  0.00    -0.219 C  
BRANCH  17  18
HETATM   18  C   UNL     1      -5.761  19.883  67.812  1.00  0.00    -0.196 C  
HETATM   19  O   UNL     1      -5.253  19.407  66.566  1.00  0.00    -0.162 OA 
HETATM   20  H   UNL     1      -5.021  20.146  66.017  1.00  0.00     0.000 HD 
BRANCH  18  21
HETATM   21  C   UNL     1      -6.978  20.768  67.504  1.00  0.00    -0.406 C  
BRANCH  21  22
HETATM   22  C   UNL     1      -8.305  20.025  67.662  1.00  0.00    -0.364 C  
BRANCH  22  23
HETATM   23  C   UNL     1      -8.906  19.615  66.321  1.00  0.00    -0.410 C  
BRANCH  23  24
HETATM   24  C   UNL     1     -10.332  19.104  66.524  1.00  0.00    -0.526 C  
HETATM   25  C   UNL     1     -10.568  18.653  67.954  1.00  0.00    -0.397 C  
ENDBRANCH  23  24
ENDBRANCH  22  23
ENDBRANCH  21  22
ENDBRANCH  18  21
ENDBRANCH  17  18
ENDBRANCH  16  17
ENDBRANCH   5  16
BRANCH  13  26
HETATM   26  O   UNL     1     -12.099  14.145  69.524  1.00  0.00    -0.316 OA 
BRANCH  26  27
HETATM   27  C   UNL     1     -12.669  15.223  70.256  1.00  0.00    -0.314 C  
HETATM   28  C   UNL     1     -13.351  14.747  71.526  1.00  0.00    -0.374 C  
HETATM   29  O   UNL     1     -13.226  13.420  71.741  1.00  0.00    -0.385 OA 
HETATM   30  O   UNL     1     -13.950  15.489  72.292  1.00  0.00    -0.507 OA 
ENDBRANCH  26  27
ENDBRANCH  13  26
TORSDOF 9
ENDMDL
MODEL       29
REMARK 921   NORMALIZED FREE ENERGY PREDICTED BY IDOCK:   -5.53 KCAL/MOL
REMARK 922        TOTAL FREE ENERGY PREDICTED BY IDOCK:  -10.53 KCAL/MOL
REMARK 923 INTER-LIGAND FREE ENERGY PREDICTED BY IDOCK:   -9.34 KCAL/MOL
REMARK 924 INTRA-LIGAND FREE ENERGY PREDICTED BY IDOCK:   -1.18 KCAL/MOL
REMARK 927      BINDING AFFINITY PREDICTED BY RF-SCORE:    0.00 PKD
ROOT
HETATM    1  C   UNL     1     -10.418  14.737  67.016  1.00  0.00    -0.270 C  
HETATM    2  C   UNL     1     -10.386  14.439  65.517  1.00  0.00    -0.382 C  
HETATM    3  C   UNL     1     -10.526  12.915  65.457  1.00  0.00    -0.289 C  
HETATM    4  O   UNL     1      -9.654  12.378  64.472  1.00  0.00    -0.484 OA 
HETATM    5  C   UNL     1     -10.125  12.371  66.855  1.00  0.00    -0.230 C  
HETATM    6  H   UNL     1      -9.741  11.432  64.435  1.00  0.00     0.000 HD 
HETATM    7  C   UNL     1      -6.206  15.428  67.555  1.00  0.00    -0.120 A  
HETATM    8  C   UNL     1      -9.583  13.613  67.606  1.00  0.00    -0.221 C  
HETATM    9  C   UNL     1      -5.660  16.698  67.653  1.00  0.00    -0.162 A  
HETATM   10  C   UNL     1      -8.085  13.821  67.338  1.00  0.00    -0.188 C  
HETATM   11  C   UNL     1      -6.501  17.805  67.638  1.00  0.00    -0.187 A  
HETATM   12  C   UNL     1      -7.596  15.248  67.460  1.00  0.00    -0.212 A  
HETATM   13  C   UNL     1      -7.893  17.667  67.508  1.00  0.00    -0.202 A  
HETATM   14  C   UNL     1      -8.465  16.372  67.417  1.00  0.00    -0.195 A  
HETATM   15  C   UNL     1      -9.952  16.126  67.413  1.00  0.00    -0.247 C  
ENDROOT
BRANCH   5  16
HETATM   16  C   UNL     1     -11.319  11.776  67.634  1.00  0.00    -0.370 C  
BRANCH  16  17
HETATM   17  C   UNL     1     -11.343  12.078  69.133  1.00  0.00    -0.338 C  
BRANCH  17  18
HETATM   18  C   UNL     1     -11.743  10.908  70.042  1.00  0.00    -0.345 C  
HETATM   19  O   UNL     1     -10.566  10.272  70.540  1.00  0.00    -0.409 OA 
HETATM   20  H   UNL     1     -10.813   9.548  71.102  1.00  0.00     0.000 HD 
BRANCH  18  21
HETATM   21  C   UNL     1     -12.557  11.381  71.255  1.00  0.00    -0.480 C  
BRANCH  21  22
HETATM   22  C   UNL     1     -12.718  12.901  71.303  1.00  0.00    -0.371 C  
BRANCH  22  23
HETATM   23  C   UNL     1     -13.768  13.343  72.318  1.00  0.00    -0.705 C  
BRANCH  23  24
HETATM   24  C   UNL     1     -14.165  14.796  72.057  1.00  0.00    -0.626 C  
HETATM   25  C   UNL     1     -13.240  15.458  71.052  1.00  0.00    -0.560 C  
ENDBRANCH  23  24
ENDBRANCH  22  23
ENDBRANCH  21  22
ENDBRANCH  18  21
ENDBRANCH  17  18
ENDBRANCH  16  17
ENDBRANCH   5  16
BRANCH  13  26
HETATM   26  O   UNL     1      -8.519  18.892  67.546  1.00  0.00    -0.270 OA 
BRANCH  26  27
HETATM   27  C   UNL     1      -8.804  19.545  66.314  1.00  0.00    -0.361 C  
HETATM   28  C   UNL     1     -10.294  19.756  66.117  1.00  0.00    -0.524 C  
HETATM   29  O   UNL     1     -11.041  19.348  67.165  1.00  0.00    -0.445 OA 
HETATM   30  O   UNL     1     -10.780  20.256  65.112  1.00  0.00    -0.150 OA 
ENDBRANCH  26  27
ENDBRANCH  13  26
TORSDOF 9
ENDMDL
MODEL       30
REMARK 921   NORMALIZED FREE ENERGY PREDICTED BY IDOCK:   -5.51 KCAL/MOL
REMARK 922        TOTAL FREE ENERGY PREDICTED BY IDOCK:  -10.50 KCAL/MOL
REMARK 923 INTER-LIGAND FREE ENERGY PREDICTED BY IDOCK:   -8.98 KCAL/MOL
REMARK 924 INTRA-LIGAND FREE ENERGY PREDICTED BY IDOCK:   -1.52 KCAL/MOL
REMARK 927      BINDING AFFINITY PREDICTED BY RF-SCORE:    0.00 PKD
ROOT
HETATM    1  C   UNL     1     -10.228  11.240  68.429  1.00  0.00    -0.205 C  
HETATM    2  C   UNL     1      -8.703  11.324  68.472  1.00  0.00    -0.156 C  
HETATM    3  C   UNL     1      -8.359  12.148  67.227  1.00  0.00    -0.179 C  
HETATM    4  O   UNL     1      -7.220  11.605  66.575  1.00  0.00    -0.328 OA 
HETATM    5  C   UNL     1      -9.586  12.065  66.280  1.00  0.00    -0.243 C  
HETATM    6  H   UNL     1      -7.007  12.116  65.803  1.00  0.00     0.000 HD 
HETATM    7  C   UNL     1     -10.540   7.191  67.009  1.00  0.00    -0.413 A  
HETATM    8  C   UNL     1     -10.517  11.024  66.953  1.00  0.00    -0.293 C  
HETATM    9  C   UNL     1     -10.837   6.124  67.843  1.00  0.00    -0.406 A  
HETATM   10  C   UNL     1     -10.171   9.594  66.512  1.00  0.00    -0.294 C  
HETATM   11  C   UNL     1     -11.107   6.362  69.186  1.00  0.00    -0.428 A  
HETATM   12  C   UNL     1     -10.527   8.506  67.502  1.00  0.00    -0.328 A  
HETATM   13  C   UNL     1     -11.069   7.659  69.723  1.00  0.00    -0.106 A  
HETATM   14  C   UNL     1     -10.776   8.761  68.879  1.00  0.00    -0.114 A  
HETATM   15  C   UNL     1     -10.847  10.194  69.338  1.00  0.00    -0.274 C  
ENDROOT
BRANCH   5  16
HETATM   16  C   UNL     1     -10.331  13.410  66.140  1.00  0.00    -0.295 C  
BRANCH  16  17
HETATM   17  C   UNL     1      -9.650  14.612  66.797  1.00  0.00    -0.266 C  
BRANCH  17  18
HETATM   18  C   UNL     1     -10.368  15.200  68.018  1.00  0.00    -0.240 C  
HETATM   19  O   UNL     1     -10.735  16.552  67.746  1.00  0.00    -0.330 OA 
HETATM   20  H   UNL     1     -11.180  16.916  68.502  1.00  0.00     0.000 HD 
BRANCH  18  21
HETATM   21  C   UNL     1     -11.657  14.432  68.345  1.00  0.00    -0.351 C  
BRANCH  21  22
HETATM   22  C   UNL     1     -11.870  14.246  69.847  1.00  0.00    -0.382 C  
BRANCH  22  23
HETATM   23  C   UNL     1     -12.687  15.378  70.464  1.00  0.00    -0.455 C  
BRANCH  23  24
HETATM   24  C   UNL     1     -13.243  14.940  71.819  1.00  0.00    -0.438 C  
HETATM   25  C   UNL     1     -12.679  15.775  72.953  1.00  0.00    -0.572 C  
ENDBRANCH  23  24
ENDBRANCH  22  23
ENDBRANCH  21  22
ENDBRANCH  18  21
ENDBRANCH  17  18
ENDBRANCH  16  17
ENDBRANCH   5  16
BRANCH  13  26
HETATM   26  O   UNL     1     -11.396   7.653  71.060  1.00  0.00    -0.263 OA 
BRANCH  26  27
HETATM   27  C   UNL     1     -12.769   7.559  71.421  1.00  0.00    -0.348 C  
HETATM   28  C   UNL     1     -13.248   8.800  72.152  1.00  0.00    -0.414 C  
HETATM   29  O   UNL     1     -12.306   9.763  72.257  1.00  0.00    -0.248 OA 
HETATM   30  O   UNL     1     -14.379   8.929  72.599  1.00  0.00    -0.613 OA 
ENDBRANCH  26  27
ENDBRANCH  13  26
TORSDOF 9
ENDMDL
MODEL       31
REMARK 921   NORMALIZED FREE ENERGY PREDICTED BY IDOCK:   -5.50 KCAL/MOL
REMARK 922        TOTAL FREE ENERGY PREDICTED BY IDOCK:  -10.49 KCAL/MOL
REMARK 923 INTER-LIGAND FREE ENERGY PREDICTED BY IDOCK:   -9.59 KCAL/MOL
REMARK 924 INTRA-LIGAND FREE ENERGY PREDICTED BY IDOCK:   -0.90 KCAL/MOL
REMARK 927      BINDING AFFINITY PREDICTED BY RF-SCORE:    0.00 PKD
ROOT
HETATM    1  C   UNL     1     -12.056  11.360  69.177  1.00  0.00    -0.331 C  
HETATM    2  C   UNL     1     -11.842  12.747  69.781  1.00  0.00    -0.380 C  
HETATM    3  C   UNL     1     -11.614  13.636  68.554  1.00  0.00    -0.335 C  
HETATM    4  O   UNL     1     -10.569  14.564  68.806  1.00  0.00    -0.235 OA 
HETATM    5  C   UNL     1     -11.202  12.695  67.390  1.00  0.00    -0.337 C  
HETATM    6  H   UNL     1     -10.427  15.115  68.044  1.00  0.00     0.000 HD 
HETATM    7  C   UNL     1      -8.179   9.733  70.088  1.00  0.00    -0.202 A  
HETATM    8  C   UNL     1     -11.026  11.310  68.062  1.00  0.00    -0.302 C  
HETATM    9  C   UNL     1      -7.957   8.871  71.151  1.00  0.00    -0.181 A  
HETATM   10  C   UNL     1      -9.603  11.131  68.613  1.00  0.00    -0.200 C  
HETATM   11  C   UNL     1      -9.032   8.457  71.930  1.00  0.00    -0.280 A  
HETATM   12  C   UNL     1      -9.475  10.177  69.781  1.00  0.00    -0.201 A  
HETATM   13  C   UNL     1     -10.338   8.907  71.674  1.00  0.00    -0.345 A  
HETATM   14  C   UNL     1     -10.580   9.781  70.584  1.00  0.00    -0.382 A  
HETATM   15  C   UNL     1     -11.962  10.203  70.156  1.00  0.00    -0.262 C  
ENDROOT
BRANCH   5  16
HETATM   16  C   UNL     1     -12.276  12.601  66.284  1.00  0.00    -0.225 C  
BRANCH  16  17
HETATM   17  C   UNL     1     -12.641  13.923  65.605  1.00  0.00    -0.553 C  
BRANCH  17  18
HETATM   18  C   UNL     1     -11.696  14.380  64.487  1.00  0.00    -0.419 C  
HETATM   19  O   UNL     1     -12.347  14.231  63.226  1.00  0.00    -1.118 OA 
HETATM   20  H   UNL     1     -11.762  14.514  62.533  1.00  0.00     0.000 HD 
BRANCH  18  21
HETATM   21  C   UNL     1     -11.313  15.860  64.634  1.00  0.00    -0.328 C  
BRANCH  21  22
HETATM   22  C   UNL     1     -10.371  16.112  65.812  1.00  0.00    -0.398 C  
BRANCH  22  23
HETATM   23  C   UNL     1     -10.361  17.576  66.245  1.00  0.00    -0.335 C  
BRANCH  23  24
HETATM   24  C   UNL     1     -10.650  17.677  67.743  1.00  0.00    -0.380 C  
HETATM   25  C   UNL     1      -9.621  18.535  68.456  1.00  0.00    -0.388 C  
ENDBRANCH  23  24
ENDBRANCH  22  23
ENDBRANCH  21  22
ENDBRANCH  18  21
ENDBRANCH  17  18
ENDBRANCH  16  17
ENDBRANCH   5  16
BRANCH  13  26
HETATM   26  O   UNL     1     -11.237   8.344  72.553  1.00  0.00    -0.368 OA 
BRANCH  26  27
HETATM   27  C   UNL     1     -10.780   7.317  73.424  1.00  0.00    -0.369 C  
HETATM   28  C   UNL     1     -11.339   5.959  73.040  1.00  0.00    -0.170 C  
HETATM   29  O   UNL     1     -12.097   5.983  71.923  1.00  0.00    -0.249 OA 
HETATM   30  O   UNL     1     -11.121   4.934  73.671  1.00  0.00    -0.311 OA 
ENDBRANCH  26  27
ENDBRANCH  13  26
TORSDOF 9
ENDMDL
MODEL       32
REMARK 921   NORMALIZED FREE ENERGY PREDICTED BY IDOCK:   -5.49 KCAL/MOL
REMARK 922        TOTAL FREE ENERGY PREDICTED BY IDOCK:  -10.46 KCAL/MOL
REMARK 923 INTER-LIGAND FREE ENERGY PREDICTED BY IDOCK:   -9.29 KCAL/MOL
REMARK 924 INTRA-LIGAND FREE ENERGY PREDICTED BY IDOCK:   -1.18 KCAL/MOL
REMARK 927      BINDING AFFINITY PREDICTED BY RF-SCORE:    0.00 PKD
ROOT
HETATM    1  C   UNL     1     -10.142  12.000  67.574  1.00  0.00    -0.205 C  
HETATM    2  C   UNL     1      -8.845  11.737  68.338  1.00  0.00    -0.161 C  
HETATM    3  C   UNL     1      -8.735  10.210  68.334  1.00  0.00    -0.123 C  
HETATM    4  O   UNL     1      -8.293   9.743  69.601  1.00  0.00    -0.139 OA 
HETATM    5  C   UNL     1     -10.157   9.657  68.046  1.00  0.00    -0.213 C  
HETATM    6  H   UNL     1      -8.225   8.795  69.598  1.00  0.00     0.000 HD 
HETATM    7  C   UNL     1     -12.633  12.907  70.963  1.00  0.00    -0.376 A  
HETATM    8  C   UNL     1     -11.068  10.910  68.088  1.00  0.00    -0.337 C  
HETATM    9  C   UNL     1     -12.972  14.203  71.320  1.00  0.00    -0.426 A  
HETATM   10  C   UNL     1     -11.551  11.205  69.516  1.00  0.00    -0.392 C  
HETATM   11  C   UNL     1     -12.548  15.262  70.526  1.00  0.00    -0.450 A  
HETATM   12  C   UNL     1     -11.883  12.654  69.803  1.00  0.00    -0.379 A  
HETATM   13  C   UNL     1     -11.767  15.051  69.378  1.00  0.00    -0.326 A  
HETATM   14  C   UNL     1     -11.421  13.730  68.996  1.00  0.00    -0.349 A  
HETATM   15  C   UNL     1     -10.705  13.403  67.711  1.00  0.00    -0.259 C  
ENDROOT
BRANCH   5  16
HETATM   16  C   UNL     1     -10.271   8.981  66.662  1.00  0.00    -0.333 C  
BRANCH  16  17
HETATM   17  C   UNL     1      -9.930   7.490  66.628  1.00  0.00    -0.270 C  
BRANCH  17  18
HETATM   18  C   UNL     1     -11.028   6.544  67.131  1.00  0.00    -0.408 C  
HETATM   19  O   UNL     1     -11.214   5.490  66.187  1.00  0.00    -0.774 OA 
HETATM   20  H   UNL     1     -11.894   4.904  66.498  1.00  0.00     0.000 HD 
BRANCH  18  21
HETATM   21  C   UNL     1     -10.653   5.898  68.472  1.00  0.00    -0.317 C  
BRANCH  21  22
HETATM   22  C   UNL     1     -11.535   6.375  69.626  1.00  0.00    -0.446 C  
BRANCH  22  23
HETATM   23  C   UNL     1     -10.799   7.326  70.566  1.00  0.00    -0.262 C  
BRANCH  23  24
HETATM   24  C   UNL     1     -10.400   6.589  71.844  1.00  0.00    -0.223 C  
HETATM   25  C   UNL     1     -10.995   7.243  73.078  1.00  0.00    -0.388 C  
ENDBRANCH  23  24
ENDBRANCH  22  23
ENDBRANCH  21  22
ENDBRANCH  18  21
ENDBRANCH  17  18
ENDBRANCH  16  17
ENDBRANCH   5  16
BRANCH  13  26
HETATM   26  O   UNL     1     -11.491  16.240  68.739  1.00  0.00    -0.353 OA 
BRANCH  26  27
HETATM   27  C   UNL     1     -10.516  17.104  69.310  1.00  0.00    -0.267 C  
HETATM   28  C   UNL     1     -10.170  18.256  68.385  1.00  0.00    -0.380 C  
HETATM   29  O   UNL     1     -10.895  18.270  67.246  1.00  0.00    -0.373 OA 
HETATM   30  O   UNL     1      -9.324  19.102  68.642  1.00  0.00    -0.355 OA 
ENDBRANCH  26  27
ENDBRANCH  13  26
TORSDOF 9
ENDMDL
MODEL       33
REMARK 921   NORMALIZED FREE ENERGY PREDICTED BY IDOCK:   -5.49 KCAL/MOL
REMARK 922        TOTAL FREE ENERGY PREDICTED BY IDOCK:  -10.46 KCAL/MOL
REMARK 923 INTER-LIGAND FREE ENERGY PREDICTED BY IDOCK:   -8.64 KCAL/MOL
REMARK 924 INTRA-LIGAND FREE ENERGY PREDICTED BY IDOCK:   -1.82 KCAL/MOL
REMARK 927      BINDING AFFINITY PREDICTED BY RF-SCORE:    0.00 PKD
ROOT
HETATM    1  C   UNL     1      -9.883  10.170  67.542  1.00  0.00    -0.211 C  
HETATM    2  C   UNL     1     -10.908   9.041  67.635  1.00  0.00    -0.133 C  
HETATM    3  C   UNL     1     -10.084   7.788  67.322  1.00  0.00    -0.238 C  
HETATM    4  O   UNL     1     -10.819   6.913  66.478  1.00  0.00    -0.509 OA 
HETATM    5  C   UNL     1      -8.804   8.265  66.584  1.00  0.00    -0.166 C  
HETATM    6  H   UNL     1     -10.307   6.136  66.284  1.00  0.00     0.000 HD 
HETATM    7  C   UNL     1     -11.055  11.697  63.695  1.00  0.00    -0.506 A  
HETATM    8  C   UNL     1      -9.048   9.775  66.336  1.00  0.00    -0.187 C  
HETATM    9  C   UNL     1     -11.829  12.838  63.544  1.00  0.00    -0.618 A  
HETATM   10  C   UNL     1      -9.806  10.012  65.021  1.00  0.00    -0.374 C  
HETATM   11  C   UNL     1     -12.201  13.564  64.670  1.00  0.00    -0.450 A  
HETATM   12  C   UNL     1     -10.630  11.281  64.967  1.00  0.00    -0.353 A  
HETATM   13  C   UNL     1     -11.825  13.159  65.961  1.00  0.00    -0.407 A  
HETATM   14  C   UNL     1     -11.025  12.000  66.128  1.00  0.00    -0.343 A  
HETATM   15  C   UNL     1     -10.463  11.570  67.459  1.00  0.00    -0.229 C  
ENDROOT
BRANCH   5  16
HETATM   16  C   UNL     1      -7.521   8.080  67.424  1.00  0.00    -0.093 C  
BRANCH  16  17
HETATM   17  C   UNL     1      -7.687   7.266  68.709  1.00  0.00    -0.119 C  
BRANCH  17  18
HETATM   18  C   UNL     1      -7.354   8.003  70.012  1.00  0.00    -0.062 C  
HETATM   19  O   UNL     1      -7.046   9.366  69.720  1.00  0.00    -0.057 OA 
HETATM   20  H   UNL     1      -6.840   9.822  70.527  1.00  0.00     0.000 HD 
BRANCH  18  21
HETATM   21  C   UNL     1      -8.539   7.999  70.988  1.00  0.00    -0.142 C  
BRANCH  21  22
HETATM   22  C   UNL     1      -9.427   9.236  70.845  1.00  0.00    -0.330 C  
BRANCH  22  23
HETATM   23  C   UNL     1     -10.780   9.064  71.530  1.00  0.00    -0.421 C  
BRANCH  23  24
HETATM   24  C   UNL     1     -11.720  10.196  71.118  1.00  0.00    -0.453 C  
HETATM   25  C   UNL     1     -13.025  10.151  71.891  1.00  0.00    -0.549 C  
ENDBRANCH  23  24
ENDBRANCH  22  23
ENDBRANCH  21  22
ENDBRANCH  18  21
ENDBRANCH  17  18
ENDBRANCH  16  17
ENDBRANCH   5  16
BRANCH  13  26
HETATM   26  O   UNL     1     -12.282  14.043  66.912  1.00  0.00    -0.436 OA 
BRANCH  26  27
HETATM   27  C   UNL     1     -11.483  15.180  67.217  1.00  0.00    -0.279 C  
HETATM   28  C   UNL     1     -11.545  15.536  68.692  1.00  0.00    -0.368 C  
HETATM   29  O   UNL     1     -12.282  14.674  69.424  1.00  0.00    -0.298 OA 
HETATM   30  O   UNL     1     -10.975  16.502  69.180  1.00  0.00    -0.312 OA 
ENDBRANCH  26  27
ENDBRANCH  13  26
TORSDOF 9
ENDMDL
MODEL       34
REMARK 921   NORMALIZED FREE ENERGY PREDICTED BY IDOCK:   -5.48 KCAL/MOL
REMARK 922        TOTAL FREE ENERGY PREDICTED BY IDOCK:  -10.46 KCAL/MOL
REMARK 923 INTER-LIGAND FREE ENERGY PREDICTED BY IDOCK:   -9.51 KCAL/MOL
REMARK 924 INTRA-LIGAND FREE ENERGY PREDICTED BY IDOCK:   -0.95 KCAL/MOL
REMARK 927      BINDING AFFINITY PREDICTED BY RF-SCORE:    0.00 PKD
ROOT
HETATM    1  C   UNL     1     -11.009  13.567  67.944  1.00  0.00    -0.275 C  
HETATM    2  C   UNL     1      -9.535  13.753  68.303  1.00  0.00    -0.214 C  
HETATM    3  C   UNL     1      -8.802  13.275  67.046  1.00  0.00    -0.212 C  
HETATM    4  O   UNL     1      -7.662  12.505  67.403  1.00  0.00    -0.152 OA 
HETATM    5  C   UNL     1      -9.799  12.387  66.255  1.00  0.00    -0.257 C  
HETATM    6  H   UNL     1      -7.208  12.208  66.623  1.00  0.00     0.000 HD 
HETATM    7  C   UNL     1     -11.709   9.991  70.231  1.00  0.00    -0.327 A  
HETATM    8  C   UNL     1     -11.015  12.240  67.205  1.00  0.00    -0.308 C  
HETATM    9  C   UNL     1     -12.354   9.999  71.459  1.00  0.00    -0.513 A  
HETATM   10  C   UNL     1     -10.836  11.056  68.166  1.00  0.00    -0.274 C  
HETATM   11  C   UNL     1     -12.854  11.196  71.959  1.00  0.00    -0.285 A  
HETATM   12  C   UNL     1     -11.573  11.172  69.483  1.00  0.00    -0.392 A  
HETATM   13  C   UNL     1     -12.706  12.403  71.256  1.00  0.00    -0.248 A  
HETATM   14  C   UNL     1     -12.057  12.407  69.995  1.00  0.00    -0.335 A  
HETATM   15  C   UNL     1     -11.975  13.627  69.113  1.00  0.00    -0.394 C  
ENDROOT
BRANCH   5  16
HETATM   16  C   UNL     1     -10.255  13.030  64.927  1.00  0.00    -0.304 C  
BRANCH  16  17
HETATM   17  C   UNL     1     -11.132  14.276  65.065  1.00  0.00    -0.377 C  
BRANCH  17  18
HETATM   18  C   UNL     1     -10.474  15.602  64.662  1.00  0.00     0.136 C  
HETATM   19  O   UNL     1     -11.382  16.357  63.861  1.00  0.00    -1.510 OA 
HETATM   20  H   UNL     1     -10.975  17.177  63.611  1.00  0.00     0.000 HD 
BRANCH  18  21
HETATM   21  C   UNL     1     -10.121  16.458  65.886  1.00  0.00    -0.370 C  
BRANCH  21  22
HETATM   22  C   UNL     1      -8.613  16.616  66.082  1.00  0.00    -0.324 C  
BRANCH  22  23
HETATM   23  C   UNL     1      -8.268  17.360  67.369  1.00  0.00    -0.212 C  
BRANCH  23  24
HETATM   24  C   UNL     1      -9.093  18.643  67.467  1.00  0.00    -0.293 C  
HETATM   25  C   UNL     1      -9.013  19.257  68.852  1.00  0.00    -0.344 C  
ENDBRANCH  23  24
ENDBRANCH  22  23
ENDBRANCH  21  22
ENDBRANCH  18  21
ENDBRANCH  17  18
ENDBRANCH  16  17
ENDBRANCH   5  16
BRANCH  13  26
HETATM   26  O   UNL     1     -13.302  13.446  71.930  1.00  0.00    -0.407 OA 
BRANCH  26  27
HETATM   27  C   UNL     1     -12.482  14.295  72.723  1.00  0.00    -0.127 C  
HETATM   28  C   UNL     1     -13.013  15.717  72.765  1.00  0.00    -0.480 C  
HETATM   29  O   UNL     1     -14.179  15.877  72.104  1.00  0.00    -0.349 OA 
HETATM   30  O   UNL     1     -12.450  16.633  73.348  1.00  0.00    -0.364 OA 
ENDBRANCH  26  27
ENDBRANCH  13  26
TORSDOF 9
ENDMDL
MODEL       35
REMARK 921   NORMALIZED FREE ENERGY PREDICTED BY IDOCK:   -5.46 KCAL/MOL
REMARK 922        TOTAL FREE ENERGY PREDICTED BY IDOCK:  -10.43 KCAL/MOL
REMARK 923 INTER-LIGAND FREE ENERGY PREDICTED BY IDOCK:   -9.52 KCAL/MOL
REMARK 924 INTRA-LIGAND FREE ENERGY PREDICTED BY IDOCK:   -0.91 KCAL/MOL
REMARK 927      BINDING AFFINITY PREDICTED BY RF-SCORE:    0.00 PKD
ROOT
HETATM    1  C   UNL     1     -12.281   7.677  70.687  1.00  0.00    -0.014 C  
HETATM    2  C   UNL     1     -13.497   7.437  71.582  1.00  0.00    -0.437 C  
HETATM    3  C   UNL     1     -13.895   8.848  72.023  1.00  0.00    -0.456 C  
HETATM    4  O   UNL     1     -14.254   8.852  73.398  1.00  0.00    -1.241 OA 
HETATM    5  C   UNL     1     -12.652   9.753  71.810  1.00  0.00    -0.506 C  
HETATM    6  H   UNL     1     -14.501   9.728  73.671  1.00  0.00     0.000 HD 
HETATM    7  C   UNL     1      -9.255   6.465  73.495  1.00  0.00    -0.143 A  
HETATM    8  C   UNL     1     -11.522   8.765  71.428  1.00  0.00    -0.366 C  
HETATM    9  C   UNL     1      -8.632   5.228  73.441  1.00  0.00    -0.116 A  
HETATM   10  C   UNL     1     -10.815   8.212  72.675  1.00  0.00    -0.429 C  
HETATM   11  C   UNL     1      -8.945   4.352  72.407  1.00  0.00    -0.135 A  
HETATM   12  C   UNL     1     -10.180   6.849  72.510  1.00  0.00    -0.205 A  
HETATM   13  C   UNL     1      -9.890   4.686  71.424  1.00  0.00    -0.194 A  
HETATM   14  C   UNL     1     -10.527   5.953  71.462  1.00  0.00    -0.287 A  
HETATM   15  C   UNL     1     -11.449   6.446  70.377  1.00  0.00    -0.458 C  
ENDROOT
BRANCH   5  16
HETATM   16  C   UNL     1     -12.845  10.782  70.674  1.00  0.00    -0.377 C  
BRANCH  16  17
HETATM   17  C   UNL     1     -11.573  11.488  70.201  1.00  0.00    -0.336 C  
BRANCH  17  18
HETATM   18  C   UNL     1     -11.368  11.546  68.682  1.00  0.00    -0.269 C  
HETATM   19  O   UNL     1     -12.030  10.439  68.072  1.00  0.00    -0.706 OA 
HETATM   20  H   UNL     1     -11.904  10.475  67.132  1.00  0.00     0.000 HD 
BRANCH  18  21
HETATM   21  C   UNL     1     -11.961  12.827  68.076  1.00  0.00    -0.315 C  
BRANCH  21  22
HETATM   22  C   UNL     1     -11.413  13.130  66.682  1.00  0.00    -0.389 C  
BRANCH  22  23
HETATM   23  C   UNL     1     -12.506  13.560  65.707  1.00  0.00    -0.514 C  
BRANCH  23  24
HETATM   24  C   UNL     1     -11.922  13.708  64.302  1.00  0.00    -0.488 C  
HETATM   25  C   UNL     1     -12.279  12.526  63.419  1.00  0.00    -0.613 C  
ENDBRANCH  23  24
ENDBRANCH  22  23
ENDBRANCH  21  22
ENDBRANCH  18  21
ENDBRANCH  17  18
ENDBRANCH  16  17
ENDBRANCH   5  16
BRANCH  13  26
HETATM   26  O   UNL     1     -10.013   3.680  70.492  1.00  0.00    -0.115 OA 
BRANCH  26  27
HETATM   27  C   UNL     1      -8.838   2.996  70.076  1.00  0.00    -0.089 C  
HETATM   28  C   UNL     1      -8.623   3.100  68.577  1.00  0.00    -0.090 C  
HETATM   29  O   UNL     1      -9.541   3.867  67.952  1.00  0.00    -0.178 OA 
HETATM   30  O   UNL     1      -7.702   2.553  67.985  1.00  0.00    -0.055 OA 
ENDBRANCH  26  27
ENDBRANCH  13  26
TORSDOF 9
ENDMDL
MODEL       36
REMARK 921   NORMALIZED FREE ENERGY PREDICTED BY IDOCK:   -5.44 KCAL/MOL
REMARK 922        TOTAL FREE ENERGY PREDICTED BY IDOCK:  -10.40 KCAL/MOL
REMARK 923 INTER-LIGAND FREE ENERGY PREDICTED BY IDOCK:   -9.45 KCAL/MOL
REMARK 924 INTRA-LIGAND FREE ENERGY PREDICTED BY IDOCK:   -0.95 KCAL/MOL
REMARK 927      BINDING AFFINITY PREDICTED BY RF-SCORE:    0.00 PKD
ROOT
HETATM    1  C   UNL     1     -11.065  13.796  67.107  1.00  0.00    -0.315 C  
HETATM    2  C   UNL     1     -10.861  12.832  65.939  1.00  0.00    -0.295 C  
HETATM    3  C   UNL     1     -11.029  11.453  66.585  1.00  0.00    -0.285 C  
HETATM    4  O   UNL     1     -10.059  10.549  66.077  1.00  0.00    -0.238 OA 
HETATM    5  C   UNL     1     -10.810  11.643  68.111  1.00  0.00    -0.260 C  
HETATM    6  H   UNL     1     -10.163   9.694  66.478  1.00  0.00     0.000 HD 
HETATM    7  C   UNL     1      -6.933  14.809  67.743  1.00  0.00    -0.192 A  
HETATM    8  C   UNL     1     -10.333  13.111  68.248  1.00  0.00    -0.256 C  
HETATM    9  C   UNL     1      -6.373  15.996  67.295  1.00  0.00    -0.181 A  
HETATM   10  C   UNL     1      -8.809  13.222  68.089  1.00  0.00    -0.187 C  
HETATM   11  C   UNL     1      -7.180  16.936  66.664  1.00  0.00    -0.294 A  
HETATM   12  C   UNL     1      -8.305  14.556  67.582  1.00  0.00    -0.188 A  
HETATM   13  C   UNL     1      -8.549  16.703  66.454  1.00  0.00    -0.310 A  
HETATM   14  C   UNL     1      -9.136  15.497  66.916  1.00  0.00    -0.264 A  
HETATM   15  C   UNL     1     -10.618  15.225  66.856  1.00  0.00    -0.304 C  
ENDROOT
BRANCH   5  16
HETATM   16  C   UNL     1     -12.102  11.441  68.933  1.00  0.00    -0.285 C  
BRANCH  16  17
HETATM   17  C   UNL     1     -11.930  11.495  70.453  1.00  0.00    -0.459 C  
BRANCH  17  18
HETATM   18  C   UNL     1     -12.447  10.275  71.225  1.00  0.00    -0.408 C  
HETATM   19  O   UNL     1     -13.601   9.752  70.569  1.00  0.00    -0.591 OA 
HETATM   20  H   UNL     1     -13.921   8.997  71.047  1.00  0.00     0.000 HD 
BRANCH  18  21
HETATM   21  C   UNL     1     -11.402   9.151  71.281  1.00  0.00    -0.406 C  
BRANCH  21  22
HETATM   22  C   UNL     1     -11.703   8.117  72.366  1.00  0.00    -0.461 C  
BRANCH  22  23
HETATM   23  C   UNL     1     -12.227   6.804  71.789  1.00  0.00    -0.402 C  
BRANCH  23  24
HETATM   24  C   UNL     1     -11.507   6.488  70.478  1.00  0.00    -0.448 C  
HETATM   25  C   UNL     1     -10.513   5.353  70.644  1.00  0.00    -0.329 C  
ENDBRANCH  23  24
ENDBRANCH  22  23
ENDBRANCH  21  22
ENDBRANCH  18  21
ENDBRANCH  17  18
ENDBRANCH  16  17
ENDBRANCH   5  16
BRANCH  13  26
HETATM   26  O   UNL     1      -9.147  17.780  65.839  1.00  0.00    -0.516 OA 
BRANCH  26  27
HETATM   27  C   UNL     1      -8.741  19.088  66.220  1.00  0.00    -0.273 C  
HETATM   28  C   UNL     1      -9.823  19.812  67.002  1.00  0.00    -0.392 C  
HETATM   29  O   UNL     1     -10.917  19.056  67.235  1.00  0.00    -0.459 OA 
HETATM   30  O   UNL     1      -9.718  20.965  67.397  1.00  0.00    -0.456 OA 
ENDBRANCH  26  27
ENDBRANCH  13  26
TORSDOF 9
ENDMDL
MODEL       37
REMARK 921   NORMALIZED FREE ENERGY PREDICTED BY IDOCK:   -5.44 KCAL/MOL
REMARK 922        TOTAL FREE ENERGY PREDICTED BY IDOCK:  -10.39 KCAL/MOL
REMARK 923 INTER-LIGAND FREE ENERGY PREDICTED BY IDOCK:   -9.49 KCAL/MOL
REMARK 924 INTRA-LIGAND FREE ENERGY PREDICTED BY IDOCK:   -0.90 KCAL/MOL
REMARK 927      BINDING AFFINITY PREDICTED BY RF-SCORE:    0.00 PKD
ROOT
HETATM    1  C   UNL     1     -11.660  12.390  66.077  1.00  0.00    -0.455 C  
HETATM    2  C   UNL     1     -12.762  12.877  65.136  1.00  0.00    -0.443 C  
HETATM    3  C   UNL     1     -12.210  12.549  63.745  1.00  0.00    -0.525 C  
HETATM    4  O   UNL     1     -12.480  13.614  62.844  1.00  0.00    -0.960 OA 
HETATM    5  C   UNL     1     -10.674  12.380  63.900  1.00  0.00    -0.465 C  
HETATM    6  H   UNL     1     -12.137  13.410  61.982  1.00  0.00     0.000 HD 
HETATM    7  C   UNL     1      -9.988  16.234  67.042  1.00  0.00    -0.255 A  
HETATM    8  C   UNL     1     -10.389  12.812  65.361  1.00  0.00    -0.310 C  
HETATM    9  C   UNL     1     -10.254  16.891  68.233  1.00  0.00    -0.318 A  
HETATM   10  C   UNL     1     -10.159  14.327  65.463  1.00  0.00    -0.370 C  
HETATM   11  C   UNL     1     -11.045  16.270  69.193  1.00  0.00    -0.322 A  
HETATM   12  C   UNL     1     -10.492  14.945  66.803  1.00  0.00    -0.284 A  
HETATM   13  C   UNL     1     -11.596  14.996  68.976  1.00  0.00    -0.319 A  
HETATM   14  C   UNL     1     -11.323  14.309  67.766  1.00  0.00    -0.329 A  
HETATM   15  C   UNL     1     -11.758  12.889  67.507  1.00  0.00    -0.422 C  
ENDROOT
BRANCH   5  16
HETATM   16  C   UNL     1     -10.206  10.923  63.690  1.00  0.00    -0.395 C  
BRANCH  16  17
HETATM   17  C   UNL     1      -8.865  10.563  64.334  1.00  0.00    -0.210 C  
BRANCH  17  18
HETATM   18  C   UNL     1      -8.916   9.481  65.419  1.00  0.00    -0.201 C  
HETATM   19  O   UNL     1     -10.276   9.201  65.746  1.00  0.00    -0.364 OA 
HETATM   20  H   UNL     1     -10.308   8.531  66.418  1.00  0.00     0.000 HD 
BRANCH  18  21
HETATM   21  C   UNL     1      -8.279   8.167  64.943  1.00  0.00    -0.150 C  
BRANCH  21  22
HETATM   22  C   UNL     1      -8.100   7.154  66.074  1.00  0.00    -0.115 C  
BRANCH  22  23
HETATM   23  C   UNL     1      -7.587   5.806  65.572  1.00  0.00    -0.083 C  
BRANCH  23  24
HETATM   24  C   UNL     1      -8.709   4.769  65.629  1.00  0.00    -0.131 C  
HETATM   25  C   UNL     1      -9.240   4.441  64.246  1.00  0.00    -0.145 C  
ENDBRANCH  23  24
ENDBRANCH  22  23
ENDBRANCH  21  22
ENDBRANCH  18  21
ENDBRANCH  17  18
ENDBRANCH  16  17
ENDBRANCH   5  16
BRANCH  13  26
HETATM   26  O   UNL     1     -12.316  14.574  70.071  1.00  0.00    -0.321 OA 
BRANCH  26  27
HETATM   27  C   UNL     1     -13.165  15.509  70.724  1.00  0.00    -0.337 C  
HETATM   28  C   UNL     1     -13.451  15.108  72.160  1.00  0.00    -0.424 C  
HETATM   29  O   UNL     1     -12.799  13.992  72.549  1.00  0.00    -0.360 OA 
HETATM   30  O   UNL     1     -14.193  15.735  72.904  1.00  0.00    -0.478 OA 
ENDBRANCH  26  27
ENDBRANCH  13  26
TORSDOF 9
ENDMDL
MODEL       38
REMARK 921   NORMALIZED FREE ENERGY PREDICTED BY IDOCK:   -5.43 KCAL/MOL
REMARK 922        TOTAL FREE ENERGY PREDICTED BY IDOCK:  -10.38 KCAL/MOL
REMARK 923 INTER-LIGAND FREE ENERGY PREDICTED BY IDOCK:   -9.06 KCAL/MOL
REMARK 924 INTRA-LIGAND FREE ENERGY PREDICTED BY IDOCK:   -1.32 KCAL/MOL
REMARK 927      BINDING AFFINITY PREDICTED BY RF-SCORE:    0.00 PKD
ROOT
HETATM    1  C   UNL     1     -11.283  11.774  67.961  1.00  0.00    -0.324 C  
HETATM    2  C   UNL     1      -9.965  12.493  68.246  1.00  0.00    -0.229 C  
HETATM    3  C   UNL     1      -9.689  13.255  66.947  1.00  0.00    -0.248 C  
HETATM    4  O   UNL     1      -8.311  13.176  66.612  1.00  0.00    -0.415 OA 
HETATM    5  C   UNL     1     -10.531  12.570  65.837  1.00  0.00    -0.289 C  
HETATM    6  H   UNL     1      -8.140  13.648  65.805  1.00  0.00     0.000 HD 
HETATM    7  C   UNL     1      -9.661   7.846  67.293  1.00  0.00    -0.230 A  
HETATM    8  C   UNL     1     -11.115  11.309  66.524  1.00  0.00    -0.280 C  
HETATM    9  C   UNL     1      -9.706   6.842  68.249  1.00  0.00    -0.132 A  
HETATM   10  C   UNL     1     -10.149  10.119  66.425  1.00  0.00    -0.300 C  
HETATM   11  C   UNL     1     -10.351   7.080  69.458  1.00  0.00    -0.225 A  
HETATM   12  C   UNL     1     -10.274   9.088  67.526  1.00  0.00    -0.302 A  
HETATM   13  C   UNL     1     -10.945   8.321  69.740  1.00  0.00    -0.129 A  
HETATM   14  C   UNL     1     -10.915   9.353  68.767  1.00  0.00    -0.080 A  
HETATM   15  C   UNL     1     -11.641  10.663  68.931  1.00  0.00    -0.320 C  
ENDROOT
BRANCH   5  16
HETATM   16  C   UNL     1     -11.685  13.459  65.322  1.00  0.00    -0.346 C  
BRANCH  16  17
HETATM   17  C   UNL     1     -11.660  14.912  65.799  1.00  0.00    -0.234 C  
BRANCH  17  18
HETATM   18  C   UNL     1     -10.836  15.880  64.941  1.00  0.00    -0.400 C  
HETATM   19  O   UNL     1     -11.654  16.399  63.893  1.00  0.00    -1.564 OA 
HETATM   20  H   UNL     1     -11.144  16.999  63.362  1.00  0.00     0.000 HD 
BRANCH  18  21
HETATM   21  C   UNL     1     -10.327  17.076  65.760  1.00  0.00    -0.275 C  
BRANCH  21  22
HETATM   22  C   UNL     1      -9.039  16.763  66.523  1.00  0.00    -0.302 C  
BRANCH  22  23
HETATM   23  C   UNL     1      -8.961  17.498  67.859  1.00  0.00    -0.251 C  
BRANCH  23  24
HETATM   24  C   UNL     1     -10.287  17.359  68.607  1.00  0.00    -0.364 C  
HETATM   25  C   UNL     1     -10.371  16.043  69.359  1.00  0.00    -0.272 C  
ENDBRANCH  23  24
ENDBRANCH  22  23
ENDBRANCH  21  22
ENDBRANCH  18  21
ENDBRANCH  17  18
ENDBRANCH  16  17
ENDBRANCH   5  16
BRANCH  13  26
HETATM   26  O   UNL     1     -11.545   8.314  70.979  1.00  0.00    -0.274 OA 
BRANCH  26  27
HETATM   27  C   UNL     1     -10.718   8.422  72.132  1.00  0.00    -0.337 C  
HETATM   28  C   UNL     1     -10.867   7.223  73.051  1.00  0.00    -0.355 C  
HETATM   29  O   UNL     1     -11.694   6.272  72.566  1.00  0.00    -0.274 OA 
HETATM   30  O   UNL     1     -10.290   7.115  74.123  1.00  0.00    -0.307 OA 
ENDBRANCH  26  27
ENDBRANCH  13  26
TORSDOF 9
ENDMDL
MODEL       39
REMARK 921   NORMALIZED FREE ENERGY PREDICTED BY IDOCK:   -5.40 KCAL/MOL
REMARK 922        TOTAL FREE ENERGY PREDICTED BY IDOCK:  -10.34 KCAL/MOL
REMARK 923 INTER-LIGAND FREE ENERGY PREDICTED BY IDOCK:   -8.96 KCAL/MOL
REMARK 924 INTRA-LIGAND FREE ENERGY PREDICTED BY IDOCK:   -1.38 KCAL/MOL
REMARK 927      BINDING AFFINITY PREDICTED BY RF-SCORE:    0.00 PKD
ROOT
HETATM    1  C   UNL     1      -9.880  11.243  68.859  1.00  0.00    -0.153 C  
HETATM    2  C   UNL     1      -8.378  11.296  68.579  1.00  0.00    -0.155 C  
HETATM    3  C   UNL     1      -8.269  12.294  67.423  1.00  0.00    -0.178 C  
HETATM    4  O   UNL     1      -7.322  11.839  66.466  1.00  0.00    -0.349 OA 
HETATM    5  C   UNL     1      -9.672  12.374  66.764  1.00  0.00    -0.226 C  
HETATM    6  H   UNL     1      -7.255  12.458  65.748  1.00  0.00     0.000 HD 
HETATM    7  C   UNL     1     -10.682   7.461  66.970  1.00  0.00    -0.389 A  
HETATM    8  C   UNL     1     -10.487  11.258  67.466  1.00  0.00    -0.234 C  
HETATM    9  C   UNL     1     -10.845   6.285  67.684  1.00  0.00    -0.433 A  
HETATM   10  C   UNL     1     -10.312   9.907  66.758  1.00  0.00    -0.285 C  
HETATM   11  C   UNL     1     -10.810   6.320  69.074  1.00  0.00    -0.400 A  
HETATM   12  C   UNL     1     -10.500   8.686  67.633  1.00  0.00    -0.311 A  
HETATM   13  C   UNL     1     -10.596   7.520  69.772  1.00  0.00    -0.241 A  
HETATM   14  C   UNL     1     -10.437   8.732  69.053  1.00  0.00    -0.220 A  
HETATM   15  C   UNL     1     -10.340  10.080  69.720  1.00  0.00    -0.290 C  
ENDROOT
BRANCH   5  16
HETATM   16  C   UNL     1     -10.364  13.737  66.987  1.00  0.00    -0.260 C  
BRANCH  16  17
HETATM   17  C   UNL     1     -11.889  13.731  66.858  1.00  0.00    -0.447 C  
BRANCH  17  18
HETATM   18  C   UNL     1     -12.438  13.947  65.442  1.00  0.00    -0.501 C  
HETATM   19  O   UNL     1     -11.553  14.798  64.715  1.00  0.00    -0.392 OA 
HETATM   20  H   UNL     1     -11.893  14.932  63.839  1.00  0.00     0.000 HD 
BRANCH  18  21
HETATM   21  C   UNL     1     -12.548  12.627  64.666  1.00  0.00    -0.517 C  
BRANCH  21  22
HETATM   22  C   UNL     1     -11.709  12.621  63.388  1.00  0.00    -0.571 C  
BRANCH  22  23
HETATM   23  C   UNL     1     -10.280  12.143  63.631  1.00  0.00    -0.459 C  
BRANCH  23  24
HETATM   24  C   UNL     1     -10.029  10.843  62.866  1.00  0.00    -0.251 C  
HETATM   25  C   UNL     1      -9.003   9.970  63.565  1.00  0.00    -0.279 C  
ENDBRANCH  23  24
ENDBRANCH  22  23
ENDBRANCH  21  22
ENDBRANCH  18  21
ENDBRANCH  17  18
ENDBRANCH  16  17
ENDBRANCH   5  16
BRANCH  13  26
HETATM   26  O   UNL     1     -10.630   7.316  71.133  1.00  0.00    -0.221 OA 
BRANCH  26  27
HETATM   27  C   UNL     1     -11.009   6.033  71.615  1.00  0.00    -0.272 C  
HETATM   28  C   UNL     1     -10.955   5.958  73.130  1.00  0.00    -0.253 C  
HETATM   29  O   UNL     1     -10.625   7.129  73.717  1.00  0.00    -0.377 OA 
HETATM   30  O   UNL     1     -11.195   4.942  73.768  1.00  0.00    -0.296 OA 
ENDBRANCH  26  27
ENDBRANCH  13  26
TORSDOF 9
ENDMDL
MODEL       40
REMARK 921   NORMALIZED FREE ENERGY PREDICTED BY IDOCK:   -5.40 KCAL/MOL
REMARK 922        TOTAL FREE ENERGY PREDICTED BY IDOCK:  -10.33 KCAL/MOL
REMARK 923 INTER-LIGAND FREE ENERGY PREDICTED BY IDOCK:   -8.87 KCAL/MOL
REMARK 924 INTRA-LIGAND FREE ENERGY PREDICTED BY IDOCK:   -1.45 KCAL/MOL
REMARK 927      BINDING AFFINITY PREDICTED BY RF-SCORE:    0.00 PKD
ROOT
HETATM    1  C   UNL     1      -9.793  10.770  67.733  1.00  0.00    -0.186 C  
HETATM    2  C   UNL     1      -8.279  10.596  67.617  1.00  0.00    -0.107 C  
HETATM    3  C   UNL     1      -8.009  10.830  66.127  1.00  0.00    -0.157 C  
HETATM    4  O   UNL     1      -7.055   9.894  65.646  1.00  0.00    -0.100 OA 
HETATM    5  C   UNL     1      -9.358  10.619  65.388  1.00  0.00    -0.250 C  
HETATM    6  H   UNL     1      -6.888  10.039  64.722  1.00  0.00     0.000 HD 
HETATM    7  C   UNL     1     -10.831   6.605  68.018  1.00  0.00    -0.345 A  
HETATM    8  C   UNL     1     -10.313  10.080  66.484  1.00  0.00    -0.268 C  
HETATM    9  C   UNL     1     -11.145   5.990  69.220  1.00  0.00    -0.424 A  
HETATM   10  C   UNL     1     -10.223   8.552  66.603  1.00  0.00    -0.345 C  
HETATM   11  C   UNL     1     -11.189   6.749  70.384  1.00  0.00    -0.378 A  
HETATM   12  C   UNL     1     -10.576   7.985  67.961  1.00  0.00    -0.190 A  
HETATM   13  C   UNL     1     -10.905   8.125  70.373  1.00  0.00    -0.236 A  
HETATM   14  C   UNL     1     -10.592   8.768  69.148  1.00  0.00    -0.200 A  
HETATM   15  C   UNL     1     -10.409  10.259  69.022  1.00  0.00    -0.229 C  
ENDROOT
BRANCH   5  16
HETATM   16  C   UNL     1      -9.932  11.927  64.800  1.00  0.00    -0.262 C  
BRANCH  16  17
HETATM   17  C   UNL     1     -11.102  11.755  63.829  1.00  0.00    -0.513 C  
BRANCH  17  18
HETATM   18  C   UNL     1     -12.128  12.895  63.813  1.00  0.00    -0.508 C  
HETATM   19  O   UNL     1     -13.401  12.393  64.216  1.00  0.00    -0.716 OA 
HETATM   20  H   UNL     1     -14.036  13.099  64.206  1.00  0.00     0.000 HD 
BRANCH  18  21
HETATM   21  C   UNL     1     -11.747  14.018  64.789  1.00  0.00    -0.403 C  
BRANCH  21  22
HETATM   22  C   UNL     1     -12.419  13.868  66.154  1.00  0.00    -0.478 C  
BRANCH  22  23
HETATM   23  C   UNL     1     -11.530  14.351  67.297  1.00  0.00    -0.377 C  
BRANCH  23  24
HETATM   24  C   UNL     1     -11.974  13.706  68.610  1.00  0.00    -0.395 C  
HETATM   25  C   UNL     1     -11.603  14.560  69.808  1.00  0.00    -0.345 C  
ENDBRANCH  23  24
ENDBRANCH  22  23
ENDBRANCH  21  22
ENDBRANCH  18  21
ENDBRANCH  17  18
ENDBRANCH  16  17
ENDBRANCH   5  16
BRANCH  13  26
HETATM   26  O   UNL     1     -11.038   8.669  71.630  1.00  0.00    -0.261 OA 
BRANCH  26  27
HETATM   27  C   UNL     1     -11.096   7.788  72.746  1.00  0.00    -0.398 C  
HETATM   28  C   UNL     1      -9.778   7.740  73.498  1.00  0.00    -0.256 C  
HETATM   29  O   UNL     1      -8.844   8.581  73.005  1.00  0.00    -0.321 OA 
HETATM   30  O   UNL     1      -9.576   7.019  74.465  1.00  0.00    -0.226 OA 
ENDBRANCH  26  27
ENDBRANCH  13  26
TORSDOF 9
ENDMDL
MODEL       41
REMARK 921   NORMALIZED FREE ENERGY PREDICTED BY IDOCK:   -5.38 KCAL/MOL
REMARK 922        TOTAL FREE ENERGY PREDICTED BY IDOCK:  -10.31 KCAL/MOL
REMARK 923 INTER-LIGAND FREE ENERGY PREDICTED BY IDOCK:   -9.10 KCAL/MOL
REMARK 924 INTRA-LIGAND FREE ENERGY PREDICTED BY IDOCK:   -1.21 KCAL/MOL
REMARK 927      BINDING AFFINITY PREDICTED BY RF-SCORE:    0.00 PKD
ROOT
HETATM    1  C   UNL     1     -10.888   9.322  69.276  1.00  0.00    -0.170 C  
HETATM    2  C   UNL     1      -9.507   9.355  69.930  1.00  0.00    -0.235 C  
HETATM    3  C   UNL     1      -9.645   8.374  71.099  1.00  0.00    -0.177 C  
HETATM    4  O   UNL     1      -9.000   8.890  72.255  1.00  0.00    -0.388 OA 
HETATM    5  C   UNL     1     -11.164   8.221  71.379  1.00  0.00    -0.304 C  
HETATM    6  H   UNL     1      -9.086   8.282  72.979  1.00  0.00     0.000 HD 
HETATM    7  C   UNL     1     -12.342  13.067  70.813  1.00  0.00    -0.394 A  
HETATM    8  C   UNL     1     -11.829   9.284  70.468  1.00  0.00    -0.173 C  
HETATM    9  C   UNL     1     -12.379  14.227  70.054  1.00  0.00    -0.403 A  
HETATM   10  C   UNL     1     -11.912  10.649  71.167  1.00  0.00    -0.401 C  
HETATM   11  C   UNL     1     -11.988  14.182  68.721  1.00  0.00    -0.367 A  
HETATM   12  C   UNL     1     -11.934  11.849  70.245  1.00  0.00    -0.416 A  
HETATM   13  C   UNL     1     -11.540  12.990  68.128  1.00  0.00    -0.341 A  
HETATM   14  C   UNL     1     -11.507  11.795  68.890  1.00  0.00    -0.357 A  
HETATM   15  C   UNL     1     -11.172  10.449  68.300  1.00  0.00    -0.330 C  
ENDROOT
BRANCH   5  16
HETATM   16  C   UNL     1     -11.704   6.820  71.018  1.00  0.00    -0.406 C  
BRANCH  16  17
HETATM   17  C   UNL     1     -11.269   6.277  69.655  1.00  0.00    -0.506 C  
BRANCH  17  18
HETATM   18  C   UNL     1     -10.202   5.176  69.686  1.00  0.00    -0.267 C  
HETATM   19  O   UNL     1      -8.962   5.705  69.218  1.00  0.00    -0.113 OA 
HETATM   20  H   UNL     1      -8.301   5.023  69.237  1.00  0.00     0.000 HD 
BRANCH  18  21
HETATM   21  C   UNL     1      -9.968   4.649  71.109  1.00  0.00    -0.265 C  
BRANCH  21  22
HETATM   22  C   UNL     1      -8.566   4.962  71.633  1.00  0.00    -0.132 C  
BRANCH  22  23
HETATM   23  C   UNL     1      -8.505   4.980  73.157  1.00  0.00    -0.110 C  
BRANCH  23  24
HETATM   24  C   UNL     1      -9.919   5.034  73.735  1.00  0.00    -0.195 C  
HETATM   25  C   UNL     1     -10.182   6.346  74.451  1.00  0.00    -0.343 C  
ENDBRANCH  23  24
ENDBRANCH  22  23
ENDBRANCH  21  22
ENDBRANCH  18  21
ENDBRANCH  17  18
ENDBRANCH  16  17
ENDBRANCH   5  16
BRANCH  13  26
HETATM   26  O   UNL     1     -11.235  13.181  66.799  1.00  0.00    -0.282 OA 
BRANCH  26  27
HETATM   27  C   UNL     1     -12.304  13.378  65.881  1.00  0.00    -0.437 C  
HETATM   28  C   UNL     1     -11.979  14.449  64.855  1.00  0.00    -0.426 C  
HETATM   29  O   UNL     1     -10.731  14.950  64.974  1.00  0.00    -0.380 OA 
HETATM   30  O   UNL     1     -12.763  14.821  63.993  1.00  0.00    -0.786 OA 
ENDBRANCH  26  27
ENDBRANCH  13  26
TORSDOF 9
ENDMDL
MODEL       42
REMARK 921   NORMALIZED FREE ENERGY PREDICTED BY IDOCK:   -5.38 KCAL/MOL
REMARK 922        TOTAL FREE ENERGY PREDICTED BY IDOCK:  -10.30 KCAL/MOL
REMARK 923 INTER-LIGAND FREE ENERGY PREDICTED BY IDOCK:   -8.62 KCAL/MOL
REMARK 924 INTRA-LIGAND FREE ENERGY PREDICTED BY IDOCK:   -1.68 KCAL/MOL
REMARK 927      BINDING AFFINITY PREDICTED BY RF-SCORE:    0.00 PKD
ROOT
HETATM    1  C   UNL     1     -10.690  12.442  66.679  1.00  0.00    -0.263 C  
HETATM    2  C   UNL     1     -11.995  12.375  65.886  1.00  0.00    -0.434 C  
HETATM    3  C   UNL     1     -12.166  13.805  65.365  1.00  0.00    -0.440 C  
HETATM    4  O   UNL     1     -13.524  14.208  65.468  1.00  0.00    -0.710 OA 
HETATM    5  C   UNL     1     -11.286  14.718  66.261  1.00  0.00    -0.334 C  
HETATM    6  H   UNL     1     -13.631  15.095  65.145  1.00  0.00     0.000 HD 
HETATM    7  C   UNL     1     -12.414  12.498  70.620  1.00  0.00    -0.323 A  
HETATM    8  C   UNL     1     -10.791  13.780  67.391  1.00  0.00    -0.285 C  
HETATM    9  C   UNL     1     -12.462  11.378  71.435  1.00  0.00    -0.370 A  
HETATM   10  C   UNL     1     -11.793  13.727  68.554  1.00  0.00    -0.406 C  
HETATM   11  C   UNL     1     -11.880  10.192  70.999  1.00  0.00    -0.475 A  
HETATM   12  C   UNL     1     -11.770  12.453  69.372  1.00  0.00    -0.384 A  
HETATM   13  C   UNL     1     -11.258  10.099  69.743  1.00  0.00    -0.272 A  
HETATM   14  C   UNL     1     -11.194  11.241  68.904  1.00  0.00    -0.315 A  
HETATM   15  C   UNL     1     -10.430  11.268  67.605  1.00  0.00    -0.225 C  
ENDROOT
BRANCH   5  16
HETATM   16  C   UNL     1     -10.073  15.309  65.510  1.00  0.00    -0.408 C  
BRANCH  16  17
HETATM   17  C   UNL     1      -8.735  15.222  66.249  1.00  0.00    -0.188 C  
BRANCH  17  18
HETATM   18  C   UNL     1      -7.981  16.547  66.418  1.00  0.00    -0.317 C  
HETATM   19  O   UNL     1      -8.666  17.577  65.707  1.00  0.00    -0.514 OA 
HETATM   20  H   UNL     1      -8.200  18.397  65.812  1.00  0.00     0.000 HD 
BRANCH  18  21
HETATM   21  C   UNL     1      -7.907  16.976  67.891  1.00  0.00    -0.188 C  
BRANCH  21  22
HETATM   22  C   UNL     1      -7.863  15.787  68.851  1.00  0.00    -0.190 C  
BRANCH  22  23
HETATM   23  C   UNL     1      -6.446  15.472  69.322  1.00  0.00    -0.141 C  
BRANCH  23  24
HETATM   24  C   UNL     1      -6.293  13.967  69.542  1.00  0.00    -0.118 C  
HETATM   25  C   UNL     1      -7.300  13.176  68.728  1.00  0.00    -0.068 C  
ENDBRANCH  23  24
ENDBRANCH  22  23
ENDBRANCH  21  22
ENDBRANCH  18  21
ENDBRANCH  17  18
ENDBRANCH  16  17
ENDBRANCH   5  16
BRANCH  13  26
HETATM   26  O   UNL     1     -10.732   8.843  69.542  1.00  0.00    -0.230 OA 
BRANCH  26  27
HETATM   27  C   UNL     1     -10.703   7.938  70.638  1.00  0.00    -0.228 C  
HETATM   28  C   UNL     1     -10.883   6.498  70.190  1.00  0.00    -0.282 C  
HETATM   29  O   UNL     1     -10.967   6.357  68.850  1.00  0.00    -0.295 OA 
HETATM   30  O   UNL     1     -10.936   5.550  70.961  1.00  0.00    -0.222 OA 
ENDBRANCH  26  27
ENDBRANCH  13  26
TORSDOF 9
ENDMDL
MODEL       43
REMARK 921   NORMALIZED FREE ENERGY PREDICTED BY IDOCK:   -5.36 KCAL/MOL
REMARK 922        TOTAL FREE ENERGY PREDICTED BY IDOCK:  -10.26 KCAL/MOL
REMARK 923 INTER-LIGAND FREE ENERGY PREDICTED BY IDOCK:   -8.78 KCAL/MOL
REMARK 924 INTRA-LIGAND FREE ENERGY PREDICTED BY IDOCK:   -1.48 KCAL/MOL
REMARK 927      BINDING AFFINITY PREDICTED BY RF-SCORE:    0.00 PKD
ROOT
HETATM    1  C   UNL     1     -10.594  12.326  69.161  1.00  0.00    -0.025 C  
HETATM    2  C   UNL     1     -12.033  12.323  69.676  1.00  0.00    -0.347 C  
HETATM    3  C   UNL     1     -12.225  10.891  70.183  1.00  0.00    -0.343 C  
HETATM    4  O   UNL     1     -13.510  10.406  69.820  1.00  0.00    -0.377 OA 
HETATM    5  C   UNL     1     -11.133  10.023  69.501  1.00  0.00    -0.279 C  
HETATM    6  H   UNL     1     -13.629   9.517  70.134  1.00  0.00     0.000 HD 
HETATM    7  C   UNL     1     -11.486  12.127  64.957  1.00  0.00    -0.377 A  
HETATM    8  C   UNL     1     -10.475  10.977  68.472  1.00  0.00    -0.210 C  
HETATM    9  C   UNL     1     -11.433  13.234  64.125  1.00  0.00    -0.438 A  
HETATM   10  C   UNL     1     -11.224  10.959  67.132  1.00  0.00    -0.258 C  
HETATM   11  C   UNL     1     -11.018  14.457  64.642  1.00  0.00    -0.367 A  
HETATM   12  C   UNL     1     -11.110  12.223  66.307  1.00  0.00    -0.342 A  
HETATM   13  C   UNL     1     -10.668  14.600  65.995  1.00  0.00    -0.312 A  
HETATM   14  C   UNL     1     -10.708  13.473  66.854  1.00  0.00    -0.274 A  
HETATM   15  C   UNL     1     -10.221  13.504  68.280  1.00  0.00    -0.250 C  
ENDROOT
BRANCH   5  16
HETATM   16  C   UNL     1     -10.063   9.514  70.492  1.00  0.00    -0.347 C  
BRANCH  16  17
HETATM   17  C   UNL     1     -10.581   9.124  71.878  1.00  0.00    -0.303 C  
BRANCH  17  18
HETATM   18  C   UNL     1     -10.913   7.639  72.072  1.00  0.00    -0.246 C  
HETATM   19  O   UNL     1     -11.720   7.483  73.239  1.00  0.00    -0.604 OA 
HETATM   20  H   UNL     1     -11.925   6.564  73.359  1.00  0.00     0.000 HD 
BRANCH  18  21
HETATM   21  C   UNL     1     -11.708   7.073  70.886  1.00  0.00    -0.387 C  
BRANCH  21  22
HETATM   22  C   UNL     1     -11.008   5.891  70.216  1.00  0.00    -0.390 C  
BRANCH  22  23
HETATM   23  C   UNL     1     -10.941   6.037  68.698  1.00  0.00    -0.361 C  
BRANCH  23  24
HETATM   24  C   UNL     1      -9.627   6.707  68.297  1.00  0.00    -0.125 C  
HETATM   25  C   UNL     1      -9.781   7.529  67.030  1.00  0.00    -0.257 C  
ENDBRANCH  23  24
ENDBRANCH  22  23
ENDBRANCH  21  22
ENDBRANCH  18  21
ENDBRANCH  17  18
ENDBRANCH  16  17
ENDBRANCH   5  16
BRANCH  13  26
HETATM   26  O   UNL     1     -10.265  15.887  66.270  1.00  0.00    -0.280 OA 
BRANCH  26  27
HETATM   27  C   UNL     1      -8.882  16.202  66.160  1.00  0.00    -0.332 C  
HETATM   28  C   UNL     1      -8.647  17.698  66.059  1.00  0.00    -0.031 C  
HETATM   29  O   UNL     1      -9.778  18.429  66.159  1.00  0.00    -0.450 OA 
HETATM   30  O   UNL     1      -7.543  18.203  65.911  1.00  0.00    -0.471 OA 
ENDBRANCH  26  27
ENDBRANCH  13  26
TORSDOF 9
ENDMDL
MODEL       44
REMARK 921   NORMALIZED FREE ENERGY PREDICTED BY IDOCK:   -5.32 KCAL/MOL
REMARK 922        TOTAL FREE ENERGY PREDICTED BY IDOCK:  -10.21 KCAL/MOL
REMARK 923 INTER-LIGAND FREE ENERGY PREDICTED BY IDOCK:   -8.88 KCAL/MOL
REMARK 924 INTRA-LIGAND FREE ENERGY PREDICTED BY IDOCK:   -1.33 KCAL/MOL
REMARK 927      BINDING AFFINITY PREDICTED BY RF-SCORE:    0.00 PKD
ROOT
HETATM    1  C   UNL     1     -10.335  11.277  68.449  1.00  0.00    -0.207 C  
HETATM    2  C   UNL     1      -8.819  11.468  68.420  1.00  0.00    -0.163 C  
HETATM    3  C   UNL     1      -8.598  12.363  67.197  1.00  0.00    -0.189 C  
HETATM    4  O   UNL     1      -7.460  11.928  66.467  1.00  0.00    -0.359 OA 
HETATM    5  C   UNL     1      -9.864  12.229  66.308  1.00  0.00    -0.254 C  
HETATM    6  H   UNL     1      -7.323  12.483  65.708  1.00  0.00     0.000 HD 
HETATM    7  C   UNL     1     -10.441   7.275  66.874  1.00  0.00    -0.369 A  
HETATM    8  C   UNL     1     -10.685  11.100  66.981  1.00  0.00    -0.316 C  
HETATM    9  C   UNL     1     -10.620   6.158  67.674  1.00  0.00    -0.340 A  
HETATM   10  C   UNL     1     -10.264   9.717  66.463  1.00  0.00    -0.294 C  
HETATM   11  C   UNL     1     -10.835   6.323  69.038  1.00  0.00    -0.400 A  
HETATM   12  C   UNL     1     -10.493   8.568  67.421  1.00  0.00    -0.351 A  
HETATM   13  C   UNL     1     -10.859   7.598  69.628  1.00  0.00    -0.191 A  
HETATM   14  C   UNL     1     -10.687   8.750  68.818  1.00  0.00    -0.111 A  
HETATM   15  C   UNL     1     -10.833  10.155  69.342  1.00  0.00    -0.274 C  
ENDROOT
BRANCH   5  16
HETATM   16  C   UNL     1     -10.706  13.524  66.263  1.00  0.00    -0.288 C  
BRANCH  16  17
HETATM   17  C   UNL     1     -10.231  14.651  67.181  1.00  0.00    -0.256 C  
BRANCH  17  18
HETATM   18  C   UNL     1     -11.275  15.194  68.165  1.00  0.00    -0.320 C  
HETATM   19  O   UNL     1     -12.512  14.509  67.969  1.00  0.00    -0.598 OA 
HETATM   20  H   UNL     1     -13.158  14.844  68.578  1.00  0.00     0.000 HD 
BRANCH  18  21
HETATM   21  C   UNL     1     -10.853  14.970  69.625  1.00  0.00    -0.283 C  
BRANCH  21  22
HETATM   22  C   UNL     1     -11.578  15.899  70.599  1.00  0.00    -0.426 C  
BRANCH  22  23
HETATM   23  C   UNL     1     -12.026  15.178  71.867  1.00  0.00    -0.465 C  
BRANCH  23  24
HETATM   24  C   UNL     1     -12.588  13.801  71.512  1.00  0.00    -0.405 C  
HETATM   25  C   UNL     1     -13.713  13.397  72.447  1.00  0.00    -0.698 C  
ENDBRANCH  23  24
ENDBRANCH  22  23
ENDBRANCH  21  22
ENDBRANCH  18  21
ENDBRANCH  17  18
ENDBRANCH  16  17
ENDBRANCH   5  16
BRANCH  13  26
HETATM   26  O   UNL     1     -11.115   7.516  70.978  1.00  0.00    -0.248 OA 
BRANCH  26  27
HETATM   27  C   UNL     1     -11.819   6.380  71.465  1.00  0.00    -0.298 C  
HETATM   28  C   UNL     1     -11.213   5.847  72.752  1.00  0.00    -0.276 C  
HETATM   29  O   UNL     1     -10.180   6.587  73.209  1.00  0.00    -0.191 OA 
HETATM   30  O   UNL     1     -11.622   4.851  73.331  1.00  0.00    -0.313 OA 
ENDBRANCH  26  27
ENDBRANCH  13  26
TORSDOF 9
ENDMDL
MODEL       45
REMARK 921   NORMALIZED FREE ENERGY PREDICTED BY IDOCK:   -5.32 KCAL/MOL
REMARK 922        TOTAL FREE ENERGY PREDICTED BY IDOCK:  -10.21 KCAL/MOL
REMARK 923 INTER-LIGAND FREE ENERGY PREDICTED BY IDOCK:   -8.25 KCAL/MOL
REMARK 924 INTRA-LIGAND FREE ENERGY PREDICTED BY IDOCK:   -1.96 KCAL/MOL
REMARK 927      BINDING AFFINITY PREDICTED BY RF-SCORE:    0.00 PKD
ROOT
HETATM    1  C   UNL     1      -9.948   9.154  67.685  1.00  0.00    -0.245 C  
HETATM    2  C   UNL     1     -11.159   8.236  67.523  1.00  0.00     0.332 C  
HETATM    3  C   UNL     1     -10.591   6.845  67.821  1.00  0.00    -0.244 C  
HETATM    4  O   UNL     1     -11.120   5.891  66.911  1.00  0.00    -0.535 OA 
HETATM    5  C   UNL     1      -9.053   6.939  67.636  1.00  0.00    -0.118 C  
HETATM    6  H   UNL     1     -10.768   5.028  67.096  1.00  0.00     0.000 HD 
HETATM    7  C   UNL     1      -9.147   9.791  63.507  1.00  0.00    -0.263 A  
HETATM    8  C   UNL     1      -8.825   8.354  67.047  1.00  0.00    -0.146 C  
HETATM    9  C   UNL     1      -9.515  10.949  62.840  1.00  0.00    -0.377 A  
HETATM   10  C   UNL     1      -8.936   8.348  65.515  1.00  0.00    -0.149 C  
HETATM   11  C   UNL     1     -10.118  11.983  63.549  1.00  0.00    -0.448 A  
HETATM   12  C   UNL     1      -9.358   9.660  64.889  1.00  0.00    -0.306 A  
HETATM   13  C   UNL     1     -10.377  11.874  64.925  1.00  0.00    -0.286 A  
HETATM   14  C   UNL     1      -9.995  10.699  65.621  1.00  0.00    -0.327 A  
HETATM   15  C   UNL     1     -10.111  10.552  67.117  1.00  0.00    -0.253 C  
ENDROOT
BRANCH   5  16
HETATM   16  C   UNL     1      -8.278   6.802  68.965  1.00  0.00    -0.117 C  
BRANCH  16  17
HETATM   17  C   UNL     1      -8.981   5.994  70.058  1.00  0.00    -0.149 C  
BRANCH  17  18
HETATM   18  C   UNL     1      -9.115   6.689  71.419  1.00  0.00    -0.143 C  
HETATM   19  O   UNL     1      -8.395   5.948  72.403  1.00  0.00    -0.117 OA 
HETATM   20  H   UNL     1      -8.478   6.378  73.245  1.00  0.00     0.000 HD 
BRANCH  18  21
HETATM   21  C   UNL     1      -8.528   8.108  71.393  1.00  0.00    -0.154 C  
BRANCH  21  22
HETATM   22  C   UNL     1      -9.594   9.185  71.188  1.00  0.00    -0.347 C  
BRANCH  22  23
HETATM   23  C   UNL     1     -10.934   8.803  71.810  1.00  0.00    -0.415 C  
BRANCH  23  24
HETATM   24  C   UNL     1     -12.077   9.410  70.996  1.00  0.00    -0.373 C  
HETATM   25  C   UNL     1     -11.740  10.809  70.514  1.00  0.00    -0.449 C  
ENDBRANCH  23  24
ENDBRANCH  22  23
ENDBRANCH  21  22
ENDBRANCH  18  21
ENDBRANCH  17  18
ENDBRANCH  16  17
ENDBRANCH   5  16
BRANCH  13  26
HETATM   26  O   UNL     1     -10.950  13.026  65.414  1.00  0.00    -0.271 OA 
BRANCH  26  27
HETATM   27  C   UNL     1     -10.789  14.229  64.674  1.00  0.00    -0.368 C  
HETATM   28  C   UNL     1     -12.111  14.944  64.461  1.00  0.00    -0.407 C  
HETATM   29  O   UNL     1     -13.156  14.339  65.065  1.00  0.00    -0.682 OA 
HETATM   30  O   UNL     1     -12.227  15.976  63.814  1.00  0.00    -0.895 OA 
ENDBRANCH  26  27
ENDBRANCH  13  26
TORSDOF 9
ENDMDL
MODEL       46
REMARK 921   NORMALIZED FREE ENERGY PREDICTED BY IDOCK:   -5.28 KCAL/MOL
REMARK 922        TOTAL FREE ENERGY PREDICTED BY IDOCK:  -10.15 KCAL/MOL
REMARK 923 INTER-LIGAND FREE ENERGY PREDICTED BY IDOCK:   -8.20 KCAL/MOL
REMARK 924 INTRA-LIGAND FREE ENERGY PREDICTED BY IDOCK:   -1.95 KCAL/MOL
REMARK 927      BINDING AFFINITY PREDICTED BY RF-SCORE:    0.00 PKD
ROOT
HETATM    1  C   UNL     1     -10.148  10.272  67.074  1.00  0.00    -0.268 C  
HETATM    2  C   UNL     1      -8.822  10.766  67.651  1.00  0.00    -0.132 C  
HETATM    3  C   UNL     1      -8.149  11.449  66.456  1.00  0.00    -0.141 C  
HETATM    4  O   UNL     1      -6.764  11.135  66.424  1.00  0.00    -0.175 OA 
HETATM    5  C   UNL     1      -8.835  10.895  65.178  1.00  0.00    -0.167 C  
HETATM    6  H   UNL     1      -6.347  11.558  65.683  1.00  0.00     0.000 HD 
HETATM    7  C   UNL     1      -9.098   6.117  66.694  1.00  0.00    -0.146 A  
HETATM    8  C   UNL     1      -9.754   9.761  65.698  1.00  0.00    -0.357 C  
HETATM    9  C   UNL     1      -9.515   5.152  67.597  1.00  0.00    -0.145 A  
HETATM   10  C   UNL     1      -9.002   8.425  65.786  1.00  0.00    -0.207 C  
HETATM   11  C   UNL     1     -10.356   5.514  68.643  1.00  0.00    -0.255 A  
HETATM   12  C   UNL     1      -9.531   7.448  66.813  1.00  0.00    -0.226 A  
HETATM   13  C   UNL     1     -10.782   6.842  68.816  1.00  0.00    -0.239 A  
HETATM   14  C   UNL     1     -10.371   7.837  67.893  1.00  0.00    -0.276 A  
HETATM   15  C   UNL     1     -10.887   9.253  67.922  1.00  0.00    -0.181 C  
ENDROOT
BRANCH   5  16
HETATM   16  C   UNL     1      -9.686  11.955  64.444  1.00  0.00    -0.134 C  
BRANCH  16  17
HETATM   17  C   UNL     1     -10.856  11.408  63.624  1.00  0.00    -0.459 C  
BRANCH  17  18
HETATM   18  C   UNL     1     -12.099  12.304  63.559  1.00  0.00    -0.553 C  
HETATM   19  O   UNL     1     -13.079  11.694  62.719  1.00  0.00    -0.725 OA 
HETATM   20  H   UNL     1     -13.849  12.248  62.678  1.00  0.00     0.000 HD 
BRANCH  18  21
HETATM   21  C   UNL     1     -12.737  12.496  64.943  1.00  0.00    -0.371 C  
BRANCH  21  22
HETATM   22  C   UNL     1     -12.819  13.965  65.356  1.00  0.00    -0.466 C  
BRANCH  22  23
HETATM   23  C   UNL     1     -11.711  14.360  66.329  1.00  0.00    -0.394 C  
BRANCH  23  24
HETATM   24  C   UNL     1     -11.852  13.568  67.628  1.00  0.00    -0.399 C  
HETATM   25  C   UNL     1     -10.616  13.695  68.500  1.00  0.00    -0.259 C  
ENDBRANCH  23  24
ENDBRANCH  22  23
ENDBRANCH  21  22
ENDBRANCH  18  21
ENDBRANCH  17  18
ENDBRANCH  16  17
ENDBRANCH   5  16
BRANCH  13  26
HETATM   26  O   UNL     1     -11.627   6.955  69.896  1.00  0.00    -0.272 OA 
BRANCH  26  27
HETATM   27  C   UNL     1     -11.132   6.606  71.183  1.00  0.00    -0.279 C  
HETATM   28  C   UNL     1     -11.274   7.748  72.174  1.00  0.00    -0.297 C  
HETATM   29  O   UNL     1     -11.895   8.832  71.662  1.00  0.00    -0.288 OA 
HETATM   30  O   UNL     1     -10.876   7.696  73.329  1.00  0.00    -0.394 OA 
ENDBRANCH  26  27
ENDBRANCH  13  26
TORSDOF 9
ENDMDL
MODEL       47
REMARK 921   NORMALIZED FREE ENERGY PREDICTED BY IDOCK:   -5.27 KCAL/MOL
REMARK 922        TOTAL FREE ENERGY PREDICTED BY IDOCK:  -10.13 KCAL/MOL
REMARK 923 INTER-LIGAND FREE ENERGY PREDICTED BY IDOCK:   -8.07 KCAL/MOL
REMARK 924 INTRA-LIGAND FREE ENERGY PREDICTED BY IDOCK:   -2.06 KCAL/MOL
REMARK 927      BINDING AFFINITY PREDICTED BY RF-SCORE:    0.00 PKD
ROOT
HETATM    1  C   UNL     1     -10.960   7.195  68.740  1.00  0.00    -0.094 C  
HETATM    2  C   UNL     1     -10.355   5.801  68.579  1.00  0.00    -0.274 C  
HETATM    3  C   UNL     1     -10.404   5.228  69.998  1.00  0.00    -0.295 C  
HETATM    4  O   UNL     1      -9.206   4.521  70.286  1.00  0.00    -0.100 OA 
HETATM    5  C   UNL     1     -10.537   6.435  70.965  1.00  0.00    -0.282 C  
HETATM    6  H   UNL     1      -9.236   4.166  71.167  1.00  0.00     0.000 HD 
HETATM    7  C   UNL     1      -7.290   9.434  68.587  1.00  0.00    -0.075 A  
HETATM    8  C   UNL     1     -10.365   7.676  70.053  1.00  0.00    -0.223 C  
HETATM    9  C   UNL     1      -6.870  10.112  67.453  1.00  0.00    -0.077 A  
HETATM   10  C   UNL     1      -8.886   8.057  69.897  1.00  0.00    -0.144 C  
HETATM   11  C   UNL     1      -7.686  10.128  66.327  1.00  0.00    -0.110 A  
HETATM   12  C   UNL     1      -8.533   8.782  68.617  1.00  0.00    -0.129 A  
HETATM   13  C   UNL     1      -8.920   9.458  66.307  1.00  0.00    -0.156 A  
HETATM   14  C   UNL     1      -9.366   8.770  67.464  1.00  0.00    -0.161 A  
HETATM   15  C   UNL     1     -10.731   8.142  67.576  1.00  0.00    -0.227 C  
ENDROOT
BRANCH   5  16
HETATM   16  C   UNL     1     -11.912   6.495  71.667  1.00  0.00    -0.387 C  
BRANCH  16  17
HETATM   17  C   UNL     1     -12.238   7.817  72.366  1.00  0.00    -0.251 C  
BRANCH  17  18
HETATM   18  C   UNL     1     -13.642   8.378  72.109  1.00  0.00    -0.323 C  
HETATM   19  O   UNL     1     -14.130   8.996  73.299  1.00  0.00    -1.218 OA 
HETATM   20  H   UNL     1     -14.999   9.344  73.140  1.00  0.00     0.000 HD 
BRANCH  18  21
HETATM   21  C   UNL     1     -13.635   9.446  71.006  1.00  0.00    -0.120 C  
BRANCH  21  22
HETATM   22  C   UNL     1     -12.802  10.673  71.376  1.00  0.00    -0.556 C  
BRANCH  22  23
HETATM   23  C   UNL     1     -11.604  10.864  70.450  1.00  0.00    -0.418 C  
BRANCH  23  24
HETATM   24  C   UNL     1     -11.749  12.173  69.673  1.00  0.00    -0.396 C  
HETATM   25  C   UNL     1     -11.688  11.945  68.174  1.00  0.00    -0.388 C  
ENDBRANCH  23  24
ENDBRANCH  22  23
ENDBRANCH  21  22
ENDBRANCH  18  21
ENDBRANCH  17  18
ENDBRANCH  16  17
ENDBRANCH   5  16
BRANCH  13  26
HETATM   26  O   UNL     1      -9.561   9.636  65.101  1.00  0.00    -0.283 OA 
BRANCH  26  27
HETATM   27  C   UNL     1     -10.433  10.751  64.957  1.00  0.00    -0.237 C  
HETATM   28  C   UNL     1     -10.339  11.368  63.574  1.00  0.00    -0.423 C  
HETATM   29  O   UNL     1      -9.507  10.705  62.742  1.00  0.00    -0.289 OA 
HETATM   30  O   UNL     1     -10.963  12.364  63.232  1.00  0.00    -0.438 OA 
ENDBRANCH  26  27
ENDBRANCH  13  26
TORSDOF 9
ENDMDL
MODEL       48
REMARK 921   NORMALIZED FREE ENERGY PREDICTED BY IDOCK:   -5.24 KCAL/MOL
REMARK 922        TOTAL FREE ENERGY PREDICTED BY IDOCK:  -10.09 KCAL/MOL
REMARK 923 INTER-LIGAND FREE ENERGY PREDICTED BY IDOCK:   -8.51 KCAL/MOL
REMARK 924 INTRA-LIGAND FREE ENERGY PREDICTED BY IDOCK:   -1.57 KCAL/MOL
REMARK 927      BINDING AFFINITY PREDICTED BY RF-SCORE:    0.00 PKD
ROOT
HETATM    1  C   UNL     1     -12.068  10.413  71.284  1.00  0.00    -0.461 C  
HETATM    2  C   UNL     1     -13.369   9.633  71.095  1.00  0.00    -0.344 C  
HETATM    3  C   UNL     1     -13.013   8.228  71.592  1.00  0.00    -0.337 C  
HETATM    4  O   UNL     1     -13.579   7.245  70.736  1.00  0.00    -0.575 OA 
HETATM    5  C   UNL     1     -11.465   8.117  71.555  1.00  0.00    -0.310 C  
HETATM    6  H   UNL     1     -13.358   6.374  71.044  1.00  0.00     0.000 HD 
HETATM    7  C   UNL     1     -10.827  10.466  67.165  1.00  0.00    -0.301 A  
HETATM    8  C   UNL     1     -11.006   9.418  70.849  1.00  0.00    -0.391 C  
HETATM    9  C   UNL     1     -10.983  11.574  66.348  1.00  0.00    -0.336 A  
HETATM   10  C   UNL     1     -10.982   9.249  69.323  1.00  0.00    -0.105 C  
HETATM   11  C   UNL     1     -11.507  12.747  66.881  1.00  0.00    -0.396 A  
HETATM   12  C   UNL     1     -11.174  10.520  68.525  1.00  0.00    -0.332 A  
HETATM   13  C   UNL     1     -11.898  12.829  68.228  1.00  0.00    -0.312 A  
HETATM   14  C   UNL     1     -11.734  11.705  69.077  1.00  0.00    -0.388 A  
HETATM   15  C   UNL     1     -11.999  11.746  70.560  1.00  0.00    -0.383 C  
ENDROOT
BRANCH   5  16
HETATM   16  C   UNL     1     -10.834   8.043  72.963  1.00  0.00    -0.317 C  
BRANCH  16  17
HETATM   17  C   UNL     1      -9.364   7.621  73.005  1.00  0.00    -0.265 C  
BRANCH  17  18
HETATM   18  C   UNL     1      -8.385   8.543  72.269  1.00  0.00    -0.117 C  
HETATM   19  O   UNL     1      -7.297   8.866  73.133  1.00  0.00    -0.355 OA 
HETATM   20  H   UNL     1      -6.690   9.437  72.678  1.00  0.00     0.000 HD 
BRANCH  18  21
HETATM   21  C   UNL     1      -7.796   7.869  71.021  1.00  0.00    -0.089 C  
BRANCH  21  22
HETATM   22  C   UNL     1      -8.138   6.382  70.936  1.00  0.00    -0.124 C  
BRANCH  22  23
HETATM   23  C   UNL     1      -9.004   6.053  69.722  1.00  0.00    -0.135 C  
BRANCH  23  24
HETATM   24  C   UNL     1     -10.239   5.267  70.162  1.00  0.00    -0.350 C  
HETATM   25  C   UNL     1      -9.889   4.191  71.173  1.00  0.00    -0.244 C  
ENDBRANCH  23  24
ENDBRANCH  22  23
ENDBRANCH  21  22
ENDBRANCH  18  21
ENDBRANCH  17  18
ENDBRANCH  16  17
ENDBRANCH   5  16
BRANCH  13  26
HETATM   26  O   UNL     1     -12.359  14.089  68.535  1.00  0.00    -0.265 OA 
BRANCH  26  27
HETATM   27  C   UNL     1     -11.595  15.211  68.111  1.00  0.00    -0.341 C  
HETATM   28  C   UNL     1     -11.072  16.017  69.287  1.00  0.00    -0.331 C  
HETATM   29  O   UNL     1     -11.377  15.480  70.487  1.00  0.00    -0.288 OA 
HETATM   30  O   UNL     1     -10.428  17.050  69.167  1.00  0.00    -0.320 OA 
ENDBRANCH  26  27
ENDBRANCH  13  26
TORSDOF 9
ENDMDL
MODEL       49
REMARK 921   NORMALIZED FREE ENERGY PREDICTED BY IDOCK:   -5.22 KCAL/MOL
REMARK 922        TOTAL FREE ENERGY PREDICTED BY IDOCK:  -10.06 KCAL/MOL
REMARK 923 INTER-LIGAND FREE ENERGY PREDICTED BY IDOCK:   -8.53 KCAL/MOL
REMARK 924 INTRA-LIGAND FREE ENERGY PREDICTED BY IDOCK:   -1.52 KCAL/MOL
REMARK 927      BINDING AFFINITY PREDICTED BY RF-SCORE:    0.00 PKD
ROOT
HETATM    1  C   UNL     1     -11.149   9.603  70.086  1.00  0.00    -0.314 C  
HETATM    2  C   UNL     1     -10.025   9.453  71.110  1.00  0.00    -0.311 C  
HETATM    3  C   UNL     1     -10.354   8.128  71.805  1.00  0.00    -0.230 C  
HETATM    4  O   UNL     1     -10.134   8.237  73.204  1.00  0.00    -0.242 OA 
HETATM    5  C   UNL     1     -11.857   7.842  71.538  1.00  0.00    -0.322 C  
HETATM    6  H   UNL     1     -10.338   7.415  73.635  1.00  0.00     0.000 HD 
HETATM    7  C   UNL     1     -13.461  12.552  72.201  1.00  0.00    -0.523 A  
HETATM    8  C   UNL     1     -12.374   9.132  70.852  1.00  0.00    -0.197 C  
HETATM    9  C   UNL     1     -13.436  13.900  71.876  1.00  0.00    -0.511 A  
HETATM   10  C   UNL     1     -12.830  10.173  71.885  1.00  0.00    -0.526 C  
HETATM   11  C   UNL     1     -12.684  14.325  70.786  1.00  0.00    -0.419 A  
HETATM   12  C   UNL     1     -12.752  11.615  71.432  1.00  0.00    -0.445 A  
HETATM   13  C   UNL     1     -11.934  13.422  70.016  1.00  0.00    -0.337 A  
HETATM   14  C   UNL     1     -11.958  12.040  70.331  1.00  0.00    -0.379 A  
HETATM   15  C   UNL     1     -11.296  10.987  69.480  1.00  0.00    -0.356 C  
ENDROOT
BRANCH   5  16
HETATM   16  C   UNL     1     -12.082   6.633  70.604  1.00  0.00    -0.342 C  
BRANCH  16  17
HETATM   17  C   UNL     1     -10.815   5.904  70.152  1.00  0.00    -0.402 C  
BRANCH  17  18
HETATM   18  C   UNL     1     -10.484   6.007  68.658  1.00  0.00    -0.241 C  
HETATM   19  O   UNL     1     -11.589   6.591  67.967  1.00  0.00    -0.598 OA 
HETATM   20  H   UNL     1     -11.384   6.655  67.042  1.00  0.00     0.000 HD 
BRANCH  18  21
HETATM   21  C   UNL     1      -9.261   6.901  68.405  1.00  0.00    -0.124 C  
BRANCH  21  22
HETATM   22  C   UNL     1      -8.101   6.596  69.352  1.00  0.00    -0.119 C  
BRANCH  22  23
HETATM   23  C   UNL     1      -6.788   6.368  68.609  1.00  0.00    -0.074 C  
BRANCH  23  24
HETATM   24  C   UNL     1      -6.937   5.199  67.635  1.00  0.00    -0.065 C  
HETATM   25  C   UNL     1      -5.960   4.080  67.948  1.00  0.00    -0.027 C  
ENDBRANCH  23  24
ENDBRANCH  22  23
ENDBRANCH  21  22
ENDBRANCH  18  21
ENDBRANCH  17  18
ENDBRANCH  16  17
ENDBRANCH   5  16
BRANCH  13  26
HETATM   26  O   UNL     1     -11.297  14.065  68.978  1.00  0.00    -0.251 OA 
BRANCH  26  27
HETATM   27  C   UNL     1     -11.478  15.469  68.839  1.00  0.00    -0.354 C  
HETATM   28  C   UNL     1     -10.445  16.084  67.912  1.00  0.00    -0.292 C  
HETATM   29  O   UNL     1      -9.609  15.179  67.359  1.00  0.00    -0.206 OA 
HETATM   30  O   UNL     1     -10.375  17.282  67.676  1.00  0.00    -0.324 OA 
ENDBRANCH  26  27
ENDBRANCH  13  26
TORSDOF 9
ENDMDL
MODEL       50
REMARK 921   NORMALIZED FREE ENERGY PREDICTED BY IDOCK:   -5.21 KCAL/MOL
REMARK 922        TOTAL FREE ENERGY PREDICTED BY IDOCK:  -10.04 KCAL/MOL
REMARK 923 INTER-LIGAND FREE ENERGY PREDICTED BY IDOCK:   -9.15 KCAL/MOL
REMARK 924 INTRA-LIGAND FREE ENERGY PREDICTED BY IDOCK:   -0.89 KCAL/MOL
REMARK 927      BINDING AFFINITY PREDICTED BY RF-SCORE:    0.00 PKD
ROOT
HETATM    1  C   UNL     1      -9.789  12.192  67.766  1.00  0.00    -0.199 C  
HETATM    2  C   UNL     1     -10.857  12.208  68.859  1.00  0.00    -0.241 C  
HETATM    3  C   UNL     1     -11.239  10.732  69.002  1.00  0.00    -0.262 C  
HETATM    4  O   UNL     1     -12.645  10.598  69.153  1.00  0.00    -0.734 OA 
HETATM    5  C   UNL     1     -10.788  10.023  67.697  1.00  0.00    -0.336 C  
HETATM    6  H   UNL     1     -12.882   9.682  69.241  1.00  0.00     0.000 HD 
HETATM    7  C   UNL     1     -12.242  13.650  64.546  1.00  0.00    -0.444 A  
HETATM    8  C   UNL     1     -10.333  11.180  66.772  1.00  0.00    -0.284 C  
HETATM    9  C   UNL     1     -12.199  14.964  64.105  1.00  0.00    -0.280 A  
HETATM   10  C   UNL     1     -11.510  11.753  65.969  1.00  0.00    -0.281 C  
HETATM   11  C   UNL     1     -11.288  15.846  64.676  1.00  0.00    -0.328 A  
HETATM   12  C   UNL     1     -11.366  13.199  65.547  1.00  0.00    -0.325 A  
HETATM   13  C   UNL     1     -10.420  15.440  65.703  1.00  0.00    -0.372 A  
HETATM   14  C   UNL     1     -10.448  14.097  66.157  1.00  0.00    -0.297 A  
HETATM   15  C   UNL     1      -9.464  13.543  67.156  1.00  0.00    -0.244 C  
ENDROOT
BRANCH   5  16
HETATM   16  C   UNL     1      -9.614   9.045  67.918  1.00  0.00    -0.170 C  
BRANCH  16  17
HETATM   17  C   UNL     1      -9.678   7.745  67.114  1.00  0.00    -0.243 C  
BRANCH  17  18
HETATM   18  C   UNL     1     -10.965   6.925  67.275  1.00  0.00    -0.336 C  
HETATM   19  O   UNL     1     -10.925   5.802  66.395  1.00  0.00    -0.662 OA 
HETATM   20  H   UNL     1     -11.721   5.295  66.495  1.00  0.00     0.000 HD 
BRANCH  18  21
HETATM   21  C   UNL     1     -11.120   6.383  68.704  1.00  0.00    -0.393 C  
BRANCH  21  22
HETATM   22  C   UNL     1     -10.157   5.236  69.008  1.00  0.00    -0.272 C  
BRANCH  22  23
HETATM   23  C   UNL     1      -9.861   5.104  70.500  1.00  0.00    -0.285 C  
BRANCH  23  24
HETATM   24  C   UNL     1      -9.614   3.638  70.854  1.00  0.00    -0.250 C  
HETATM   25  C   UNL     1     -10.005   3.334  72.289  1.00  0.00    -0.235 C  
ENDBRANCH  23  24
ENDBRANCH  22  23
ENDBRANCH  21  22
ENDBRANCH  18  21
ENDBRANCH  17  18
ENDBRANCH  16  17
ENDBRANCH   5  16
BRANCH  13  26
HETATM   26  O   UNL     1      -9.594  16.471  66.091  1.00  0.00    -0.290 OA 
BRANCH  26  27
HETATM   27  C   UNL     1     -10.149  17.776  66.207  1.00  0.00    -0.344 C  
HETATM   28  C   UNL     1     -10.123  18.278  67.639  1.00  0.00    -0.356 C  
HETATM   29  O   UNL     1      -9.525  17.425  68.499  1.00  0.00    -0.280 OA 
HETATM   30  O   UNL     1     -10.586  19.354  67.989  1.00  0.00    -0.407 OA 
ENDBRANCH  26  27
ENDBRANCH  13  26
TORSDOF 9
ENDMDL
MODEL       51
REMARK 921   NORMALIZED FREE ENERGY PREDICTED BY IDOCK:   -5.19 KCAL/MOL
REMARK 922        TOTAL FREE ENERGY PREDICTED BY IDOCK:  -10.01 KCAL/MOL
REMARK 923 INTER-LIGAND FREE ENERGY PREDICTED BY IDOCK:   -8.31 KCAL/MOL
REMARK 924 INTRA-LIGAND FREE ENERGY PREDICTED BY IDOCK:   -1.70 KCAL/MOL
REMARK 927      BINDING AFFINITY PREDICTED BY RF-SCORE:    0.00 PKD
ROOT
HETATM    1  C   UNL     1     -10.007  10.780  68.149  1.00  0.00    -0.176 C  
HETATM    2  C   UNL     1     -11.013  10.598  67.014  1.00  0.00    -0.274 C  
HETATM    3  C   UNL     1     -11.003  11.958  66.310  1.00  0.00    -0.302 C  
HETATM    4  O   UNL     1     -12.324  12.339  65.954  1.00  0.00    -0.618 OA 
HETATM    5  C   UNL     1     -10.422  12.983  67.321  1.00  0.00    -0.238 C  
HETATM    6  H   UNL     1     -12.318  13.183  65.517  1.00  0.00     0.000 HD 
HETATM    7  C   UNL     1     -12.836  11.232  71.359  1.00  0.00    -0.515 A  
HETATM    8  C   UNL     1     -10.302  12.186  68.645  1.00  0.00    -0.211 C  
HETATM    9  C   UNL     1     -13.140  10.207  72.241  1.00  0.00    -0.350 A  
HETATM   10  C   UNL     1     -11.607  12.239  69.452  1.00  0.00    -0.378 C  
HETATM   11  C   UNL     1     -12.469   8.993  72.135  1.00  0.00    -0.450 A  
HETATM   12  C   UNL     1     -11.847  11.064  70.375  1.00  0.00    -0.460 A  
HETATM   13  C   UNL     1     -11.499   8.776  71.143  1.00  0.00    -0.286 A  
HETATM   14  C   UNL     1     -11.171   9.820  70.240  1.00  0.00    -0.347 A  
HETATM   15  C   UNL     1     -10.052   9.721  69.236  1.00  0.00    -0.207 C  
ENDROOT
BRANCH   5  16
HETATM   16  C   UNL     1      -9.032  13.514  66.908  1.00  0.00    -0.219 C  
BRANCH  16  17
HETATM   17  C   UNL     1      -8.309  14.355  67.962  1.00  0.00    -0.157 C  
BRANCH  17  18
HETATM   18  C   UNL     1      -7.619  15.623  67.442  1.00  0.00    -0.198 C  
HETATM   19  O   UNL     1      -8.098  15.921  66.132  1.00  0.00    -0.265 OA 
HETATM   20  H   UNL     1      -7.671  16.705  65.810  1.00  0.00     0.000 HD 
BRANCH  18  21
HETATM   21  C   UNL     1      -7.920  16.840  68.329  1.00  0.00    -0.200 C  
BRANCH  21  22
HETATM   22  C   UNL     1      -9.033  17.722  67.764  1.00  0.00    -0.249 C  
BRANCH  22  23
HETATM   23  C   UNL     1     -10.209  17.865  68.726  1.00  0.00    -0.362 C  
BRANCH  23  24
HETATM   24  C   UNL     1     -11.027  16.574  68.743  1.00  0.00    -0.330 C  
HETATM   25  C   UNL     1     -10.973  15.894  70.098  1.00  0.00    -0.369 C  
ENDBRANCH  23  24
ENDBRANCH  22  23
ENDBRANCH  21  22
ENDBRANCH  18  21
ENDBRANCH  17  18
ENDBRANCH  16  17
ENDBRANCH   5  16
BRANCH  13  26
HETATM   26  O   UNL     1     -10.952   7.518  71.250  1.00  0.00    -0.238 OA 
BRANCH  26  27
HETATM   27  C   UNL     1     -11.306   6.541  70.278  1.00  0.00    -0.395 C  
HETATM   28  C   UNL     1     -10.085   5.963  69.586  1.00  0.00    -0.200 C  
HETATM   29  O   UNL     1      -8.916   6.434  70.070  1.00  0.00    -0.144 OA 
HETATM   30  O   UNL     1     -10.144   5.139  68.683  1.00  0.00    -0.172 OA 
ENDBRANCH  26  27
ENDBRANCH  13  26
TORSDOF 9
ENDMDL
MODEL       52
REMARK 921   NORMALIZED FREE ENERGY PREDICTED BY IDOCK:   -5.15 KCAL/MOL
REMARK 922        TOTAL FREE ENERGY PREDICTED BY IDOCK:   -9.95 KCAL/MOL
REMARK 923 INTER-LIGAND FREE ENERGY PREDICTED BY IDOCK:   -8.10 KCAL/MOL
REMARK 924 INTRA-LIGAND FREE ENERGY PREDICTED BY IDOCK:   -1.85 KCAL/MOL
REMARK 927      BINDING AFFINITY PREDICTED BY RF-SCORE:    0.00 PKD
ROOT
HETATM    1  C   UNL     1      -8.562  14.887  68.839  1.00  0.00    -0.177 C  
HETATM    2  C   UNL     1      -7.379  13.943  68.629  1.00  0.00    -0.117 C  
HETATM    3  C   UNL     1      -6.211  14.894  68.354  1.00  0.00    -0.104 C  
HETATM    4  O   UNL     1      -5.396  14.385  67.307  1.00  0.00    -0.286 OA 
HETATM    5  C   UNL     1      -6.829  16.249  67.915  1.00  0.00    -0.152 C  
HETATM    6  H   UNL     1      -4.671  14.976  67.136  1.00  0.00     0.000 HD 
HETATM    7  C   UNL     1     -10.437  14.318  65.009  1.00  0.00    -0.458 A  
HETATM    8  C   UNL     1      -8.343  15.950  67.775  1.00  0.00    -0.159 C  
HETATM    9  C   UNL     1     -11.546  13.506  64.829  1.00  0.00    -0.372 A  
HETATM   10  C   UNL     1      -8.683  15.424  66.372  1.00  0.00    -0.307 C  
HETATM   11  C   UNL     1     -12.126  12.889  65.932  1.00  0.00    -0.503 A  
HETATM   12  C   UNL     1      -9.906  14.537  66.291  1.00  0.00    -0.322 A  
HETATM   13  C   UNL     1     -11.602  13.056  67.225  1.00  0.00    -0.356 A  
HETATM   14  C   UNL     1     -10.474  13.892  67.424  1.00  0.00    -0.263 A  
HETATM   15  C   UNL     1      -9.931  14.236  68.787  1.00  0.00    -0.205 C  
ENDROOT
BRANCH   5  16
HETATM   16  C   UNL     1      -6.618  17.371  68.956  1.00  0.00    -0.232 C  
BRANCH  16  17
HETATM   17  C   UNL     1      -7.863  18.188  69.305  1.00  0.00     0.132 C  
BRANCH  17  18
HETATM   18  C   UNL     1      -7.712  19.711  69.201  1.00  0.00    -0.200 C  
HETATM   19  O   UNL     1      -6.701  20.150  70.108  1.00  0.00    -0.302 OA 
HETATM   20  H   UNL     1      -6.608  21.093  70.043  1.00  0.00     0.000 HD 
BRANCH  18  21
HETATM   21  C   UNL     1      -7.285  20.146  67.791  1.00  0.00    -0.329 C  
BRANCH  21  22
HETATM   22  C   UNL     1      -8.364  19.887  66.740  1.00  0.00    -0.364 C  
BRANCH  22  23
HETATM   23  C   UNL     1      -9.733  20.405  67.172  1.00  0.00    -0.601 C  
BRANCH  23  24
HETATM   24  C   UNL     1     -10.745  19.259  67.179  1.00  0.00    -0.584 C  
HETATM   25  C   UNL     1     -10.578  18.356  65.970  1.00  0.00    -0.339 C  
ENDBRANCH  23  24
ENDBRANCH  22  23
ENDBRANCH  21  22
ENDBRANCH  18  21
ENDBRANCH  17  18
ENDBRANCH  16  17
ENDBRANCH   5  16
BRANCH  13  26
HETATM   26  O   UNL     1     -12.354  12.376  68.157  1.00  0.00    -0.200 OA 
BRANCH  26  27
HETATM   27  C   UNL     1     -11.859  11.139  68.653  1.00  0.00    -0.287 C  
HETATM   28  C   UNL     1     -11.903  11.078  70.169  1.00  0.00    -0.357 C  
HETATM   29  O   UNL     1     -12.459  12.170  70.737  1.00  0.00    -0.347 OA 
HETATM   30  O   UNL     1     -11.488  10.131  70.822  1.00  0.00    -0.310 OA 
ENDBRANCH  26  27
ENDBRANCH  13  26
TORSDOF 9
ENDMDL
MODEL       53
REMARK 921   NORMALIZED FREE ENERGY PREDICTED BY IDOCK:   -5.12 KCAL/MOL
REMARK 922        TOTAL FREE ENERGY PREDICTED BY IDOCK:   -9.91 KCAL/MOL
REMARK 923 INTER-LIGAND FREE ENERGY PREDICTED BY IDOCK:   -8.84 KCAL/MOL
REMARK 924 INTRA-LIGAND FREE ENERGY PREDICTED BY IDOCK:   -1.07 KCAL/MOL
REMARK 927      BINDING AFFINITY PREDICTED BY RF-SCORE:    0.00 PKD
ROOT
HETATM    1  C   UNL     1      -9.944  10.798  68.774  1.00  0.00    -0.201 C  
HETATM    2  C   UNL     1     -10.745  10.433  67.525  1.00  0.00    -0.339 C  
HETATM    3  C   UNL     1     -10.891  11.772  66.795  1.00  0.00    -0.270 C  
HETATM    4  O   UNL     1     -12.202  11.905  66.265  1.00  0.00    -0.471 OA 
HETATM    5  C   UNL     1     -10.642  12.886  67.847  1.00  0.00    -0.232 C  
HETATM    6  H   UNL     1     -12.293  12.736  65.813  1.00  0.00     0.000 HD 
HETATM    7  C   UNL     1     -13.199  10.724  71.586  1.00  0.00    -0.487 A  
HETATM    8  C   UNL     1     -10.551  12.125  69.194  1.00  0.00    -0.046 C  
HETATM    9  C   UNL     1     -13.424   9.660  72.447  1.00  0.00    -0.421 A  
HETATM   10  C   UNL     1     -11.938  11.938  69.827  1.00  0.00    -0.377 C  
HETATM   11  C   UNL     1     -12.535   8.590  72.456  1.00  0.00    -0.358 A  
HETATM   12  C   UNL     1     -12.078  10.740  70.740  1.00  0.00    -0.473 A  
HETATM   13  C   UNL     1     -11.422   8.555  71.600  1.00  0.00    -0.298 A  
HETATM   14  C   UNL     1     -11.176   9.641  70.722  1.00  0.00    -0.403 A  
HETATM   15  C   UNL     1      -9.937   9.748  69.871  1.00  0.00    -0.282 C  
ENDROOT
BRANCH   5  16
HETATM   16  C   UNL     1      -9.330  13.663  67.602  1.00  0.00    -0.215 C  
BRANCH  16  17
HETATM   17  C   UNL     1      -9.077  14.843  68.543  1.00  0.00    -0.191 C  
BRANCH  17  18
HETATM   18  C   UNL     1     -10.329  15.541  69.087  1.00  0.00    -0.237 C  
HETATM   19  O   UNL     1     -10.409  15.338  70.498  1.00  0.00    -0.488 OA 
HETATM   20  H   UNL     1     -11.185  15.770  70.835  1.00  0.00     0.000 HD 
BRANCH  18  21
HETATM   21  C   UNL     1     -10.288  17.057  68.843  1.00  0.00    -0.337 C  
BRANCH  21  22
HETATM   22  C   UNL     1      -8.898  17.555  68.450  1.00  0.00    -0.276 C  
BRANCH  22  23
HETATM   23  C   UNL     1      -8.851  18.081  67.019  1.00  0.00    -0.259 C  
BRANCH  23  24
HETATM   24  C   UNL     1     -10.261  18.117  66.431  1.00  0.00    -0.405 C  
HETATM   25  C   UNL     1     -10.636  19.509  65.957  1.00  0.00    -0.589 C  
ENDBRANCH  23  24
ENDBRANCH  22  23
ENDBRANCH  21  22
ENDBRANCH  18  21
ENDBRANCH  17  18
ENDBRANCH  16  17
ENDBRANCH   5  16
BRANCH  13  26
HETATM   26  O   UNL     1     -10.674   7.417  71.806  1.00  0.00    -0.213 OA 
BRANCH  26  27
HETATM   27  C   UNL     1     -10.543   6.925  73.134  1.00  0.00    -0.302 C  
HETATM   28  C   UNL     1     -10.638   5.411  73.189  1.00  0.00    -0.239 C  
HETATM   29  O   UNL     1     -10.760   4.833  71.975  1.00  0.00    -0.155 OA 
HETATM   30  O   UNL     1     -10.597   4.767  74.228  1.00  0.00    -0.272 OA 
ENDBRANCH  26  27
ENDBRANCH  13  26
TORSDOF 9
ENDMDL
MODEL       54
REMARK 921   NORMALIZED FREE ENERGY PREDICTED BY IDOCK:   -5.11 KCAL/MOL
REMARK 922        TOTAL FREE ENERGY PREDICTED BY IDOCK:   -9.89 KCAL/MOL
REMARK 923 INTER-LIGAND FREE ENERGY PREDICTED BY IDOCK:   -8.00 KCAL/MOL
REMARK 924 INTRA-LIGAND FREE ENERGY PREDICTED BY IDOCK:   -1.89 KCAL/MOL
REMARK 927      BINDING AFFINITY PREDICTED BY RF-SCORE:    0.00 PKD
ROOT
HETATM    1  C   UNL     1      -9.781  12.212  67.606  1.00  0.00    -0.188 C  
HETATM    2  C   UNL     1     -10.728  12.329  68.799  1.00  0.00    -0.247 C  
HETATM    3  C   UNL     1     -11.297  10.913  68.938  1.00  0.00    -0.288 C  
HETATM    4  O   UNL     1     -12.687  10.966  69.223  1.00  0.00    -0.591 OA 
HETATM    5  C   UNL     1     -11.074  10.204  67.576  1.00  0.00    -0.251 C  
HETATM    6  H   UNL     1     -13.040  10.088  69.310  1.00  0.00     0.000 HD 
HETATM    7  C   UNL     1     -12.298  14.120  64.685  1.00  0.00    -0.432 A  
HETATM    8  C   UNL     1     -10.551  11.325  66.643  1.00  0.00    -0.309 C  
HETATM    9  C   UNL     1     -12.114  15.432  64.277  1.00  0.00    -0.178 A  
HETATM   10  C   UNL     1     -11.707  12.084  65.976  1.00  0.00    -0.311 C  
HETATM   11  C   UNL     1     -11.040  16.159  64.780  1.00  0.00    -0.345 A  
HETATM   12  C   UNL     1     -11.403  13.514  65.582  1.00  0.00    -0.312 A  
HETATM   13  C   UNL     1     -10.144  15.598  65.705  1.00  0.00    -0.366 A  
HETATM   14  C   UNL     1     -10.316  14.253  66.122  1.00  0.00    -0.305 A  
HETATM   15  C   UNL     1      -9.329  13.530  67.003  1.00  0.00    -0.247 C  
ENDROOT
BRANCH   5  16
HETATM   16  C   UNL     1     -10.031   9.067  67.653  1.00  0.00    -0.252 C  
BRANCH  16  17
HETATM   17  C   UNL     1     -10.104   8.028  66.532  1.00  0.00    -0.270 C  
BRANCH  17  18
HETATM   18  C   UNL     1      -8.763   7.433  66.086  1.00  0.00    -0.156 C  
HETATM   19  O   UNL     1      -9.000   6.263  65.304  1.00  0.00    -0.363 OA 
HETATM   20  H   UNL     1      -8.169   5.895  65.029  1.00  0.00     0.000 HD 
BRANCH  18  21
HETATM   21  C   UNL     1      -7.965   8.414  65.215  1.00  0.00    -0.125 C  
BRANCH  21  22
HETATM   22  C   UNL     1      -8.077   8.104  63.722  1.00  0.00    -0.112 C  
BRANCH  22  23
HETATM   23  C   UNL     1      -8.752   9.228  62.942  1.00  0.00    -0.210 C  
BRANCH  23  24
HETATM   24  C   UNL     1      -8.708  10.524  63.753  1.00  0.00    -0.185 C  
HETATM   25  C   UNL     1      -9.537  11.618  63.106  1.00  0.00    -0.348 C  
ENDBRANCH  23  24
ENDBRANCH  22  23
ENDBRANCH  21  22
ENDBRANCH  18  21
ENDBRANCH  17  18
ENDBRANCH  16  17
ENDBRANCH   5  16
BRANCH  13  26
HETATM   26  O   UNL     1      -9.150  16.490  66.037  1.00  0.00    -0.386 OA 
BRANCH  26  27
HETATM   27  C   UNL     1      -9.262  17.201  67.264  1.00  0.00    -0.230 C  
HETATM   28  C   UNL     1      -9.356  18.700  67.043  1.00  0.00    -0.294 C  
HETATM   29  O   UNL     1      -9.382  19.053  65.740  1.00  0.00    -0.388 OA 
HETATM   30  O   UNL     1      -9.414  19.517  67.952  1.00  0.00    -0.313 OA 
ENDBRANCH  26  27
ENDBRANCH  13  26
TORSDOF 9
ENDMDL
MODEL       55
REMARK 921   NORMALIZED FREE ENERGY PREDICTED BY IDOCK:   -5.09 KCAL/MOL
REMARK 922        TOTAL FREE ENERGY PREDICTED BY IDOCK:   -9.85 KCAL/MOL
REMARK 923 INTER-LIGAND FREE ENERGY PREDICTED BY IDOCK:   -7.88 KCAL/MOL
REMARK 924 INTRA-LIGAND FREE ENERGY PREDICTED BY IDOCK:   -1.98 KCAL/MOL
REMARK 927      BINDING AFFINITY PREDICTED BY RF-SCORE:    0.00 PKD
ROOT
HETATM    1  C   UNL     1      -8.400  10.277  67.828  1.00  0.00    -0.110 C  
HETATM    2  C   UNL     1      -7.378  10.637  68.906  1.00  0.00    -0.099 C  
HETATM    3  C   UNL     1      -7.257   9.347  69.723  1.00  0.00    -0.076 C  
HETATM    4  O   UNL     1      -7.197   9.647  71.111  1.00  0.00    -0.328 OA 
HETATM    5  C   UNL     1      -8.530   8.508  69.430  1.00  0.00    -0.127 C  
HETATM    6  H   UNL     1      -7.122   8.846  71.618  1.00  0.00     0.000 HD 
HETATM    7  C   UNL     1     -11.774  12.337  69.526  1.00  0.00    -0.398 A  
HETATM    8  C   UNL     1      -9.425   9.454  68.591  1.00  0.00    -0.147 C  
HETATM    9  C   UNL     1     -12.214  13.567  69.062  1.00  0.00    -0.224 A  
HETATM   10  C   UNL     1     -10.304  10.338  69.489  1.00  0.00    -0.267 C  
HETATM   11  C   UNL     1     -11.588  14.145  67.963  1.00  0.00    -0.368 A  
HETATM   12  C   UNL     1     -10.718  11.664  68.890  1.00  0.00    -0.244 A  
HETATM   13  C   UNL     1     -10.506  13.519  67.323  1.00  0.00    -0.248 A  
HETATM   14  C   UNL     1     -10.052  12.257  67.782  1.00  0.00    -0.202 A  
HETATM   15  C   UNL     1      -8.991  11.453  67.074  1.00  0.00    -0.166 C  
ENDROOT
BRANCH   5  16
HETATM   16  C   UNL     1      -8.232   7.226  68.621  1.00  0.00    -0.125 C  
BRANCH  16  17
HETATM   17  C   UNL     1      -9.460   6.443  68.152  1.00  0.00    -0.114 C  
BRANCH  17  18
HETATM   18  C   UNL     1      -9.700   5.100  68.853  1.00  0.00    -0.156 C  
HETATM   19  O   UNL     1      -8.455   4.573  69.309  1.00  0.00    -0.077 OA 
HETATM   20  H   UNL     1      -8.603   3.742  69.743  1.00  0.00     0.000 HD 
BRANCH  18  21
HETATM   21  C   UNL     1     -10.610   5.253  70.081  1.00  0.00    -0.297 C  
BRANCH  21  22
HETATM   22  C   UNL     1     -11.596   6.414  69.944  1.00  0.00    -0.422 C  
BRANCH  22  23
HETATM   23  C   UNL     1     -11.859   7.113  71.275  1.00  0.00    -0.355 C  
BRANCH  23  24
HETATM   24  C   UNL     1     -10.735   6.796  72.261  1.00  0.00    -0.250 C  
HETATM   25  C   UNL     1     -10.074   8.059  72.783  1.00  0.00    -0.378 C  
ENDBRANCH  23  24
ENDBRANCH  22  23
ENDBRANCH  21  22
ENDBRANCH  18  21
ENDBRANCH  17  18
ENDBRANCH  16  17
ENDBRANCH   5  16
BRANCH  13  26
HETATM   26  O   UNL     1     -10.068  14.262  66.249  1.00  0.00    -0.278 OA 
BRANCH  26  27
HETATM   27  C   UNL     1     -10.975  14.507  65.182  1.00  0.00    -0.379 C  
HETATM   28  C   UNL     1     -10.929  15.953  64.721  1.00  0.00    -0.375 C  
HETATM   29  O   UNL     1     -10.002  16.695  65.363  1.00  0.00    -0.565 OA 
HETATM   30  O   UNL     1     -11.653  16.409  63.846  1.00  0.00    -1.100 OA 
ENDBRANCH  26  27
ENDBRANCH  13  26
TORSDOF 9
ENDMDL
MODEL       56
REMARK 921   NORMALIZED FREE ENERGY PREDICTED BY IDOCK:   -5.08 KCAL/MOL
REMARK 922        TOTAL FREE ENERGY PREDICTED BY IDOCK:   -9.84 KCAL/MOL
REMARK 923 INTER-LIGAND FREE ENERGY PREDICTED BY IDOCK:   -8.65 KCAL/MOL
REMARK 924 INTRA-LIGAND FREE ENERGY PREDICTED BY IDOCK:   -1.19 KCAL/MOL
REMARK 927      BINDING AFFINITY PREDICTED BY RF-SCORE:    0.00 PKD
ROOT
HETATM    1  C   UNL     1     -11.031  13.780  68.039  1.00  0.00    -0.268 C  
HETATM    2  C   UNL     1     -10.342  14.728  69.020  1.00  0.00    -0.243 C  
HETATM    3  C   UNL     1      -9.315  15.455  68.146  1.00  0.00    -0.197 C  
HETATM    4  O   UNL     1      -8.086  15.596  68.845  1.00  0.00    -0.164 OA 
HETATM    5  C   UNL     1      -9.096  14.578  66.885  1.00  0.00    -0.274 C  
HETATM    6  H   UNL     1      -7.448  16.046  68.303  1.00  0.00     0.000 HD 
HETATM    7  C   UNL     1      -9.060  10.157  69.263  1.00  0.00    -0.208 A  
HETATM    8  C   UNL     1      -9.879  13.275  67.187  1.00  0.00    -0.237 C  
HETATM    9  C   UNL     1      -9.662   9.214  70.080  1.00  0.00    -0.234 A  
HETATM   10  C   UNL     1      -9.011  12.264  67.951  1.00  0.00    -0.186 C  
HETATM   11  C   UNL     1     -10.980   9.402  70.483  1.00  0.00    -0.332 A  
HETATM   12  C   UNL     1      -9.770  11.287  68.824  1.00  0.00    -0.184 A  
HETATM   13  C   UNL     1     -11.711  10.536  70.093  1.00  0.00    -0.326 A  
HETATM   14  C   UNL     1     -11.109  11.504  69.249  1.00  0.00    -0.305 A  
HETATM   15  C   UNL     1     -11.859  12.678  68.673  1.00  0.00    -0.342 C  
ENDROOT
BRANCH   5  16
HETATM   16  C   UNL     1      -9.650  15.227  65.597  1.00  0.00    -0.313 C  
BRANCH  16  17
HETATM   17  C   UNL     1     -10.896  16.096  65.780  1.00  0.00    -0.206 C  
BRANCH  17  18
HETATM   18  C   UNL     1     -12.104  15.718  64.915  1.00  0.00     0.360 C  
HETATM   19  O   UNL     1     -11.857  16.101  63.562  1.00  0.00    -1.146 OA 
HETATM   20  H   UNL     1     -12.605  15.868  63.027  1.00  0.00     0.000 HD 
BRANCH  18  21
HETATM   21  C   UNL     1     -12.360  14.204  64.923  1.00  0.00    -0.446 C  
BRANCH  21  22
HETATM   22  C   UNL     1     -11.871  13.514  63.649  1.00  0.00    -0.383 C  
BRANCH  22  23
HETATM   23  C   UNL     1     -12.079  12.003  63.689  1.00  0.00    -0.627 C  
BRANCH  23  24
HETATM   24  C   UNL     1     -10.851  11.324  64.296  1.00  0.00    -0.398 C  
HETATM   25  C   UNL     1      -9.959  10.718  63.227  1.00  0.00    -0.369 C  
ENDBRANCH  23  24
ENDBRANCH  22  23
ENDBRANCH  21  22
ENDBRANCH  18  21
ENDBRANCH  17  18
ENDBRANCH  16  17
ENDBRANCH   5  16
BRANCH  13  26
HETATM   26  O   UNL     1     -12.995  10.493  70.586  1.00  0.00    -0.366 OA 
BRANCH  26  27
HETATM   27  C   UNL     1     -13.177  10.303  71.984  1.00  0.00    -0.411 C  
HETATM   28  C   UNL     1     -14.027   9.081  72.284  1.00  0.00    -0.455 C  
HETATM   29  O   UNL     1     -14.382   8.387  71.181  1.00  0.00    -0.285 OA 
HETATM   30  O   UNL     1     -14.354   8.744  73.413  1.00  0.00    -0.108 OA 
ENDBRANCH  26  27
ENDBRANCH  13  26
TORSDOF 9
ENDMDL
MODEL       57
REMARK 921   NORMALIZED FREE ENERGY PREDICTED BY IDOCK:   -5.07 KCAL/MOL
REMARK 922        TOTAL FREE ENERGY PREDICTED BY IDOCK:   -9.83 KCAL/MOL
REMARK 923 INTER-LIGAND FREE ENERGY PREDICTED BY IDOCK:   -8.34 KCAL/MOL
REMARK 924 INTRA-LIGAND FREE ENERGY PREDICTED BY IDOCK:   -1.49 KCAL/MOL
REMARK 927      BINDING AFFINITY PREDICTED BY RF-SCORE:    0.00 PKD
ROOT
HETATM    1  C   UNL     1     -11.520  10.972  68.489  1.00  0.00    -0.379 C  
HETATM    2  C   UNL     1     -11.884  12.070  69.489  1.00  0.00    -0.390 C  
HETATM    3  C   UNL     1     -11.969  13.327  68.618  1.00  0.00    -0.310 C  
HETATM    4  O   UNL     1     -11.376  14.431  69.288  1.00  0.00    -0.257 OA 
HETATM    5  C   UNL     1     -11.180  13.026  67.316  1.00  0.00    -0.325 C  
HETATM    6  H   UNL     1     -11.429  15.211  68.747  1.00  0.00     0.000 HD 
HETATM    7  C   UNL     1      -7.355  10.625  69.507  1.00  0.00    -0.141 A  
HETATM    8  C   UNL     1     -10.508  11.656  67.585  1.00  0.00    -0.219 C  
HETATM    9  C   UNL     1      -6.859   9.603  70.301  1.00  0.00    -0.107 A  
HETATM   10  C   UNL     1      -9.150  11.824  68.283  1.00  0.00    -0.187 C  
HETATM   11  C   UNL     1      -7.720   8.606  70.747  1.00  0.00    -0.091 A  
HETATM   12  C   UNL     1      -8.709  10.654  69.135  1.00  0.00    -0.135 A  
HETATM   13  C   UNL     1      -9.087   8.621  70.425  1.00  0.00    -0.159 A  
HETATM   14  C   UNL     1      -9.605   9.655  69.605  1.00  0.00    -0.225 A  
HETATM   15  C   UNL     1     -11.025   9.674  69.099  1.00  0.00    -0.177 C  
ENDROOT
BRANCH   5  16
HETATM   16  C   UNL     1     -12.090  12.921  66.072  1.00  0.00    -0.484 C  
BRANCH  16  17
HETATM   17  C   UNL     1     -12.521  14.254  65.456  1.00  0.00    -0.434 C  
BRANCH  17  18
HETATM   18  C   UNL     1     -11.596  14.816  64.370  1.00  0.00    -0.295 C  
HETATM   19  O   UNL     1     -12.248  15.897  63.705  1.00  0.00    -1.213 OA 
HETATM   20  H   UNL     1     -11.676  16.246  63.033  1.00  0.00     0.000 HD 
BRANCH  18  21
HETATM   21  C   UNL     1     -10.289  15.363  64.963  1.00  0.00    -0.362 C  
BRANCH  21  22
HETATM   22  C   UNL     1     -10.525  16.442  66.020  1.00  0.00    -0.333 C  
BRANCH  22  23
HETATM   23  C   UNL     1      -9.430  16.465  67.083  1.00  0.00    -0.238 C  
BRANCH  23  24
HETATM   24  C   UNL     1      -8.447  15.318  66.843  1.00  0.00    -0.286 C  
HETATM   25  C   UNL     1      -7.046  15.674  67.306  1.00  0.00    -0.242 C  
ENDBRANCH  23  24
ENDBRANCH  22  23
ENDBRANCH  21  22
ENDBRANCH  18  21
ENDBRANCH  17  18
ENDBRANCH  16  17
ENDBRANCH   5  16
BRANCH  13  26
HETATM   26  O   UNL     1      -9.732   7.524  70.951  1.00  0.00    -0.173 OA 
BRANCH  26  27
HETATM   27  C   UNL     1      -9.286   7.012  72.201  1.00  0.00    -0.134 C  
HETATM   28  C   UNL     1     -10.348   7.144  73.278  1.00  0.00    -0.327 C  
HETATM   29  O   UNL     1     -11.514   7.654  72.827  1.00  0.00    -0.355 OA 
HETATM   30  O   UNL     1     -10.177   6.813  74.443  1.00  0.00    -0.355 OA 
ENDBRANCH  26  27
ENDBRANCH  13  26
TORSDOF 9
ENDMDL
MODEL       58
REMARK 921   NORMALIZED FREE ENERGY PREDICTED BY IDOCK:   -5.01 KCAL/MOL
REMARK 922        TOTAL FREE ENERGY PREDICTED BY IDOCK:   -9.74 KCAL/MOL
REMARK 923 INTER-LIGAND FREE ENERGY PREDICTED BY IDOCK:   -8.47 KCAL/MOL
REMARK 924 INTRA-LIGAND FREE ENERGY PREDICTED BY IDOCK:   -1.27 KCAL/MOL
REMARK 927      BINDING AFFINITY PREDICTED BY RF-SCORE:    0.00 PKD
ROOT
HETATM    1  C   UNL     1     -10.035  10.229  68.294  1.00  0.00    -0.166 C  
HETATM    2  C   UNL     1      -8.843  10.223  69.251  1.00  0.00    -0.186 C  
HETATM    3  C   UNL     1      -9.177   9.090  70.225  1.00  0.00    -0.202 C  
HETATM    4  O   UNL     1      -8.846   9.467  71.554  1.00  0.00    -0.262 OA 
HETATM    5  C   UNL     1     -10.707   8.846  70.123  1.00  0.00    -0.245 C  
HETATM    6  H   UNL     1      -9.053   8.764  72.158  1.00  0.00     0.000 HD 
HETATM    7  C   UNL     1     -12.042  13.679  69.899  1.00  0.00    -0.406 A  
HETATM    8  C   UNL     1     -11.217   9.997  69.220  1.00  0.00    -0.213 C  
HETATM    9  C   UNL     1     -11.982  14.929  69.302  1.00  0.00    -0.326 A  
HETATM   10  C   UNL     1     -11.545  11.252  70.043  1.00  0.00    -0.404 C  
HETATM   11  C   UNL     1     -11.298  15.078  68.100  1.00  0.00    -0.343 A  
HETATM   12  C   UNL     1     -11.437  12.564  69.297  1.00  0.00    -0.353 A  
HETATM   13  C   UNL     1     -10.650  13.994  67.486  1.00  0.00    -0.260 A  
HETATM   14  C   UNL     1     -10.712  12.708  68.082  1.00  0.00    -0.242 A  
HETATM   15  C   UNL     1     -10.165  11.467  67.426  1.00  0.00    -0.228 C  
ENDROOT
BRANCH   5  16
HETATM   16  C   UNL     1     -11.058   7.488  69.477  1.00  0.00    -0.063 C  
BRANCH  16  17
HETATM   17  C   UNL     1     -11.905   6.548  70.337  1.00  0.00    -0.378 C  
BRANCH  17  18
HETATM   18  C   UNL     1     -11.937   6.866  71.837  1.00  0.00    -0.327 C  
HETATM   19  O   UNL     1     -13.106   6.290  72.419  1.00  0.00    -0.516 OA 
HETATM   20  H   UNL     1     -13.126   6.487  73.347  1.00  0.00     0.000 HD 
BRANCH  18  21
HETATM   21  C   UNL     1     -10.723   6.277  72.571  1.00  0.00    -0.256 C  
BRANCH  21  22
HETATM   22  C   UNL     1     -10.490   4.803  72.240  1.00  0.00    -0.255 C  
BRANCH  22  23
HETATM   23  C   UNL     1      -9.078   4.537  71.727  1.00  0.00    -0.164 C  
BRANCH  23  24
HETATM   24  C   UNL     1      -9.111   4.273  70.222  1.00  0.00    -0.166 C  
HETATM   25  C   UNL     1      -8.145   5.173  69.474  1.00  0.00    -0.083 C  
ENDBRANCH  23  24
ENDBRANCH  22  23
ENDBRANCH  21  22
ENDBRANCH  18  21
ENDBRANCH  17  18
ENDBRANCH  16  17
ENDBRANCH   5  16
BRANCH  13  26
HETATM   26  O   UNL     1     -10.066  14.373  66.298  1.00  0.00    -0.276 OA 
BRANCH  26  27
HETATM   27  C   UNL     1     -10.432  15.626  65.734  1.00  0.00    -0.366 C  
HETATM   28  C   UNL     1     -11.370  15.463  64.552  1.00  0.00    -0.313 C  
HETATM   29  O   UNL     1     -11.720  14.181  64.313  1.00  0.00    -0.389 OA 
HETATM   30  O   UNL     1     -11.782  16.399  63.880  1.00  0.00    -1.085 OA 
ENDBRANCH  26  27
ENDBRANCH  13  26
TORSDOF 9
ENDMDL
MODEL       59
REMARK 921   NORMALIZED FREE ENERGY PREDICTED BY IDOCK:   -5.01 KCAL/MOL
REMARK 922        TOTAL FREE ENERGY PREDICTED BY IDOCK:   -9.74 KCAL/MOL
REMARK 923 INTER-LIGAND FREE ENERGY PREDICTED BY IDOCK:   -8.86 KCAL/MOL
REMARK 924 INTRA-LIGAND FREE ENERGY PREDICTED BY IDOCK:   -0.88 KCAL/MOL
REMARK 927      BINDING AFFINITY PREDICTED BY RF-SCORE:    0.00 PKD
ROOT
HETATM    1  C   UNL     1     -10.959  14.735  70.252  1.00  0.00    -0.135 C  
HETATM    2  C   UNL     1     -12.012  15.785  70.604  1.00  0.00    -0.426 C  
HETATM    3  C   UNL     1     -13.161  14.954  71.181  1.00  0.00    -0.414 C  
HETATM    4  O   UNL     1     -14.409  15.444  70.712  1.00  0.00    -0.842 OA 
HETATM    5  C   UNL     1     -12.957  13.498  70.684  1.00  0.00    -0.096 C  
HETATM    6  H   UNL     1     -15.122  14.928  71.070  1.00  0.00     0.000 HD 
HETATM    7  C   UNL     1     -11.599  14.680  65.998  1.00  0.00    -0.328 A  
HETATM    8  C   UNL     1     -11.787  13.601  69.672  1.00  0.00    -0.396 C  
HETATM    9  C   UNL     1     -10.764  15.333  65.105  1.00  0.00    -0.455 A  
HETATM   10  C   UNL     1     -12.294  13.935  68.261  1.00  0.00     0.003 C  
HETATM   11  C   UNL     1      -9.634  15.989  65.581  1.00  0.00    -0.226 A  
HETATM   12  C   UNL     1     -11.306  14.659  67.372  1.00  0.00    -0.368 A  
HETATM   13  C   UNL     1      -9.327  16.019  66.952  1.00  0.00    -0.228 A  
HETATM   14  C   UNL     1     -10.168  15.346  67.875  1.00  0.00    -0.239 A  
HETATM   15  C   UNL     1      -9.843  15.212  69.341  1.00  0.00    -0.216 C  
ENDROOT
BRANCH   5  16
HETATM   16  C   UNL     1     -12.575  12.522  71.818  1.00  0.00    -0.119 C  
BRANCH  16  17
HETATM   17  C   UNL     1     -13.511  11.325  72.001  1.00  0.00    -0.289 C  
BRANCH  17  18
HETATM   18  C   UNL     1     -12.954   9.969  71.549  1.00  0.00    -0.434 C  
HETATM   19  O   UNL     1     -13.834   9.395  70.584  1.00  0.00    -0.540 OA 
HETATM   20  H   UNL     1     -13.490   8.555  70.303  1.00  0.00     0.000 HD 
BRANCH  18  21
HETATM   21  C   UNL     1     -11.576  10.111  70.886  1.00  0.00    -0.459 C  
BRANCH  21  22
HETATM   22  C   UNL     1     -10.565   9.086  71.400  1.00  0.00    -0.393 C  
BRANCH  22  23
HETATM   23  C   UNL     1     -11.229   7.784  71.840  1.00  0.00    -0.310 C  
BRANCH  23  24
HETATM   24  C   UNL     1     -10.871   7.483  73.295  1.00  0.00    -0.409 C  
HETATM   25  C   UNL     1     -10.005   6.243  73.414  1.00  0.00    -0.194 C  
ENDBRANCH  23  24
ENDBRANCH  22  23
ENDBRANCH  21  22
ENDBRANCH  18  21
ENDBRANCH  17  18
ENDBRANCH  16  17
ENDBRANCH   5  16
BRANCH  13  26
HETATM   26  O   UNL     1      -8.152  16.698  67.183  1.00  0.00    -0.163 OA 
BRANCH  26  27
HETATM   27  C   UNL     1      -7.740  17.677  66.236  1.00  0.00    -0.289 C  
HETATM   28  C   UNL     1      -8.088  19.084  66.688  1.00  0.00    -0.274 C  
HETATM   29  O   UNL     1      -8.654  19.133  67.913  1.00  0.00    -0.290 OA 
HETATM   30  O   UNL     1      -7.871  20.084  66.018  1.00  0.00    -0.328 OA 
ENDBRANCH  26  27
ENDBRANCH  13  26
TORSDOF 9
ENDMDL
MODEL       60
REMARK 921   NORMALIZED FREE ENERGY PREDICTED BY IDOCK:   -4.99 KCAL/MOL
REMARK 922        TOTAL FREE ENERGY PREDICTED BY IDOCK:   -9.71 KCAL/MOL
REMARK 923 INTER-LIGAND FREE ENERGY PREDICTED BY IDOCK:   -8.02 KCAL/MOL
REMARK 924 INTRA-LIGAND FREE ENERGY PREDICTED BY IDOCK:   -1.70 KCAL/MOL
REMARK 927      BINDING AFFINITY PREDICTED BY RF-SCORE:    0.00 PKD
ROOT
HETATM    1  C   UNL     1     -10.963  14.846  70.251  1.00  0.00    -0.186 C  
HETATM    2  C   UNL     1     -12.003  15.906  70.609  1.00  0.00    -0.379 C  
HETATM    3  C   UNL     1     -13.164  15.084  71.178  1.00  0.00    -0.434 C  
HETATM    4  O   UNL     1     -14.405  15.594  70.710  1.00  0.00    -0.791 OA 
HETATM    5  C   UNL     1     -12.977  13.630  70.668  1.00  0.00    -0.134 C  
HETATM    6  H   UNL     1     -15.125  15.084  71.063  1.00  0.00     0.000 HD 
HETATM    7  C   UNL     1     -11.595  14.836  65.996  1.00  0.00    -0.286 A  
HETATM    8  C   UNL     1     -11.804  13.728  69.660  1.00  0.00    -0.393 C  
HETATM    9  C   UNL     1     -10.750  15.486  65.109  1.00  0.00    -0.460 A  
HETATM   10  C   UNL     1     -12.303  14.080  68.251  1.00  0.00    -0.012 C  
HETATM   11  C   UNL     1      -9.612  16.123  65.594  1.00  0.00    -0.185 A  
HETATM   12  C   UNL     1     -11.305  14.799  67.369  1.00  0.00    -0.361 A  
HETATM   13  C   UNL     1      -9.308  16.138  66.965  1.00  0.00    -0.218 A  
HETATM   14  C   UNL     1     -10.159  15.468  67.881  1.00  0.00    -0.224 A  
HETATM   15  C   UNL     1      -9.839  15.317  69.346  1.00  0.00    -0.253 C  
ENDROOT
BRANCH   5  16
HETATM   16  C   UNL     1     -12.609  12.640  71.795  1.00  0.00    -0.121 C  
BRANCH  16  17
HETATM   17  C   UNL     1     -13.404  11.333  71.809  1.00  0.00    -0.371 C  
BRANCH  17  18
HETATM   18  C   UNL     1     -12.629  10.077  71.391  1.00  0.00    -0.415 C  
HETATM   19  O   UNL     1     -13.540   8.992  71.223  1.00  0.00    -0.513 OA 
HETATM   20  H   UNL     1     -13.061   8.214  70.965  1.00  0.00     0.000 HD 
BRANCH  18  21
HETATM   21  C   UNL     1     -11.900  10.276  70.054  1.00  0.00    -0.305 C  
BRANCH  21  22
HETATM   22  C   UNL     1     -10.436   9.841  70.109  1.00  0.00    -0.338 C  
BRANCH  22  23
HETATM   23  C   UNL     1      -9.890   9.460  68.736  1.00  0.00    -0.172 C  
BRANCH  23  24
HETATM   24  C   UNL     1     -10.180  10.576  67.732  1.00  0.00    -0.223 C  
HETATM   25  C   UNL     1      -9.336  11.808  68.004  1.00  0.00    -0.184 C  
ENDBRANCH  23  24
ENDBRANCH  22  23
ENDBRANCH  21  22
ENDBRANCH  18  21
ENDBRANCH  17  18
ENDBRANCH  16  17
ENDBRANCH   5  16
BRANCH  13  26
HETATM   26  O   UNL     1      -8.126  16.801  67.204  1.00  0.00    -0.166 OA 
BRANCH  26  27
HETATM   27  C   UNL     1      -7.784  17.898  66.366  1.00  0.00    -0.276 C  
HETATM   28  C   UNL     1      -6.947  18.931  67.099  1.00  0.00    -0.203 C  
HETATM   29  O   UNL     1      -6.640  18.578  68.366  1.00  0.00    -0.215 OA 
HETATM   30  O   UNL     1      -6.573  19.982  66.596  1.00  0.00    -0.199 OA 
ENDBRANCH  26  27
ENDBRANCH  13  26
TORSDOF 9
ENDMDL
MODEL       61
REMARK 921   NORMALIZED FREE ENERGY PREDICTED BY IDOCK:   -4.99 KCAL/MOL
REMARK 922        TOTAL FREE ENERGY PREDICTED BY IDOCK:   -9.70 KCAL/MOL
REMARK 923 INTER-LIGAND FREE ENERGY PREDICTED BY IDOCK:   -8.90 KCAL/MOL
REMARK 924 INTRA-LIGAND FREE ENERGY PREDICTED BY IDOCK:   -0.80 KCAL/MOL
REMARK 927      BINDING AFFINITY PREDICTED BY RF-SCORE:    0.00 PKD
ROOT
HETATM    1  C   UNL     1     -12.293   7.360  70.970  1.00  0.00    -0.303 C  
HETATM    2  C   UNL     1     -13.487   7.232  71.915  1.00  0.00    -0.295 C  
HETATM    3  C   UNL     1     -13.911   8.685  72.148  1.00  0.00    -0.429 C  
HETATM    4  O   UNL     1     -14.246   8.888  73.514  1.00  0.00    -1.194 OA 
HETATM    5  C   UNL     1     -12.693   9.573  71.777  1.00  0.00    -0.492 C  
HETATM    6  H   UNL     1     -14.508   9.790  73.659  1.00  0.00     0.000 HD 
HETATM    7  C   UNL     1      -9.192   6.644  73.864  1.00  0.00    -0.189 A  
HETATM    8  C   UNL     1     -11.547   8.562  71.524  1.00  0.00    -0.352 C  
HETATM    9  C   UNL     1      -8.542   5.425  73.983  1.00  0.00    -0.115 A  
HETATM   10  C   UNL     1     -10.806   8.217  72.825  1.00  0.00    -0.390 C  
HETATM   11  C   UNL     1      -8.852   4.398  73.098  1.00  0.00    -0.107 A  
HETATM   12  C   UNL     1     -10.142   6.857  72.852  1.00  0.00    -0.212 A  
HETATM   13  C   UNL     1      -9.822   4.562  72.096  1.00  0.00    -0.177 A  
HETATM   14  C   UNL     1     -10.487   5.807  71.957  1.00  0.00    -0.267 A  
HETATM   15  C   UNL     1     -11.438   6.114  70.830  1.00  0.00    -0.321 C  
ENDROOT
BRANCH   5  16
HETATM   16  C   UNL     1     -12.929  10.416  70.504  1.00  0.00    -0.280 C  
BRANCH  16  17
HETATM   17  C   UNL     1     -12.046  11.658  70.363  1.00  0.00    -0.462 C  
BRANCH  17  18
HETATM   18  C   UNL     1     -11.565  11.975  68.942  1.00  0.00    -0.321 C  
HETATM   19  O   UNL     1     -12.147  11.048  68.027  1.00  0.00    -0.744 OA 
HETATM   20  H   UNL     1     -11.849  11.244  67.147  1.00  0.00     0.000 HD 
BRANCH  18  21
HETATM   21  C   UNL     1     -11.986  13.384  68.498  1.00  0.00    -0.363 C  
BRANCH  21  22
HETATM   22  C   UNL     1     -12.181  13.494  66.986  1.00  0.00    -0.351 C  
BRANCH  22  23
HETATM   23  C   UNL     1     -11.399  14.657  66.382  1.00  0.00    -0.348 C  
BRANCH  23  24
HETATM   24  C   UNL     1      -9.968  14.219  66.074  1.00  0.00    -0.337 C  
HETATM   25  C   UNL     1      -8.967  15.321  66.372  1.00  0.00    -0.339 C  
ENDBRANCH  23  24
ENDBRANCH  22  23
ENDBRANCH  21  22
ENDBRANCH  18  21
ENDBRANCH  17  18
ENDBRANCH  16  17
ENDBRANCH   5  16
BRANCH  13  26
HETATM   26  O   UNL     1      -9.938   3.426  71.327  1.00  0.00    -0.163 OA 
BRANCH  26  27
HETATM   27  C   UNL     1      -8.749   2.795  70.869  1.00  0.00    -0.071 C  
HETATM   28  C   UNL     1      -8.614   2.868  69.358  1.00  0.00    -0.068 C  
HETATM   29  O   UNL     1      -9.604   3.567  68.762  1.00  0.00    -0.159 OA 
HETATM   30  O   UNL     1      -7.695   2.356  68.734  1.00  0.00    -0.050 OA 
ENDBRANCH  26  27
ENDBRANCH  13  26
TORSDOF 9
ENDMDL
MODEL       62
REMARK 921   NORMALIZED FREE ENERGY PREDICTED BY IDOCK:   -4.98 KCAL/MOL
REMARK 922        TOTAL FREE ENERGY PREDICTED BY IDOCK:   -9.69 KCAL/MOL
REMARK 923 INTER-LIGAND FREE ENERGY PREDICTED BY IDOCK:   -7.72 KCAL/MOL
REMARK 924 INTRA-LIGAND FREE ENERGY PREDICTED BY IDOCK:   -1.97 KCAL/MOL
REMARK 927      BINDING AFFINITY PREDICTED BY RF-SCORE:    0.00 PKD
ROOT
HETATM    1  C   UNL     1      -9.442   8.053  70.232  1.00  0.00    -0.167 C  
HETATM    2  C   UNL     1      -8.713   7.654  71.514  1.00  0.00    -0.131 C  
HETATM    3  C   UNL     1      -8.096   6.297  71.163  1.00  0.00    -0.118 C  
HETATM    4  O   UNL     1      -8.228   5.398  72.256  1.00  0.00    -0.113 OA 
HETATM    5  C   UNL     1      -8.885   5.747  69.944  1.00  0.00    -0.130 C  
HETATM    6  H   UNL     1      -7.845   4.556  72.038  1.00  0.00     0.000 HD 
HETATM    7  C   UNL     1     -13.438   7.138  71.535  1.00  0.00    -0.411 A  
HETATM    8  C   UNL     1     -10.058   6.744  69.768  1.00  0.00    -0.198 C  
HETATM    9  C   UNL     1     -14.334   8.111  71.950  1.00  0.00    -0.566 A  
HETATM   10  C   UNL     1     -11.264   6.350  70.634  1.00  0.00    -0.400 C  
HETATM   11  C   UNL     1     -13.962   9.450  71.894  1.00  0.00    -0.302 A  
HETATM   12  C   UNL     1     -12.171   7.490  71.042  1.00  0.00    -0.288 A  
HETATM   13  C   UNL     1     -12.690   9.838  71.441  1.00  0.00    -0.387 A  
HETATM   14  C   UNL     1     -11.768   8.854  71.004  1.00  0.00    -0.340 A  
HETATM   15  C   UNL     1     -10.439   9.188  70.377  1.00  0.00    -0.268 C  
ENDROOT
BRANCH   5  16
HETATM   16  C   UNL     1      -8.042   5.708  68.651  1.00  0.00    -0.100 C  
BRANCH  16  17
HETATM   17  C   UNL     1      -8.821   5.913  67.350  1.00  0.00    -0.106 C  
BRANCH  17  18
HETATM   18  C   UNL     1      -8.157   6.828  66.313  1.00  0.00    -0.112 C  
HETATM   19  O   UNL     1      -8.865   6.736  65.077  1.00  0.00    -0.357 OA 
HETATM   20  H   UNL     1      -8.454   7.302  64.436  1.00  0.00     0.000 HD 
BRANCH  18  21
HETATM   21  C   UNL     1      -8.188   8.300  66.751  1.00  0.00    -0.103 C  
BRANCH  21  22
HETATM   22  C   UNL     1      -9.591   8.905  66.692  1.00  0.00    -0.281 C  
BRANCH  22  23
HETATM   23  C   UNL     1      -9.600  10.390  67.043  1.00  0.00    -0.197 C  
BRANCH  23  24
HETATM   24  C   UNL     1     -10.978  10.985  66.756  1.00  0.00    -0.279 C  
HETATM   25  C   UNL     1     -11.539  11.711  67.965  1.00  0.00    -0.383 C  
ENDBRANCH  23  24
ENDBRANCH  22  23
ENDBRANCH  21  22
ENDBRANCH  18  21
ENDBRANCH  17  18
ENDBRANCH  16  17
ENDBRANCH   5  16
BRANCH  13  26
HETATM   26  O   UNL     1     -12.559  11.209  71.448  1.00  0.00    -0.385 OA 
BRANCH  26  27
HETATM   27  C   UNL     1     -13.504  11.976  72.184  1.00  0.00    -0.233 C  
HETATM   28  C   UNL     1     -13.266  13.467  72.030  1.00  0.00    -0.439 C  
HETATM   29  O   UNL     1     -12.258  13.768  71.184  1.00  0.00    -0.349 OA 
HETATM   30  O   UNL     1     -13.926  14.321  72.606  1.00  0.00    -0.580 OA 
ENDBRANCH  26  27
ENDBRANCH  13  26
TORSDOF 9
ENDMDL
MODEL       63
REMARK 921   NORMALIZED FREE ENERGY PREDICTED BY IDOCK:   -4.98 KCAL/MOL
REMARK 922        TOTAL FREE ENERGY PREDICTED BY IDOCK:   -9.69 KCAL/MOL
REMARK 923 INTER-LIGAND FREE ENERGY PREDICTED BY IDOCK:   -8.59 KCAL/MOL
REMARK 924 INTRA-LIGAND FREE ENERGY PREDICTED BY IDOCK:   -1.10 KCAL/MOL
REMARK 927      BINDING AFFINITY PREDICTED BY RF-SCORE:    0.00 PKD
ROOT
HETATM    1  C   UNL     1     -10.235  11.045  68.266  1.00  0.00    -0.192 C  
HETATM    2  C   UNL     1      -8.714  11.192  68.226  1.00  0.00    -0.151 C  
HETATM    3  C   UNL     1      -8.474  12.034  66.969  1.00  0.00    -0.183 C  
HETATM    4  O   UNL     1      -7.351  11.541  66.252  1.00  0.00    -0.358 OA 
HETATM    5  C   UNL     1      -9.747  11.903  66.090  1.00  0.00    -0.251 C  
HETATM    6  H   UNL     1      -7.202  12.063  65.472  1.00  0.00     0.000 HD 
HETATM    7  C   UNL     1     -10.458   6.991  66.843  1.00  0.00    -0.356 A  
HETATM    8  C   UNL     1     -10.595  10.823  66.807  1.00  0.00    -0.307 C  
HETATM    9  C   UNL     1     -10.664   5.910  67.686  1.00  0.00    -0.352 A  
HETATM   10  C   UNL     1     -10.216   9.410  66.340  1.00  0.00    -0.300 C  
HETATM   11  C   UNL     1     -10.869   6.132  69.043  1.00  0.00    -0.416 A  
HETATM   12  C   UNL     1     -10.471   8.304  67.342  1.00  0.00    -0.353 A  
HETATM   13  C   UNL     1     -10.855   7.428  69.584  1.00  0.00    -0.210 A  
HETATM   14  C   UNL     1     -10.655   8.544  68.731  1.00  0.00    -0.162 A  
HETATM   15  C   UNL     1     -10.759   9.971  69.202  1.00  0.00    -0.244 C  
ENDROOT
BRANCH   5  16
HETATM   16  C   UNL     1     -10.553  13.217  65.999  1.00  0.00    -0.292 C  
BRANCH  16  17
HETATM   17  C   UNL     1      -9.977  14.399  66.781  1.00  0.00    -0.265 C  
BRANCH  17  18
HETATM   18  C   UNL     1     -10.693  14.741  68.094  1.00  0.00    -0.247 C  
HETATM   19  O   UNL     1      -9.797  14.547  69.187  1.00  0.00    -0.348 OA 
HETATM   20  H   UNL     1     -10.240  14.759  70.000  1.00  0.00     0.000 HD 
BRANCH  18  21
HETATM   21  C   UNL     1     -11.150  16.207  68.129  1.00  0.00    -0.332 C  
BRANCH  21  22
HETATM   22  C   UNL     1     -10.329  17.059  69.097  1.00  0.00    -0.313 C  
BRANCH  22  23
HETATM   23  C   UNL     1      -9.995  18.433  68.523  1.00  0.00    -0.415 C  
BRANCH  23  24
HETATM   24  C   UNL     1     -10.647  18.597  67.151  1.00  0.00    -0.468 C  
HETATM   25  C   UNL     1     -10.159  19.848  66.444  1.00  0.00    -0.615 C  
ENDBRANCH  23  24
ENDBRANCH  22  23
ENDBRANCH  21  22
ENDBRANCH  18  21
ENDBRANCH  17  18
ENDBRANCH  16  17
ENDBRANCH   5  16
BRANCH  13  26
HETATM   26  O   UNL     1     -11.107   7.404  70.937  1.00  0.00    -0.252 OA 
BRANCH  26  27
HETATM   27  C   UNL     1     -11.278   6.142  71.571  1.00  0.00    -0.288 C  
HETATM   28  C   UNL     1     -10.960   6.206  73.054  1.00  0.00    -0.249 C  
HETATM   29  O   UNL     1     -10.646   7.446  73.486  1.00  0.00    -0.376 OA 
HETATM   30  O   UNL     1     -10.992   5.234  73.797  1.00  0.00    -0.295 OA 
ENDBRANCH  26  27
ENDBRANCH  13  26
TORSDOF 9
ENDMDL
MODEL       64
REMARK 921   NORMALIZED FREE ENERGY PREDICTED BY IDOCK:   -4.95 KCAL/MOL
REMARK 922        TOTAL FREE ENERGY PREDICTED BY IDOCK:   -9.65 KCAL/MOL
REMARK 923 INTER-LIGAND FREE ENERGY PREDICTED BY IDOCK:   -8.48 KCAL/MOL
REMARK 924 INTRA-LIGAND FREE ENERGY PREDICTED BY IDOCK:   -1.17 KCAL/MOL
REMARK 927      BINDING AFFINITY PREDICTED BY RF-SCORE:    0.00 PKD
ROOT
HETATM    1  C   UNL     1     -10.640  14.862  66.604  1.00  0.00    -0.305 C  
HETATM    2  C   UNL     1     -10.489  14.730  65.089  1.00  0.00    -0.443 C  
HETATM    3  C   UNL     1     -10.697  13.232  64.843  1.00  0.00    -0.351 C  
HETATM    4  O   UNL     1      -9.769  12.757  63.878  1.00  0.00    -0.681 OA 
HETATM    5  C   UNL     1     -10.449  12.516  66.197  1.00  0.00    -0.272 C  
HETATM    6  H   UNL     1      -9.898  11.828  63.726  1.00  0.00     0.000 HD 
HETATM    7  C   UNL     1      -6.464  15.243  67.565  1.00  0.00    -0.158 A  
HETATM    8  C   UNL     1      -9.916  13.634  67.128  1.00  0.00    -0.247 C  
HETATM    9  C   UNL     1      -5.867  16.461  67.853  1.00  0.00    -0.140 A  
HETATM   10  C   UNL     1      -8.392  13.782  67.010  1.00  0.00    -0.107 C  
HETATM   11  C   UNL     1      -6.649  17.611  67.895  1.00  0.00    -0.190 A  
HETATM   12  C   UNL     1      -7.846  15.156  67.335  1.00  0.00    -0.224 A  
HETATM   13  C   UNL     1      -8.029  17.568  67.636  1.00  0.00    -0.202 A  
HETATM   14  C   UNL     1      -8.653  16.327  67.350  1.00  0.00    -0.194 A  
HETATM   15  C   UNL     1     -10.144  16.170  67.195  1.00  0.00    -0.269 C  
ENDROOT
BRANCH   5  16
HETATM   16  C   UNL     1     -11.735  11.909  66.801  1.00  0.00    -0.281 C  
BRANCH  16  17
HETATM   17  C   UNL     1     -11.708  11.680  68.314  1.00  0.00    -0.374 C  
BRANCH  17  18
HETATM   18  C   UNL     1     -11.367  10.255  68.766  1.00  0.00    -0.167 C  
HETATM   19  O   UNL     1     -11.376   9.384  67.636  1.00  0.00    -0.397 OA 
HETATM   20  H   UNL     1     -11.165   8.502  67.916  1.00  0.00     0.000 HD 
BRANCH  18  21
HETATM   21  C   UNL     1      -9.968  10.176  69.396  1.00  0.00    -0.247 C  
BRANCH  21  22
HETATM   22  C   UNL     1      -9.992   9.629  70.823  1.00  0.00    -0.260 C  
BRANCH  22  23
HETATM   23  C   UNL     1     -10.957   8.457  70.981  1.00  0.00    -0.288 C  
BRANCH  23  24
HETATM   24  C   UNL     1     -11.874   8.696  72.180  1.00  0.00    -0.447 C  
HETATM   25  C   UNL     1     -12.814   9.864  71.944  1.00  0.00    -0.524 C  
ENDBRANCH  23  24
ENDBRANCH  22  23
ENDBRANCH  21  22
ENDBRANCH  18  21
ENDBRANCH  17  18
ENDBRANCH  16  17
ENDBRANCH   5  16
BRANCH  13  26
HETATM   26  O   UNL     1      -8.596  18.817  67.762  1.00  0.00    -0.276 OA 
BRANCH  26  27
HETATM   27  C   UNL     1      -8.734  19.618  66.595  1.00  0.00    -0.349 C  
HETATM   28  C   UNL     1     -10.190  19.837  66.226  1.00  0.00    -0.509 C  
HETATM   29  O   UNL     1     -11.057  19.290  67.105  1.00  0.00    -0.425 OA 
HETATM   30  O   UNL     1     -10.553  20.456  65.236  1.00  0.00    -0.152 OA 
ENDBRANCH  26  27
ENDBRANCH  13  26
TORSDOF 9
ENDMDL
MODEL       65
REMARK 921   NORMALIZED FREE ENERGY PREDICTED BY IDOCK:   -4.91 KCAL/MOL
REMARK 922        TOTAL FREE ENERGY PREDICTED BY IDOCK:   -9.59 KCAL/MOL
REMARK 923 INTER-LIGAND FREE ENERGY PREDICTED BY IDOCK:   -8.63 KCAL/MOL
REMARK 924 INTRA-LIGAND FREE ENERGY PREDICTED BY IDOCK:   -0.96 KCAL/MOL
REMARK 927      BINDING AFFINITY PREDICTED BY RF-SCORE:    0.00 PKD
ROOT
HETATM    1  C   UNL     1     -10.244  11.818  68.023  1.00  0.00    -0.202 C  
HETATM    2  C   UNL     1     -11.254  11.715  66.881  1.00  0.00    -0.376 C  
HETATM    3  C   UNL     1     -11.506  13.176  66.498  1.00  0.00    -0.338 C  
HETATM    4  O   UNL     1     -12.887  13.389  66.244  1.00  0.00    -0.206 OA 
HETATM    5  C   UNL     1     -11.064  14.040  67.710  1.00  0.00    -0.284 C  
HETATM    6  H   UNL     1     -13.043  14.296  66.007  1.00  0.00     0.000 HD 
HETATM    7  C   UNL     1     -12.964  11.051  71.267  1.00  0.00    -0.472 A  
HETATM    8  C   UNL     1     -10.751  13.006  68.822  1.00  0.00    -0.250 C  
HETATM    9  C   UNL     1     -13.051   9.820  71.899  1.00  0.00    -0.544 A  
HETATM   10  C   UNL     1     -12.010  12.651  69.627  1.00  0.00    -0.352 C  
HETATM   11  C   UNL     1     -12.189   8.797  71.521  1.00  0.00    -0.382 A  
HETATM   12  C   UNL     1     -12.006  11.279  70.266  1.00  0.00    -0.466 A  
HETATM   13  C   UNL     1     -11.241   8.976  70.500  1.00  0.00    -0.260 A  
HETATM   14  C   UNL     1     -11.135  10.233  69.852  1.00  0.00    -0.362 A  
HETATM   15  C   UNL     1     -10.061  10.555  68.845  1.00  0.00    -0.215 C  
ENDROOT
BRANCH   5  16
HETATM   16  C   UNL     1      -9.803  14.884  67.420  1.00  0.00    -0.221 C  
BRANCH  16  17
HETATM   17  C   UNL     1     -10.014  16.399  67.402  1.00  0.00    -0.251 C  
BRANCH  17  18
HETATM   18  C   UNL     1      -9.428  17.139  66.193  1.00  0.00    -0.201 C  
HETATM   19  O   UNL     1     -10.461  17.375  65.236  1.00  0.00    -0.654 OA 
HETATM   20  H   UNL     1     -10.098  17.833  64.488  1.00  0.00     0.000 HD 
BRANCH  18  21
HETATM   21  C   UNL     1      -8.848  18.505  66.588  1.00  0.00    -0.300 C  
BRANCH  21  22
HETATM   22  C   UNL     1      -8.768  18.698  68.102  1.00  0.00    -0.336 C  
BRANCH  22  23
HETATM   23  C   UNL     1      -7.555  19.524  68.521  1.00  0.00    -0.378 C  
BRANCH  23  24
HETATM   24  C   UNL     1      -6.562  18.644  69.280  1.00  0.00    -0.278 C  
HETATM   25  C   UNL     1      -6.893  17.170  69.133  1.00  0.00    -0.236 C  
ENDBRANCH  23  24
ENDBRANCH  22  23
ENDBRANCH  21  22
ENDBRANCH  18  21
ENDBRANCH  17  18
ENDBRANCH  16  17
ENDBRANCH   5  16
BRANCH  13  26
HETATM   26  O   UNL     1     -10.484   7.840  70.321  1.00  0.00    -0.215 OA 
BRANCH  26  27
HETATM   27  C   UNL     1     -11.049   6.760  69.589  1.00  0.00    -0.292 C  
HETATM   28  C   UNL     1     -10.302   6.501  68.293  1.00  0.00    -0.190 C  
HETATM   29  O   UNL     1      -9.222   7.294  68.125  1.00  0.00    -0.134 OA 
HETATM   30  O   UNL     1     -10.632   5.650  67.478  1.00  0.00    -0.233 OA 
ENDBRANCH  26  27
ENDBRANCH  13  26
TORSDOF 9
ENDMDL
MODEL       66
REMARK 921   NORMALIZED FREE ENERGY PREDICTED BY IDOCK:   -4.91 KCAL/MOL
REMARK 922        TOTAL FREE ENERGY PREDICTED BY IDOCK:   -9.59 KCAL/MOL
REMARK 923 INTER-LIGAND FREE ENERGY PREDICTED BY IDOCK:   -7.77 KCAL/MOL
REMARK 924 INTRA-LIGAND FREE ENERGY PREDICTED BY IDOCK:   -1.82 KCAL/MOL
REMARK 927      BINDING AFFINITY PREDICTED BY RF-SCORE:    0.00 PKD
ROOT
HETATM    1  C   UNL     1      -9.833  11.141  67.892  1.00  0.00    -0.187 C  
HETATM    2  C   UNL     1      -8.771  10.966  68.978  1.00  0.00    -0.108 C  
HETATM    3  C   UNL     1      -9.137   9.623  69.616  1.00  0.00    -0.210 C  
HETATM    4  O   UNL     1      -9.002   9.695  71.029  1.00  0.00    -0.345 OA 
HETATM    5  C   UNL     1     -10.620   9.341  69.252  1.00  0.00    -0.234 C  
HETATM    6  H   UNL     1      -9.229   8.861  71.425  1.00  0.00     0.000 HD 
HETATM    7  C   UNL     1     -12.277  14.029  69.941  1.00  0.00    -0.399 A  
HETATM    8  C   UNL     1     -11.100  10.647  68.570  1.00  0.00    -0.318 C  
HETATM    9  C   UNL     1     -12.238  15.385  69.654  1.00  0.00    -0.312 A  
HETATM   10  C   UNL     1     -11.621  11.660  69.601  1.00  0.00    -0.401 C  
HETATM   11  C   UNL     1     -11.423  15.840  68.623  1.00  0.00    -0.389 A  
HETATM   12  C   UNL     1     -11.520  13.113  69.192  1.00  0.00    -0.358 A  
HETATM   13  C   UNL     1     -10.625  14.959  67.875  1.00  0.00    -0.254 A  
HETATM   14  C   UNL     1     -10.664  13.569  68.152  1.00  0.00    -0.265 A  
HETATM   15  C   UNL     1      -9.948  12.540  67.315  1.00  0.00    -0.211 C  
ENDROOT
BRANCH   5  16
HETATM   16  C   UNL     1     -10.785   8.157  68.275  1.00  0.00    -0.073 C  
BRANCH  16  17
HETATM   17  C   UNL     1      -9.546   7.279  68.087  1.00  0.00    -0.145 C  
BRANCH  17  18
HETATM   18  C   UNL     1      -9.045   7.133  66.645  1.00  0.00    -0.149 C  
HETATM   19  O   UNL     1      -9.858   6.184  65.955  1.00  0.00    -0.378 OA 
HETATM   20  H   UNL     1      -9.549   6.094  65.062  1.00  0.00     0.000 HD 
BRANCH  18  21
HETATM   21  C   UNL     1      -9.132   8.459  65.874  1.00  0.00    -0.225 C  
BRANCH  21  22
HETATM   22  C   UNL     1      -7.916   8.703  64.981  1.00  0.00    -0.131 C  
BRANCH  22  23
HETATM   23  C   UNL     1      -6.599   8.452  65.709  1.00  0.00    -0.053 C  
BRANCH  23  24
HETATM   24  C   UNL     1      -6.337   9.574  66.713  1.00  0.00    -0.066 C  
HETATM   25  C   UNL     1      -6.111  10.906  66.020  1.00  0.00    -0.122 C  
ENDBRANCH  23  24
ENDBRANCH  22  23
ENDBRANCH  21  22
ENDBRANCH  18  21
ENDBRANCH  17  18
ENDBRANCH  16  17
ENDBRANCH   5  16
BRANCH  13  26
HETATM   26  O   UNL     1      -9.929  15.630  66.895  1.00  0.00    -0.239 OA 
BRANCH  26  27
HETATM   27  C   UNL     1     -10.637  16.546  66.069  1.00  0.00    -0.253 C  
HETATM   28  C   UNL     1     -11.032  15.923  64.742  1.00  0.00    -0.375 C  
HETATM   29  O   UNL     1     -10.696  14.620  64.637  1.00  0.00    -0.393 OA 
HETATM   30  O   UNL     1     -11.609  16.533  63.852  1.00  0.00    -1.175 OA 
ENDBRANCH  26  27
ENDBRANCH  13  26
TORSDOF 9
ENDMDL
MODEL       67
REMARK 921   NORMALIZED FREE ENERGY PREDICTED BY IDOCK:   -4.89 KCAL/MOL
REMARK 922        TOTAL FREE ENERGY PREDICTED BY IDOCK:   -9.56 KCAL/MOL
REMARK 923 INTER-LIGAND FREE ENERGY PREDICTED BY IDOCK:   -7.96 KCAL/MOL
REMARK 924 INTRA-LIGAND FREE ENERGY PREDICTED BY IDOCK:   -1.60 KCAL/MOL
REMARK 927      BINDING AFFINITY PREDICTED BY RF-SCORE:    0.00 PKD
ROOT
HETATM    1  C   UNL     1     -10.220   8.031  68.036  1.00  0.00    -0.260 C  
HETATM    2  C   UNL     1     -11.213   7.033  67.441  1.00  0.00    -0.150 C  
HETATM    3  C   UNL     1     -10.380   5.758  67.282  1.00  0.00    -0.230 C  
HETATM    4  O   UNL     1     -10.679   5.125  66.046  1.00  0.00    -0.512 OA 
HETATM    5  C   UNL     1      -8.889   6.191  67.294  1.00  0.00    -0.107 C  
HETATM    6  H   UNL     1     -10.161   4.334  65.947  1.00  0.00     0.000 HD 
HETATM    7  C   UNL     1      -9.461  10.290  64.455  1.00  0.00    -0.356 A  
HETATM    8  C   UNL     1      -8.941   7.739  67.270  1.00  0.00    -0.136 C  
HETATM    9  C   UNL     1     -10.042  11.525  64.208  1.00  0.00    -0.338 A  
HETATM   10  C   UNL     1      -9.010   8.275  65.832  1.00  0.00    -0.208 C  
HETATM   11  C   UNL     1     -10.861  12.098  65.175  1.00  0.00    -0.343 A  
HETATM   12  C   UNL     1      -9.675   9.625  65.673  1.00  0.00    -0.363 A  
HETATM   13  C   UNL     1     -11.127  11.447  66.390  1.00  0.00    -0.240 A  
HETATM   14  C   UNL     1     -10.531  10.189  66.659  1.00  0.00    -0.254 A  
HETATM   15  C   UNL     1     -10.651   9.485  67.987  1.00  0.00    -0.282 C  
ENDROOT
BRANCH   5  16
HETATM   16  C   UNL     1      -8.136   5.719  68.558  1.00  0.00    -0.108 C  
BRANCH  16  17
HETATM   17  C   UNL     1      -9.001   5.053  69.630  1.00  0.00    -0.133 C  
BRANCH  17  18
HETATM   18  C   UNL     1      -9.154   5.833  70.941  1.00  0.00    -0.145 C  
HETATM   19  O   UNL     1      -8.219   6.911  70.964  1.00  0.00    -0.116 OA 
HETATM   20  H   UNL     1      -8.314   7.394  71.776  1.00  0.00     0.000 HD 
BRANCH  18  21
HETATM   21  C   UNL     1     -10.558   6.441  71.082  1.00  0.00    -0.282 C  
BRANCH  21  22
HETATM   22  C   UNL     1     -10.727   7.245  72.371  1.00  0.00    -0.283 C  
BRANCH  22  23
HETATM   23  C   UNL     1     -12.036   8.030  72.399  1.00  0.00    -0.405 C  
BRANCH  23  24
HETATM   24  C   UNL     1     -13.126   7.252  71.663  1.00  0.00    -0.417 C  
HETATM   25  C   UNL     1     -14.390   8.076  71.499  1.00  0.00    -0.546 C  
ENDBRANCH  23  24
ENDBRANCH  22  23
ENDBRANCH  21  22
ENDBRANCH  18  21
ENDBRANCH  17  18
ENDBRANCH  16  17
ENDBRANCH   5  16
BRANCH  13  26
HETATM   26  O   UNL     1     -11.937  12.215  67.197  1.00  0.00    -0.580 OA 
BRANCH  26  27
HETATM   27  C   UNL     1     -11.421  13.439  67.706  1.00  0.00    -0.316 C  
HETATM   28  C   UNL     1     -11.586  13.542  69.211  1.00  0.00    -0.316 C  
HETATM   29  O   UNL     1     -12.123  12.437  69.772  1.00  0.00    -0.285 OA 
HETATM   30  O   UNL     1     -11.258  14.523  69.864  1.00  0.00    -0.248 OA 
ENDBRANCH  26  27
ENDBRANCH  13  26
TORSDOF 9
ENDMDL
MODEL       68
REMARK 921   NORMALIZED FREE ENERGY PREDICTED BY IDOCK:   -4.84 KCAL/MOL
REMARK 922        TOTAL FREE ENERGY PREDICTED BY IDOCK:   -9.48 KCAL/MOL
REMARK 923 INTER-LIGAND FREE ENERGY PREDICTED BY IDOCK:   -7.14 KCAL/MOL
REMARK 924 INTRA-LIGAND FREE ENERGY PREDICTED BY IDOCK:   -2.34 KCAL/MOL
REMARK 927      BINDING AFFINITY PREDICTED BY RF-SCORE:    0.00 PKD
ROOT
HETATM    1  C   UNL     1      -8.055   9.509  68.932  1.00  0.00    -0.096 C  
HETATM    2  C   UNL     1      -7.217  10.576  69.636  1.00  0.00    -0.148 C  
HETATM    3  C   UNL     1      -6.123   9.762  70.335  1.00  0.00    -0.075 C  
HETATM    4  O   UNL     1      -5.884  10.274  71.638  1.00  0.00    -0.302 OA 
HETATM    5  C   UNL     1      -6.647   8.304  70.440  1.00  0.00    -0.036 C  
HETATM    6  H   UNL     1      -5.206   9.769  72.072  1.00  0.00     0.000 HD 
HETATM    7  C   UNL     1     -11.367   9.479  71.677  1.00  0.00    -0.411 A  
HETATM    8  C   UNL     1      -8.117   8.391  69.959  1.00  0.00    -0.115 C  
HETATM    9  C   UNL     1     -12.568  10.121  71.413  1.00  0.00    -0.526 A  
HETATM   10  C   UNL     1      -9.066   8.738  71.116  1.00  0.00    -0.285 C  
HETATM   11  C   UNL     1     -12.747  10.756  70.189  1.00  0.00    -0.232 A  
HETATM   12  C   UNL     1     -10.342   9.448  70.718  1.00  0.00    -0.366 A  
HETATM   13  C   UNL     1     -11.731  10.776  69.218  1.00  0.00    -0.303 A  
HETATM   14  C   UNL     1     -10.503  10.115  69.472  1.00  0.00    -0.263 A  
HETATM   15  C   UNL     1      -9.414   9.971  68.440  1.00  0.00    -0.146 C  
ENDROOT
BRANCH   5  16
HETATM   16  C   UNL     1      -5.867   7.318  69.543  1.00  0.00    -0.023 C  
BRANCH  16  17
HETATM   17  C   UNL     1      -6.716   6.269  68.823  1.00  0.00    -0.061 C  
BRANCH  17  18
HETATM   18  C   UNL     1      -6.680   4.857  69.423  1.00  0.00    -0.051 C  
HETATM   19  O   UNL     1      -6.611   4.949  70.846  1.00  0.00    -0.032 OA 
HETATM   20  H   UNL     1      -6.589   4.076  71.217  1.00  0.00     0.000 HD 
BRANCH  18  21
HETATM   21  C   UNL     1      -7.944   4.058  69.075  1.00  0.00    -0.057 C  
BRANCH  21  22
HETATM   22  C   UNL     1      -9.088   4.945  68.585  1.00  0.00    -0.145 C  
BRANCH  22  23
HETATM   23  C   UNL     1     -10.036   5.348  69.711  1.00  0.00    -0.294 C  
BRANCH  23  24
HETATM   24  C   UNL     1     -11.175   6.202  69.153  1.00  0.00    -0.409 C  
HETATM   25  C   UNL     1     -10.974   6.512  67.682  1.00  0.00    -0.426 C  
ENDBRANCH  23  24
ENDBRANCH  22  23
ENDBRANCH  21  22
ENDBRANCH  18  21
ENDBRANCH  17  18
ENDBRANCH  16  17
ENDBRANCH   5  16
BRANCH  13  26
HETATM   26  O   UNL     1     -12.144  11.436  68.083  1.00  0.00    -0.623 OA 
BRANCH  26  27
HETATM   27  C   UNL     1     -11.905  12.835  67.988  1.00  0.00    -0.336 C  
HETATM   28  C   UNL     1     -12.108  13.350  66.574  1.00  0.00    -0.388 C  
HETATM   29  O   UNL     1     -12.535  12.403  65.711  1.00  0.00    -0.615 OA 
HETATM   30  O   UNL     1     -11.917  14.511  66.242  1.00  0.00    -0.382 OA 
ENDBRANCH  26  27
ENDBRANCH  13  26
TORSDOF 9
ENDMDL
MODEL       69
REMARK 921   NORMALIZED FREE ENERGY PREDICTED BY IDOCK:   -4.79 KCAL/MOL
REMARK 922        TOTAL FREE ENERGY PREDICTED BY IDOCK:   -9.41 KCAL/MOL
REMARK 923 INTER-LIGAND FREE ENERGY PREDICTED BY IDOCK:   -8.38 KCAL/MOL
REMARK 924 INTRA-LIGAND FREE ENERGY PREDICTED BY IDOCK:   -1.02 KCAL/MOL
REMARK 927      BINDING AFFINITY PREDICTED BY RF-SCORE:    0.00 PKD
ROOT
HETATM    1  C   UNL     1     -10.855   9.371  69.162  1.00  0.00    -0.176 C  
HETATM    2  C   UNL     1      -9.468   9.417  69.803  1.00  0.00    -0.216 C  
HETATM    3  C   UNL     1      -9.557   8.367  70.915  1.00  0.00    -0.175 C  
HETATM    4  O   UNL     1      -8.916   8.839  72.091  1.00  0.00    -0.336 OA 
HETATM    5  C   UNL     1     -11.066   8.144  71.202  1.00  0.00    -0.279 C  
HETATM    6  H   UNL     1      -8.972   8.188  72.781  1.00  0.00     0.000 HD 
HETATM    7  C   UNL     1     -12.419  12.970  70.925  1.00  0.00    -0.396 A  
HETATM    8  C   UNL     1     -11.779   9.233  70.360  1.00  0.00    -0.157 C  
HETATM    9  C   UNL     1     -12.506  14.169  70.234  1.00  0.00    -0.416 A  
HETATM   10  C   UNL     1     -11.901  10.552  71.136  1.00  0.00    -0.391 C  
HETATM   11  C   UNL     1     -12.130  14.213  68.896  1.00  0.00    -0.339 A  
HETATM   12  C   UNL     1     -11.976  11.801  70.285  1.00  0.00    -0.429 A  
HETATM   13  C   UNL     1     -11.649  13.073  68.231  1.00  0.00    -0.340 A  
HETATM   14  C   UNL     1     -11.565  11.839  68.924  1.00  0.00    -0.370 A  
HETATM   15  C   UNL     1     -11.191  10.541  68.255  1.00  0.00    -0.354 C  
ENDROOT
BRANCH   5  16
HETATM   16  C   UNL     1     -11.562   6.747  70.767  1.00  0.00    -0.418 C  
BRANCH  16  17
HETATM   17  C   UNL     1     -10.566   5.920  69.951  1.00  0.00    -0.370 C  
BRANCH  17  18
HETATM   18  C   UNL     1      -9.605   5.044  70.764  1.00  0.00    -0.180 C  
HETATM   19  O   UNL     1     -10.038   3.685  70.706  1.00  0.00    -0.045 OA 
HETATM   20  H   UNL     1      -9.443   3.143  71.209  1.00  0.00     0.000 HD 
BRANCH  18  21
HETATM   21  C   UNL     1      -8.176   5.094  70.203  1.00  0.00    -0.086 C  
BRANCH  21  22
HETATM   22  C   UNL     1      -8.132   5.525  68.737  1.00  0.00    -0.099 C  
BRANCH  22  23
HETATM   23  C   UNL     1      -7.888   4.351  67.793  1.00  0.00    -0.084 C  
BRANCH  23  24
HETATM   24  C   UNL     1      -9.187   3.979  67.078  1.00  0.00    -0.186 C  
HETATM   25  C   UNL     1      -9.314   4.687  65.741  1.00  0.00    -0.158 C  
ENDBRANCH  23  24
ENDBRANCH  22  23
ENDBRANCH  21  22
ENDBRANCH  18  21
ENDBRANCH  17  18
ENDBRANCH  16  17
ENDBRANCH   5  16
BRANCH  13  26
HETATM   26  O   UNL     1     -11.367  13.350  66.912  1.00  0.00    -0.302 OA 
BRANCH  26  27
HETATM   27  C   UNL     1     -12.321  14.087  66.157  1.00  0.00    -0.458 C  
HETATM   28  C   UNL     1     -12.004  14.069  64.673  1.00  0.00    -0.430 C  
HETATM   29  O   UNL     1     -10.932  13.311  64.359  1.00  0.00    -0.358 OA 
HETATM   30  O   UNL     1     -12.659  14.672  63.833  1.00  0.00    -0.834 OA 
ENDBRANCH  26  27
ENDBRANCH  13  26
TORSDOF 9
ENDMDL
MODEL       70
REMARK 921   NORMALIZED FREE ENERGY PREDICTED BY IDOCK:   -4.75 KCAL/MOL
REMARK 922        TOTAL FREE ENERGY PREDICTED BY IDOCK:   -9.35 KCAL/MOL
REMARK 923 INTER-LIGAND FREE ENERGY PREDICTED BY IDOCK:   -8.00 KCAL/MOL
REMARK 924 INTRA-LIGAND FREE ENERGY PREDICTED BY IDOCK:   -1.35 KCAL/MOL
REMARK 927      BINDING AFFINITY PREDICTED BY RF-SCORE:    0.00 PKD
ROOT
HETATM    1  C   UNL     1     -10.626  10.948  68.746  1.00  0.00    -0.231 C  
HETATM    2  C   UNL     1     -11.185  10.653  67.354  1.00  0.00    -0.280 C  
HETATM    3  C   UNL     1     -10.066   9.848  66.687  1.00  0.00    -0.233 C  
HETATM    4  O   UNL     1      -9.900  10.259  65.337  1.00  0.00    -0.255 OA 
HETATM    5  C   UNL     1      -8.766  10.142  67.482  1.00  0.00    -0.125 C  
HETATM    6  H   UNL     1      -9.206   9.759  64.924  1.00  0.00     0.000 HD 
HETATM    7  C   UNL     1      -9.562  15.062  68.078  1.00  0.00    -0.208 A  
HETATM    8  C   UNL     1      -9.168  11.269  68.467  1.00  0.00    -0.181 C  
HETATM    9  C   UNL     1     -10.335  16.121  68.529  1.00  0.00    -0.254 A  
HETATM   10  C   UNL     1      -9.006  12.656  67.829  1.00  0.00    -0.189 C  
HETATM   11  C   UNL     1     -11.475  15.861  69.282  1.00  0.00    -0.374 A  
HETATM   12  C   UNL     1      -9.907  13.737  68.388  1.00  0.00    -0.227 A  
HETATM   13  C   UNL     1     -11.871  14.547  69.583  1.00  0.00    -0.318 A  
HETATM   14  C   UNL     1     -11.083  13.456  69.135  1.00  0.00    -0.261 A  
HETATM   15  C   UNL     1     -11.357  12.026  69.525  1.00  0.00    -0.298 C  
ENDROOT
BRANCH   5  16
HETATM   16  C   UNL     1      -8.255   8.919  68.274  1.00  0.00    -0.121 C  
BRANCH  16  17
HETATM   17  C   UNL     1      -7.686   9.224  69.662  1.00  0.00    -0.087 C  
BRANCH  17  18
HETATM   18  C   UNL     1      -8.000   8.191  70.752  1.00  0.00    -0.097 C  
HETATM   19  O   UNL     1      -6.781   7.743  71.344  1.00  0.00    -0.044 OA 
HETATM   20  H   UNL     1      -6.975   7.103  72.019  1.00  0.00     0.000 HD 
BRANCH  18  21
HETATM   21  C   UNL     1      -8.862   8.789  71.873  1.00  0.00    -0.224 C  
BRANCH  21  22
HETATM   22  C   UNL     1     -10.356   8.759  71.549  1.00  0.00    -0.374 C  
BRANCH  22  23
HETATM   23  C   UNL     1     -11.128   7.802  72.451  1.00  0.00    -0.379 C  
BRANCH  23  24
HETATM   24  C   UNL     1     -11.962   6.843  71.601  1.00  0.00    -0.379 C  
HETATM   25  C   UNL     1     -13.401   7.309  71.478  1.00  0.00    -0.435 C  
ENDBRANCH  23  24
ENDBRANCH  22  23
ENDBRANCH  21  22
ENDBRANCH  18  21
ENDBRANCH  17  18
ENDBRANCH  16  17
ENDBRANCH   5  16
BRANCH  13  26
HETATM   26  O   UNL     1     -13.008  14.537  70.360  1.00  0.00    -0.326 OA 
BRANCH  26  27
HETATM   27  C   UNL     1     -13.333  15.708  71.099  1.00  0.00    -0.367 C  
HETATM   28  C   UNL     1     -13.674  15.389  72.543  1.00  0.00    -0.552 C  
HETATM   29  O   UNL     1     -13.539  14.082  72.854  1.00  0.00    -0.676 OA 
HETATM   30  O   UNL     1     -14.028  16.230  73.357  1.00  0.00    -0.500 OA 
ENDBRANCH  26  27
ENDBRANCH  13  26
TORSDOF 9
ENDMDL
MODEL       71
REMARK 921   NORMALIZED FREE ENERGY PREDICTED BY IDOCK:   -4.74 KCAL/MOL
REMARK 922        TOTAL FREE ENERGY PREDICTED BY IDOCK:   -9.33 KCAL/MOL
REMARK 923 INTER-LIGAND FREE ENERGY PREDICTED BY IDOCK:   -7.96 KCAL/MOL
REMARK 924 INTRA-LIGAND FREE ENERGY PREDICTED BY IDOCK:   -1.36 KCAL/MOL
REMARK 927      BINDING AFFINITY PREDICTED BY RF-SCORE:    0.00 PKD
ROOT
HETATM    1  C   UNL     1     -10.140  11.505  68.527  1.00  0.00    -0.211 C  
HETATM    2  C   UNL     1     -11.289  10.570  68.902  1.00  0.00    -0.313 C  
HETATM    3  C   UNL     1     -10.575   9.355  69.502  1.00  0.00    -0.222 C  
HETATM    4  O   UNL     1     -11.190   8.154  69.060  1.00  0.00    -0.407 OA 
HETATM    5  C   UNL     1      -9.108   9.402  68.996  1.00  0.00    -0.142 C  
HETATM    6  H   UNL     1     -10.746   7.400  69.431  1.00  0.00     0.000 HD 
HETATM    7  C   UNL     1     -10.169  10.776  64.287  1.00  0.00    -0.422 A  
HETATM    8  C   UNL     1      -9.098  10.555  67.961  1.00  0.00    -0.138 C  
HETATM    9  C   UNL     1     -10.739  11.654  63.378  1.00  0.00    -0.460 A  
HETATM   10  C   UNL     1      -9.487  10.056  66.562  1.00  0.00    -0.222 C  
HETATM   11  C   UNL     1     -11.276  12.854  63.832  1.00  0.00    -0.471 A  
HETATM   12  C   UNL     1     -10.112  11.093  65.654  1.00  0.00    -0.304 A  
HETATM   13  C   UNL     1     -11.269  13.190  65.196  1.00  0.00    -0.294 A  
HETATM   14  C   UNL     1     -10.680  12.305  66.135  1.00  0.00    -0.296 A  
HETATM   15  C   UNL     1     -10.507  12.644  67.593  1.00  0.00    -0.226 C  
ENDROOT
BRANCH   5  16
HETATM   16  C   UNL     1      -8.093   9.707  70.121  1.00  0.00    -0.205 C  
BRANCH  16  17
HETATM   17  C   UNL     1      -8.042   8.685  71.257  1.00  0.00    -0.182 C  
BRANCH  17  18
HETATM   18  C   UNL     1      -8.022   7.212  70.828  1.00  0.00    -0.100 C  
HETATM   19  O   UNL     1      -6.676   6.739  70.823  1.00  0.00    -0.051 OA 
HETATM   20  H   UNL     1      -6.663   5.827  70.557  1.00  0.00     0.000 HD 
BRANCH  18  21
HETATM   21  C   UNL     1      -8.816   6.325  71.798  1.00  0.00    -0.137 C  
BRANCH  21  22
HETATM   22  C   UNL     1      -8.912   6.922  73.202  1.00  0.00    -0.151 C  
BRANCH  22  23
HETATM   23  C   UNL     1     -10.356   7.092  73.665  1.00  0.00    -0.411 C  
BRANCH  23  24
HETATM   24  C   UNL     1     -11.292   7.108  72.457  1.00  0.00    -0.318 C  
HETATM   25  C   UNL     1     -12.181   8.338  72.452  1.00  0.00    -0.412 C  
ENDBRANCH  23  24
ENDBRANCH  22  23
ENDBRANCH  21  22
ENDBRANCH  18  21
ENDBRANCH  17  18
ENDBRANCH  16  17
ENDBRANCH   5  16
BRANCH  13  26
HETATM   26  O   UNL     1     -11.826  14.431  65.404  1.00  0.00    -0.353 OA 
BRANCH  26  27
HETATM   27  C   UNL     1     -11.215  15.559  64.789  1.00  0.00    -0.390 C  
HETATM   28  C   UNL     1     -10.715  16.561  65.814  1.00  0.00    -0.225 C  
HETATM   29  O   UNL     1     -10.888  16.159  67.091  1.00  0.00    -0.302 OA 
HETATM   30  O   UNL     1     -10.195  17.629  65.520  1.00  0.00    -0.600 OA 
ENDBRANCH  26  27
ENDBRANCH  13  26
TORSDOF 9
ENDMDL
MODEL       72
REMARK 921   NORMALIZED FREE ENERGY PREDICTED BY IDOCK:   -4.72 KCAL/MOL
REMARK 922        TOTAL FREE ENERGY PREDICTED BY IDOCK:   -9.30 KCAL/MOL
REMARK 923 INTER-LIGAND FREE ENERGY PREDICTED BY IDOCK:   -7.50 KCAL/MOL
REMARK 924 INTRA-LIGAND FREE ENERGY PREDICTED BY IDOCK:   -1.80 KCAL/MOL
REMARK 927      BINDING AFFINITY PREDICTED BY RF-SCORE:    0.00 PKD
ROOT
HETATM    1  C   UNL     1      -9.540  10.222  68.677  1.00  0.00    -0.169 C  
HETATM    2  C   UNL     1      -8.304  10.325  69.570  1.00  0.00    -0.162 C  
HETATM    3  C   UNL     1      -7.600   8.981  69.358  1.00  0.00    -0.078 C  
HETATM    4  O   UNL     1      -7.104   8.483  70.592  1.00  0.00    -0.041 OA 
HETATM    5  C   UNL     1      -8.665   8.001  68.795  1.00  0.00    -0.131 C  
HETATM    6  H   UNL     1      -6.668   7.650  70.460  1.00  0.00     0.000 HD 
HETATM    7  C   UNL     1     -12.427   9.468  71.776  1.00  0.00    -0.484 A  
HETATM    8  C   UNL     1      -9.996   8.788  68.890  1.00  0.00    -0.200 C  
HETATM    9  C   UNL     1     -13.275  10.448  72.268  1.00  0.00    -0.285 A  
HETATM   10  C   UNL     1     -10.659   8.604  70.264  1.00  0.00    -0.240 C  
HETATM   11  C   UNL     1     -13.245  11.720  71.705  1.00  0.00    -0.434 A  
HETATM   12  C   UNL     1     -11.555   9.739  70.709  1.00  0.00    -0.417 A  
HETATM   13  C   UNL     1     -12.363  12.039  70.660  1.00  0.00    -0.304 A  
HETATM   14  C   UNL     1     -11.497  11.042  70.142  1.00  0.00    -0.383 A  
HETATM   15  C   UNL     1     -10.618  11.258  68.937  1.00  0.00    -0.239 C  
ENDROOT
BRANCH   5  16
HETATM   16  C   UNL     1      -8.401   7.607  67.325  1.00  0.00    -0.115 C  
BRANCH  16  17
HETATM   17  C   UNL     1      -9.611   7.064  66.561  1.00  0.00    -0.201 C  
BRANCH  17  18
HETATM   18  C   UNL     1     -10.175   5.731  67.070  1.00  0.00    -0.213 C  
HETATM   19  O   UNL     1     -11.190   5.275  66.176  1.00  0.00    -0.731 OA 
HETATM   20  H   UNL     1     -11.539   4.450  66.490  1.00  0.00     0.000 HD 
BRANCH  18  21
HETATM   21  C   UNL     1      -9.095   4.641  67.132  1.00  0.00    -0.129 C  
BRANCH  21  22
HETATM   22  C   UNL     1      -9.298   3.674  68.298  1.00  0.00    -0.228 C  
BRANCH  22  23
HETATM   23  C   UNL     1      -9.838   4.369  69.544  1.00  0.00    -0.258 C  
BRANCH  23  24
HETATM   24  C   UNL     1      -8.709   4.585  70.552  1.00  0.00    -0.127 C  
HETATM   25  C   UNL     1      -9.089   5.604  71.611  1.00  0.00    -0.150 C  
ENDBRANCH  23  24
ENDBRANCH  22  23
ENDBRANCH  21  22
ENDBRANCH  18  21
ENDBRANCH  17  18
ENDBRANCH  16  17
ENDBRANCH   5  16
BRANCH  13  26
HETATM   26  O   UNL     1     -12.532  13.342  70.248  1.00  0.00    -0.270 OA 
BRANCH  26  27
HETATM   27  C   UNL     1     -11.853  14.370  70.960  1.00  0.00    -0.270 C  
HETATM   28  C   UNL     1     -12.812  15.424  71.482  1.00  0.00    -0.429 C  
HETATM   29  O   UNL     1     -14.109  15.148  71.229  1.00  0.00    -0.462 OA 
HETATM   30  O   UNL     1     -12.453  16.427  72.085  1.00  0.00    -0.345 OA 
ENDBRANCH  26  27
ENDBRANCH  13  26
TORSDOF 9
ENDMDL
MODEL       73
REMARK 921   NORMALIZED FREE ENERGY PREDICTED BY IDOCK:   -4.69 KCAL/MOL
REMARK 922        TOTAL FREE ENERGY PREDICTED BY IDOCK:   -9.25 KCAL/MOL
REMARK 923 INTER-LIGAND FREE ENERGY PREDICTED BY IDOCK:   -8.31 KCAL/MOL
REMARK 924 INTRA-LIGAND FREE ENERGY PREDICTED BY IDOCK:   -0.94 KCAL/MOL
REMARK 927      BINDING AFFINITY PREDICTED BY RF-SCORE:    0.00 PKD
ROOT
HETATM    1  C   UNL     1     -11.196  10.906  67.402  1.00  0.00    -0.345 C  
HETATM    2  C   UNL     1     -11.942  11.888  68.305  1.00  0.00    -0.235 C  
HETATM    3  C   UNL     1     -11.561  13.256  67.729  1.00  0.00    -0.342 C  
HETATM    4  O   UNL     1     -11.306  14.179  68.778  1.00  0.00    -0.247 OA 
HETATM    5  C   UNL     1     -10.267  13.048  66.896  1.00  0.00    -0.244 C  
HETATM    6  H   UNL     1     -11.070  15.027  68.421  1.00  0.00     0.000 HD 
HETATM    7  C   UNL     1      -8.005   9.935  70.119  1.00  0.00    -0.181 A  
HETATM    8  C   UNL     1      -9.853  11.585  67.193  1.00  0.00    -0.210 C  
HETATM    9  C   UNL     1      -7.978   8.762  70.857  1.00  0.00    -0.155 A  
HETATM   10  C   UNL     1      -8.973  11.494  68.448  1.00  0.00    -0.173 C  
HETATM   11  C   UNL     1      -8.986   7.820  70.679  1.00  0.00    -0.145 A  
HETATM   12  C   UNL     1      -9.027  10.174  69.185  1.00  0.00    -0.181 A  
HETATM   13  C   UNL     1     -10.043   8.039  69.780  1.00  0.00    -0.196 A  
HETATM   14  C   UNL     1     -10.077   9.231  69.012  1.00  0.00    -0.207 A  
HETATM   15  C   UNL     1     -11.095   9.486  67.930  1.00  0.00    -0.053 C  
ENDROOT
BRANCH   5  16
HETATM   16  C   UNL     1     -10.494  13.224  65.379  1.00  0.00    -0.306 C  
BRANCH  16  17
HETATM   17  C   UNL     1     -11.481  14.324  64.983  1.00  0.00    -0.364 C  
BRANCH  17  18
HETATM   18  C   UNL     1     -10.880  15.723  64.795  1.00  0.00    -0.344 C  
HETATM   19  O   UNL     1     -11.595  16.412  63.771  1.00  0.00    -1.605 OA 
HETATM   20  H   UNL     1     -11.223  17.278  63.655  1.00  0.00     0.000 HD 
BRANCH  18  21
HETATM   21  C   UNL     1     -10.985  16.565  66.075  1.00  0.00     0.057 C  
BRANCH  21  22
HETATM   22  C   UNL     1      -9.978  17.714  66.111  1.00  0.00    -0.281 C  
BRANCH  22  23
HETATM   23  C   UNL     1     -10.644  19.077  65.945  1.00  0.00    -0.466 C  
BRANCH  23  24
HETATM   24  C   UNL     1      -9.956  20.106  66.841  1.00  0.00    -0.600 C  
HETATM   25  C   UNL     1     -10.000  19.697  68.302  1.00  0.00    -0.543 C  
ENDBRANCH  23  24
ENDBRANCH  22  23
ENDBRANCH  21  22
ENDBRANCH  18  21
ENDBRANCH  17  18
ENDBRANCH  16  17
ENDBRANCH   5  16
BRANCH  13  26
HETATM   26  O   UNL     1     -10.901   6.963  69.752  1.00  0.00    -0.234 OA 
BRANCH  26  27
HETATM   27  C   UNL     1     -10.359   5.660  69.929  1.00  0.00    -0.277 C  
HETATM   28  C   UNL     1     -10.140   4.953  68.603  1.00  0.00    -0.088 C  
HETATM   29  O   UNL     1     -10.438   5.716  67.530  1.00  0.00    -0.210 OA 
HETATM   30  O   UNL     1      -9.725   3.807  68.507  1.00  0.00    -0.132 OA 
ENDBRANCH  26  27
ENDBRANCH  13  26
TORSDOF 9
ENDMDL
MODEL       74
REMARK 921   NORMALIZED FREE ENERGY PREDICTED BY IDOCK:   -4.68 KCAL/MOL
REMARK 922        TOTAL FREE ENERGY PREDICTED BY IDOCK:   -9.23 KCAL/MOL
REMARK 923 INTER-LIGAND FREE ENERGY PREDICTED BY IDOCK:   -7.47 KCAL/MOL
REMARK 924 INTRA-LIGAND FREE ENERGY PREDICTED BY IDOCK:   -1.76 KCAL/MOL
REMARK 927      BINDING AFFINITY PREDICTED BY RF-SCORE:    0.00 PKD
ROOT
HETATM    1  C   UNL     1      -8.231  16.084  67.504  1.00  0.00    -0.171 C  
HETATM    2  C   UNL     1      -8.169  16.315  69.013  1.00  0.00    -0.238 C  
HETATM    3  C   UNL     1      -6.917  17.180  69.187  1.00  0.00    -0.224 C  
HETATM    4  O   UNL     1      -6.178  16.756  70.324  1.00  0.00    -0.083 OA 
HETATM    5  C   UNL     1      -6.056  16.988  67.910  1.00  0.00    -0.143 C  
HETATM    6  H   UNL     1      -5.402  17.293  70.432  1.00  0.00     0.000 HD 
HETATM    7  C   UNL     1      -6.770  12.038  67.481  1.00  0.00    -0.120 A  
HETATM    8  C   UNL     1      -6.775  15.856  67.133  1.00  0.00    -0.168 C  
HETATM    9  C   UNL     1      -7.604  10.939  67.347  1.00  0.00    -0.100 A  
HETATM   10  C   UNL     1      -6.288  14.470  67.582  1.00  0.00    -0.128 C  
HETATM   11  C   UNL     1      -8.967  11.136  67.152  1.00  0.00    -0.145 A  
HETATM   12  C   UNL     1      -7.282  13.343  67.403  1.00  0.00    -0.116 A  
HETATM   13  C   UNL     1      -9.521  12.426  67.103  1.00  0.00    -0.198 A  
HETATM   14  C   UNL     1      -8.676  13.559  67.229  1.00  0.00    -0.228 A  
HETATM   15  C   UNL     1      -9.163  14.974  67.054  1.00  0.00    -0.246 C  
ENDROOT
BRANCH   5  16
HETATM   16  C   UNL     1      -5.991  18.257  67.032  1.00  0.00    -0.168 C  
BRANCH  16  17
HETATM   17  C   UNL     1      -6.044  19.585  67.789  1.00  0.00    -0.222 C  
BRANCH  17  18
HETATM   18  C   UNL     1      -7.024  20.628  67.236  1.00  0.00    -0.331 C  
HETATM   19  O   UNL     1      -6.409  21.334  66.160  1.00  0.00    -0.408 OA 
HETATM   20  H   UNL     1      -7.015  21.979  65.818  1.00  0.00     0.000 HD 
BRANCH  18  21
HETATM   21  C   UNL     1      -8.301  19.974  66.686  1.00  0.00    -0.363 C  
BRANCH  21  22
HETATM   22  C   UNL     1      -9.359  19.745  67.764  1.00  0.00    -0.443 C  
BRANCH  22  23
HETATM   23  C   UNL     1     -10.779  19.802  67.208  1.00  0.00    -0.532 C  
BRANCH  23  24
HETATM   24  C   UNL     1     -10.779  19.385  65.737  1.00  0.00    -0.458 C  
HETATM   25  C   UNL     1     -10.755  17.875  65.583  1.00  0.00    -0.055 C  
ENDBRANCH  23  24
ENDBRANCH  22  23
ENDBRANCH  21  22
ENDBRANCH  18  21
ENDBRANCH  17  18
ENDBRANCH  16  17
ENDBRANCH   5  16
BRANCH  13  26
HETATM   26  O   UNL     1     -10.877  12.375  66.874  1.00  0.00    -0.239 OA 
BRANCH  26  27
HETATM   27  C   UNL     1     -11.330  12.061  65.563  1.00  0.00    -0.328 C  
HETATM   28  C   UNL     1     -12.337  13.077  65.053  1.00  0.00    -0.473 C  
HETATM   29  O   UNL     1     -12.550  14.101  65.907  1.00  0.00    -0.486 OA 
HETATM   30  O   UNL     1     -12.898  12.990  63.969  1.00  0.00    -0.657 OA 
ENDBRANCH  26  27
ENDBRANCH  13  26
TORSDOF 9
ENDMDL
MODEL       75
REMARK 921   NORMALIZED FREE ENERGY PREDICTED BY IDOCK:   -4.66 KCAL/MOL
REMARK 922        TOTAL FREE ENERGY PREDICTED BY IDOCK:   -9.20 KCAL/MOL
REMARK 923 INTER-LIGAND FREE ENERGY PREDICTED BY IDOCK:   -7.81 KCAL/MOL
REMARK 924 INTRA-LIGAND FREE ENERGY PREDICTED BY IDOCK:   -1.39 KCAL/MOL
REMARK 927      BINDING AFFINITY PREDICTED BY RF-SCORE:    0.00 PKD
ROOT
HETATM    1  C   UNL     1     -10.239   9.466  69.425  1.00  0.00    -0.214 C  
HETATM    2  C   UNL     1      -9.014   9.548  70.336  1.00  0.00    -0.291 C  
HETATM    3  C   UNL     1      -8.942   8.151  70.958  1.00  0.00    -0.151 C  
HETATM    4  O   UNL     1      -8.615   8.242  72.338  1.00  0.00    -0.173 OA 
HETATM    5  C   UNL     1     -10.350   7.516  70.801  1.00  0.00    -0.205 C  
HETATM    6  H   UNL     1      -8.571   7.375  72.724  1.00  0.00     0.000 HD 
HETATM    7  C   UNL     1     -12.970  11.644  71.936  1.00  0.00    -0.442 A  
HETATM    8  C   UNL     1     -11.230   8.669  70.256  1.00  0.00    -0.196 C  
HETATM    9  C   UNL     1     -13.304  12.970  71.708  1.00  0.00    -0.468 A  
HETATM   10  C   UNL     1     -11.818   9.513  71.397  1.00  0.00    -0.464 C  
HETATM   11  C   UNL     1     -12.791  13.622  70.592  1.00  0.00    -0.224 A  
HETATM   12  C   UNL     1     -12.136  10.950  71.044  1.00  0.00    -0.425 A  
HETATM   13  C   UNL     1     -11.926  12.971  69.697  1.00  0.00    -0.302 A  
HETATM   14  C   UNL     1     -11.584  11.611  69.913  1.00  0.00    -0.366 A  
HETATM   15  C   UNL     1     -10.775  10.799  68.935  1.00  0.00    -0.259 C  
ENDROOT
BRANCH   5  16
HETATM   16  C   UNL     1     -10.370   6.336  69.805  1.00  0.00    -0.260 C  
BRANCH  16  17
HETATM   17  C   UNL     1     -11.277   6.517  68.586  1.00  0.00    -0.302 C  
BRANCH  17  18
HETATM   18  C   UNL     1     -10.583   6.430  67.220  1.00  0.00    -0.314 C  
HETATM   19  O   UNL     1     -11.395   5.672  66.324  1.00  0.00    -0.734 OA 
HETATM   20  H   UNL     1     -10.965   5.618  65.479  1.00  0.00     0.000 HD 
BRANCH  18  21
HETATM   21  C   UNL     1     -10.381   7.818  66.595  1.00  0.00    -0.262 C  
BRANCH  21  22
HETATM   22  C   UNL     1      -8.937   8.063  66.154  1.00  0.00    -0.215 C  
BRANCH  22  23
HETATM   23  C   UNL     1      -8.014   6.902  66.514  1.00  0.00    -0.109 C  
BRANCH  23  24
HETATM   24  C   UNL     1      -7.606   6.149  65.248  1.00  0.00    -0.089 C  
HETATM   25  C   UNL     1      -7.623   7.053  64.028  1.00  0.00    -0.105 C  
ENDBRANCH  23  24
ENDBRANCH  22  23
ENDBRANCH  21  22
ENDBRANCH  18  21
ENDBRANCH  17  18
ENDBRANCH  16  17
ENDBRANCH   5  16
BRANCH  13  26
HETATM   26  O   UNL     1     -11.570  13.801  68.658  1.00  0.00    -0.287 OA 
BRANCH  26  27
HETATM   27  C   UNL     1     -10.270  14.378  68.668  1.00  0.00    -0.245 C  
HETATM   28  C   UNL     1      -9.548  14.170  67.349  1.00  0.00    -0.229 C  
HETATM   29  O   UNL     1     -10.297  13.545  66.417  1.00  0.00    -0.278 OA 
HETATM   30  O   UNL     1      -8.401  14.540  67.139  1.00  0.00    -0.201 OA 
ENDBRANCH  26  27
ENDBRANCH  13  26
TORSDOF 9
ENDMDL
MODEL       76
REMARK 921   NORMALIZED FREE ENERGY PREDICTED BY IDOCK:   -4.65 KCAL/MOL
REMARK 922        TOTAL FREE ENERGY PREDICTED BY IDOCK:   -9.19 KCAL/MOL
REMARK 923 INTER-LIGAND FREE ENERGY PREDICTED BY IDOCK:   -7.70 KCAL/MOL
REMARK 924 INTRA-LIGAND FREE ENERGY PREDICTED BY IDOCK:   -1.50 KCAL/MOL
REMARK 927      BINDING AFFINITY PREDICTED BY RF-SCORE:    0.00 PKD
ROOT
HETATM    1  C   UNL     1      -8.400  14.532  67.424  1.00  0.00    -0.217 C  
HETATM    2  C   UNL     1      -8.635  14.664  68.928  1.00  0.00    -0.131 C  
HETATM    3  C   UNL     1      -7.271  15.115  69.460  1.00  0.00    -0.204 C  
HETATM    4  O   UNL     1      -6.967  14.440  70.673  1.00  0.00    -0.341 OA 
HETATM    5  C   UNL     1      -6.221  14.737  68.381  1.00  0.00    -0.105 C  
HETATM    6  H   UNL     1      -6.121  14.719  71.003  1.00  0.00     0.000 HD 
HETATM    7  C   UNL     1      -8.147  10.241  67.257  1.00  0.00    -0.120 A  
HETATM    8  C   UNL     1      -7.019  13.904  67.347  1.00  0.00    -0.065 C  
HETATM    9  C   UNL     1      -9.196   9.443  66.826  1.00  0.00    -0.179 A  
HETATM   10  C   UNL     1      -7.052  12.417  67.731  1.00  0.00    -0.120 C  
HETATM   11  C   UNL     1     -10.365  10.041  66.369  1.00  0.00    -0.249 A  
HETATM   12  C   UNL     1      -8.247  11.641  67.219  1.00  0.00    -0.159 A  
HETATM   13  C   UNL     1     -10.515  11.437  66.350  1.00  0.00    -0.254 A  
HETATM   14  C   UNL     1      -9.446  12.265  66.778  1.00  0.00    -0.222 A  
HETATM   15  C   UNL     1      -9.469  13.768  66.664  1.00  0.00    -0.289 C  
ENDROOT
BRANCH   5  16
HETATM   16  C   UNL     1      -5.603  15.970  67.686  1.00  0.00    -0.164 C  
BRANCH  16  17
HETATM   17  C   UNL     1      -5.312  17.164  68.597  1.00  0.00    -0.133 C  
BRANCH  17  18
HETATM   18  C   UNL     1      -5.905  18.506  68.147  1.00  0.00    -0.188 C  
HETATM   19  O   UNL     1      -6.257  18.429  66.766  1.00  0.00    -0.167 OA 
HETATM   20  H   UNL     1      -6.624  19.259  66.487  1.00  0.00     0.000 HD 
BRANCH  18  21
HETATM   21  C   UNL     1      -7.181  18.855  68.927  1.00  0.00    -0.349 C  
BRANCH  21  22
HETATM   22  C   UNL     1      -8.451  18.361  68.234  1.00  0.00    -0.321 C  
BRANCH  22  23
HETATM   23  C   UNL     1      -9.715  18.981  68.824  1.00  0.00    -0.473 C  
BRANCH  23  24
HETATM   24  C   UNL     1     -10.273  20.036  67.868  1.00  0.00    -0.545 C  
HETATM   25  C   UNL     1      -9.800  19.808  66.444  1.00  0.00    -0.556 C  
ENDBRANCH  23  24
ENDBRANCH  22  23
ENDBRANCH  21  22
ENDBRANCH  18  21
ENDBRANCH  17  18
ENDBRANCH  16  17
ENDBRANCH   5  16
BRANCH  13  26
HETATM   26  O   UNL     1     -11.739  11.798  65.833  1.00  0.00    -0.397 OA 
BRANCH  26  27
HETATM   27  C   UNL     1     -11.825  12.106  64.447  1.00  0.00    -0.358 C  
HETATM   28  C   UNL     1     -12.597  13.389  64.198  1.00  0.00    -0.135 C  
HETATM   29  O   UNL     1     -12.987  14.012  65.331  1.00  0.00    -0.726 OA 
HETATM   30  O   UNL     1     -12.837  13.830  63.083  1.00  0.00    -0.531 OA 
ENDBRANCH  26  27
ENDBRANCH  13  26
TORSDOF 9
ENDMDL
MODEL       77
REMARK 921   NORMALIZED FREE ENERGY PREDICTED BY IDOCK:   -4.64 KCAL/MOL
REMARK 922        TOTAL FREE ENERGY PREDICTED BY IDOCK:   -9.17 KCAL/MOL
REMARK 923 INTER-LIGAND FREE ENERGY PREDICTED BY IDOCK:   -8.68 KCAL/MOL
REMARK 924 INTRA-LIGAND FREE ENERGY PREDICTED BY IDOCK:   -0.50 KCAL/MOL
REMARK 927      BINDING AFFINITY PREDICTED BY RF-SCORE:    0.00 PKD
ROOT
HETATM    1  C   UNL     1     -10.826   9.266  69.341  1.00  0.00    -0.184 C  
HETATM    2  C   UNL     1      -9.478   9.328  70.058  1.00  0.00    -0.236 C  
HETATM    3  C   UNL     1      -9.662   8.372  71.240  1.00  0.00    -0.189 C  
HETATM    4  O   UNL     1      -9.077   8.920  72.414  1.00  0.00    -0.372 OA 
HETATM    5  C   UNL     1     -11.192   8.209  71.452  1.00  0.00    -0.297 C  
HETATM    6  H   UNL     1      -9.192   8.326  73.147  1.00  0.00     0.000 HD 
HETATM    7  C   UNL     1     -12.386  13.030  70.723  1.00  0.00    -0.394 A  
HETATM    8  C   UNL     1     -11.822   9.245  70.487  1.00  0.00    -0.173 C  
HETATM    9  C   UNL     1     -12.397  14.172  69.937  1.00  0.00    -0.382 A  
HETATM   10  C   UNL     1     -11.951  10.624  71.151  1.00  0.00    -0.401 C  
HETATM   11  C   UNL     1     -11.943  14.102  68.625  1.00  0.00    -0.373 A  
HETATM   12  C   UNL     1     -11.940  11.804  70.203  1.00  0.00    -0.421 A  
HETATM   13  C   UNL     1     -11.457  12.902  68.080  1.00  0.00    -0.315 A  
HETATM   14  C   UNL     1     -11.449  11.724  68.870  1.00  0.00    -0.357 A  
HETATM   15  C   UNL     1     -11.075  10.369  68.328  1.00  0.00    -0.338 C  
ENDROOT
BRANCH   5  16
HETATM   16  C   UNL     1     -11.701   6.795  71.098  1.00  0.00    -0.394 C  
BRANCH  16  17
HETATM   17  C   UNL     1     -11.880   5.843  72.283  1.00  0.00    -0.266 C  
BRANCH  17  18
HETATM   18  C   UNL     1     -10.603   5.502  73.061  1.00  0.00    -0.239 C  
HETATM   19  O   UNL     1     -10.928   5.293  74.435  1.00  0.00    -0.405 OA 
HETATM   20  H   UNL     1     -10.137   5.081  74.917  1.00  0.00     0.000 HD 
BRANCH  18  21
HETATM   21  C   UNL     1      -9.947   4.213  72.543  1.00  0.00    -0.222 C  
BRANCH  21  22
HETATM   22  C   UNL     1      -8.865   4.481  71.497  1.00  0.00    -0.147 C  
BRANCH  22  23
HETATM   23  C   UNL     1      -7.750   3.439  71.534  1.00  0.00    -0.056 C  
BRANCH  23  24
HETATM   24  C   UNL     1      -7.419   3.081  72.983  1.00  0.00    -0.050 C  
HETATM   25  C   UNL     1      -6.185   2.202  73.075  1.00  0.00    -0.009 C  
ENDBRANCH  23  24
ENDBRANCH  22  23
ENDBRANCH  21  22
ENDBRANCH  18  21
ENDBRANCH  17  18
ENDBRANCH  16  17
ENDBRANCH   5  16
BRANCH  13  26
HETATM   26  O   UNL     1     -11.092  13.066  66.763  1.00  0.00    -0.274 OA 
BRANCH  26  27
HETATM   27  C   UNL     1     -11.586  12.140  65.803  1.00  0.00    -0.355 C  
HETATM   28  C   UNL     1     -12.572  12.788  64.848  1.00  0.00    -0.470 C  
HETATM   29  O   UNL     1     -12.733  14.112  65.054  1.00  0.00    -0.631 OA 
HETATM   30  O   UNL     1     -13.161  12.178  63.966  1.00  0.00    -0.728 OA 
ENDBRANCH  26  27
ENDBRANCH  13  26
TORSDOF 9
ENDMDL
MODEL       78
REMARK 921   NORMALIZED FREE ENERGY PREDICTED BY IDOCK:   -4.61 KCAL/MOL
REMARK 922        TOTAL FREE ENERGY PREDICTED BY IDOCK:   -9.13 KCAL/MOL
REMARK 923 INTER-LIGAND FREE ENERGY PREDICTED BY IDOCK:   -7.27 KCAL/MOL
REMARK 924 INTRA-LIGAND FREE ENERGY PREDICTED BY IDOCK:   -1.85 KCAL/MOL
REMARK 927      BINDING AFFINITY PREDICTED BY RF-SCORE:    0.00 PKD
ROOT
HETATM    1  C   UNL     1     -10.417   7.992  67.790  1.00  0.00    -0.280 C  
HETATM    2  C   UNL     1      -9.859   7.213  66.599  1.00  0.00    -0.237 C  
HETATM    3  C   UNL     1      -9.402   5.891  67.224  1.00  0.00    -0.113 C  
HETATM    4  O   UNL     1      -8.156   5.490  66.673  1.00  0.00    -0.104 OA 
HETATM    5  C   UNL     1      -9.236   6.148  68.746  1.00  0.00    -0.124 C  
HETATM    6  H   UNL     1      -7.872   4.670  67.060  1.00  0.00     0.000 HD 
HETATM    7  C   UNL     1      -7.093  10.668  68.334  1.00  0.00    -0.078 A  
HETATM    8  C   UNL     1      -9.426   7.678  68.898  1.00  0.00    -0.149 C  
HETATM    9  C   UNL     1      -7.107  11.982  67.894  1.00  0.00    -0.097 A  
HETATM   10  C   UNL     1      -8.101   8.430  68.700  1.00  0.00    -0.122 C  
HETATM   11  C   UNL     1      -8.258  12.491  67.302  1.00  0.00    -0.184 A  
HETATM   12  C   UNL     1      -8.230   9.854  68.206  1.00  0.00    -0.109 A  
HETATM   13  C   UNL     1      -9.404  11.698  67.125  1.00  0.00    -0.174 A  
HETATM   14  C   UNL     1      -9.405  10.354  67.580  1.00  0.00    -0.163 A  
HETATM   15  C   UNL     1     -10.630   9.476  67.554  1.00  0.00    -0.338 C  
ENDROOT
BRANCH   5  16
HETATM   16  C   UNL     1     -10.290   5.409  69.599  1.00  0.00    -0.361 C  
BRANCH  16  17
HETATM   17  C   UNL     1      -9.788   4.858  70.935  1.00  0.00    -0.277 C  
BRANCH  17  18
HETATM   18  C   UNL     1     -10.597   5.270  72.172  1.00  0.00    -0.221 C  
HETATM   19  O   UNL     1     -10.878   4.115  72.961  1.00  0.00    -0.189 OA 
HETATM   20  H   UNL     1     -11.379   4.370  73.727  1.00  0.00     0.000 HD 
BRANCH  18  21
HETATM   21  C   UNL     1      -9.819   6.254  73.059  1.00  0.00    -0.175 C  
BRANCH  21  22
HETATM   22  C   UNL     1     -10.501   7.618  73.168  1.00  0.00    -0.433 C  
BRANCH  22  23
HETATM   23  C   UNL     1      -9.984   8.612  72.132  1.00  0.00    -0.386 C  
BRANCH  23  24
HETATM   24  C   UNL     1     -11.154   9.379  71.516  1.00  0.00    -0.446 C  
HETATM   25  C   UNL     1     -12.338   8.470  71.242  1.00  0.00    -0.301 C  
ENDBRANCH  23  24
ENDBRANCH  22  23
ENDBRANCH  21  22
ENDBRANCH  18  21
ENDBRANCH  17  18
ENDBRANCH  16  17
ENDBRANCH   5  16
BRANCH  13  26
HETATM   26  O   UNL     1     -10.423  12.420  66.546  1.00  0.00    -0.227 OA 
BRANCH  26  27
HETATM   27  C   UNL     1     -10.963  11.959  65.314  1.00  0.00    -0.302 C  
HETATM   28  C   UNL     1     -12.263  12.663  64.967  1.00  0.00    -0.476 C  
HETATM   29  O   UNL     1     -12.611  13.621  65.852  1.00  0.00    -0.460 OA 
HETATM   30  O   UNL     1     -12.933  12.401  63.977  1.00  0.00    -0.748 OA 
ENDBRANCH  26  27
ENDBRANCH  13  26
TORSDOF 9
ENDMDL
MODEL       79
REMARK 921   NORMALIZED FREE ENERGY PREDICTED BY IDOCK:   -4.61 KCAL/MOL
REMARK 922        TOTAL FREE ENERGY PREDICTED BY IDOCK:   -9.13 KCAL/MOL
REMARK 923 INTER-LIGAND FREE ENERGY PREDICTED BY IDOCK:   -7.83 KCAL/MOL
REMARK 924 INTRA-LIGAND FREE ENERGY PREDICTED BY IDOCK:   -1.30 KCAL/MOL
REMARK 927      BINDING AFFINITY PREDICTED BY RF-SCORE:    0.00 PKD
ROOT
HETATM    1  C   UNL     1     -10.530  12.687  66.861  1.00  0.00    -0.246 C  
HETATM    2  C   UNL     1      -9.817  12.539  65.517  1.00  0.00    -0.197 C  
HETATM    3  C   UNL     1      -9.382  11.070  65.508  1.00  0.00    -0.215 C  
HETATM    4  O   UNL     1      -8.069  10.948  64.980  1.00  0.00    -0.358 OA 
HETATM    5  C   UNL     1      -9.394  10.589  66.983  1.00  0.00    -0.176 C  
HETATM    6  H   UNL     1      -7.800  10.037  64.974  1.00  0.00     0.000 HD 
HETATM    7  C   UNL     1      -7.387  14.745  68.957  1.00  0.00    -0.139 A  
HETATM    8  C   UNL     1      -9.656  11.877  67.803  1.00  0.00    -0.190 C  
HETATM    9  C   UNL     1      -7.402  16.114  69.176  1.00  0.00    -0.215 A  
HETATM   10  C   UNL     1      -8.346  12.611  68.129  1.00  0.00    -0.175 C  
HETATM   11  C   UNL     1      -8.500  16.860  68.760  1.00  0.00    -0.244 A  
HETATM   12  C   UNL     1      -8.473  14.104  68.338  1.00  0.00    -0.170 A  
HETATM   13  C   UNL     1      -9.588  16.260  68.106  1.00  0.00    -0.219 A  
HETATM   14  C   UNL     1      -9.590  14.859  67.885  1.00  0.00    -0.205 A  
HETATM   15  C   UNL     1     -10.771  14.115  67.316  1.00  0.00    -0.279 C  
ENDROOT
BRANCH   5  16
HETATM   16  C   UNL     1     -10.507   9.558  67.271  1.00  0.00    -0.328 C  
BRANCH  16  17
HETATM   17  C   UNL     1     -10.734   9.228  68.748  1.00  0.00    -0.184 C  
BRANCH  17  18
HETATM   18  C   UNL     1     -10.421   7.785  69.164  1.00  0.00    -0.211 C  
HETATM   19  O   UNL     1      -9.415   7.252  68.304  1.00  0.00    -0.141 OA 
HETATM   20  H   UNL     1      -9.222   6.358  68.562  1.00  0.00     0.000 HD 
BRANCH  18  21
HETATM   21  C   UNL     1      -9.884   7.711  70.601  1.00  0.00    -0.182 C  
BRANCH  21  22
HETATM   22  C   UNL     1     -10.289   8.918  71.447  1.00  0.00    -0.377 C  
BRANCH  22  23
HETATM   23  C   UNL     1     -11.323   8.562  72.512  1.00  0.00    -0.357 C  
BRANCH  23  24
HETATM   24  C   UNL     1     -12.728   8.873  71.998  1.00  0.00    -0.456 C  
HETATM   25  C   UNL     1     -12.864  10.326  71.582  1.00  0.00    -0.568 C  
ENDBRANCH  23  24
ENDBRANCH  22  23
ENDBRANCH  21  22
ENDBRANCH  18  21
ENDBRANCH  17  18
ENDBRANCH  16  17
ENDBRANCH   5  16
BRANCH  13  26
HETATM   26  O   UNL     1     -10.564  17.186  67.815  1.00  0.00    -0.352 OA 
BRANCH  26  27
HETATM   27  C   UNL     1     -10.513  17.851  66.559  1.00  0.00    -0.313 C  
HETATM   28  C   UNL     1     -10.516  19.361  66.718  1.00  0.00    -0.467 C  
HETATM   29  O   UNL     1     -10.500  19.769  68.005  1.00  0.00    -0.434 OA 
HETATM   30  O   UNL     1     -10.521  20.142  65.776  1.00  0.00    -0.430 OA 
ENDBRANCH  26  27
ENDBRANCH  13  26
TORSDOF 9
ENDMDL
MODEL       80
REMARK 921   NORMALIZED FREE ENERGY PREDICTED BY IDOCK:   -4.57 KCAL/MOL
REMARK 922        TOTAL FREE ENERGY PREDICTED BY IDOCK:   -9.06 KCAL/MOL
REMARK 923 INTER-LIGAND FREE ENERGY PREDICTED BY IDOCK:   -7.75 KCAL/MOL
REMARK 924 INTRA-LIGAND FREE ENERGY PREDICTED BY IDOCK:   -1.31 KCAL/MOL
REMARK 927      BINDING AFFINITY PREDICTED BY RF-SCORE:    0.00 PKD
ROOT
HETATM    1  C   UNL     1      -9.526  12.458  67.282  1.00  0.00    -0.191 C  
HETATM    2  C   UNL     1     -10.553  12.305  68.402  1.00  0.00    -0.250 C  
HETATM    3  C   UNL     1     -10.815  10.796  68.438  1.00  0.00    -0.232 C  
HETATM    4  O   UNL     1     -12.201  10.541  68.618  1.00  0.00    -0.794 OA 
HETATM    5  C   UNL     1     -10.357  10.228  67.068  1.00  0.00    -0.299 C  
HETATM    6  H   UNL     1     -12.363   9.605  68.640  1.00  0.00     0.000 HD 
HETATM    7  C   UNL     1     -12.193  13.961  64.259  1.00  0.00    -0.447 A  
HETATM    8  C   UNL     1     -10.024  11.486  66.226  1.00  0.00    -0.252 C  
HETATM    9  C   UNL     1     -12.266  15.304  63.922  1.00  0.00     0.134 A  
HETATM   10  C   UNL     1     -11.269  12.023  65.505  1.00  0.00    -0.372 C  
HETATM   11  C   UNL     1     -11.406  16.209  64.536  1.00  0.00    -0.273 A  
HETATM   12  C   UNL     1     -11.251  13.505  65.195  1.00  0.00    -0.320 A  
HETATM   13  C   UNL     1     -10.475  15.795  65.502  1.00  0.00    -0.403 A  
HETATM   14  C   UNL     1     -10.383  14.423  65.849  1.00  0.00    -0.327 A  
HETATM   15  C   UNL     1      -9.326  13.874  66.771  1.00  0.00    -0.286 C  
ENDROOT
BRANCH   5  16
HETATM   16  C   UNL     1      -9.104   9.332  67.177  1.00  0.00    -0.149 C  
BRANCH  16  17
HETATM   17  C   UNL     1      -8.115   9.437  66.014  1.00  0.00    -0.111 C  
BRANCH  17  18
HETATM   18  C   UNL     1      -8.233   8.349  64.940  1.00  0.00    -0.153 C  
HETATM   19  O   UNL     1      -7.684   8.832  63.714  1.00  0.00    -0.119 OA 
HETATM   20  H   UNL     1      -7.757   8.159  63.049  1.00  0.00     0.000 HD 
BRANCH  18  21
HETATM   21  C   UNL     1      -7.453   7.083  65.324  1.00  0.00    -0.092 C  
BRANCH  21  22
HETATM   22  C   UNL     1      -8.343   5.843  65.405  1.00  0.00    -0.149 C  
BRANCH  22  23
HETATM   23  C   UNL     1      -8.871   5.596  66.816  1.00  0.00    -0.115 C  
BRANCH  23  24
HETATM   24  C   UNL     1     -10.366   5.283  66.765  1.00  0.00    -0.320 C  
HETATM   25  C   UNL     1     -11.203   6.468  67.210  1.00  0.00    -0.314 C  
ENDBRANCH  23  24
ENDBRANCH  22  23
ENDBRANCH  21  22
ENDBRANCH  18  21
ENDBRANCH  17  18
ENDBRANCH  16  17
ENDBRANCH   5  16
BRANCH  13  26
HETATM   26  O   UNL     1      -9.718  16.856  65.947  1.00  0.00    -0.467 OA 
BRANCH  26  27
HETATM   27  C   UNL     1     -10.318  18.144  65.991  1.00  0.00    -0.353 C  
HETATM   28  C   UNL     1     -10.293  18.733  67.390  1.00  0.00    -0.418 C  
HETATM   29  O   UNL     1      -9.656  17.956  68.292  1.00  0.00    -0.286 OA 
HETATM   30  O   UNL     1     -10.791  19.812  67.681  1.00  0.00    -0.392 OA 
ENDBRANCH  26  27
ENDBRANCH  13  26
TORSDOF 9
ENDMDL
MODEL       81
REMARK 921   NORMALIZED FREE ENERGY PREDICTED BY IDOCK:   -4.50 KCAL/MOL
REMARK 922        TOTAL FREE ENERGY PREDICTED BY IDOCK:   -8.96 KCAL/MOL
REMARK 923 INTER-LIGAND FREE ENERGY PREDICTED BY IDOCK:   -7.50 KCAL/MOL
REMARK 924 INTRA-LIGAND FREE ENERGY PREDICTED BY IDOCK:   -1.46 KCAL/MOL
REMARK 927      BINDING AFFINITY PREDICTED BY RF-SCORE:    0.00 PKD
ROOT
HETATM    1  C   UNL     1     -10.012  12.138  68.469  1.00  0.00    -0.180 C  
HETATM    2  C   UNL     1     -11.234  12.203  69.384  1.00  0.00    -0.248 C  
HETATM    3  C   UNL     1     -11.544  10.729  69.666  1.00  0.00    -0.316 C  
HETATM    4  O   UNL     1     -12.946  10.504  69.627  1.00  0.00    -0.595 OA 
HETATM    5  C   UNL     1     -10.856   9.903  68.545  1.00  0.00    -0.257 C  
HETATM    6  H   UNL     1     -13.138   9.589  69.801  1.00  0.00     0.000 HD 
HETATM    7  C   UNL     1     -12.022  12.989  64.762  1.00  0.00    -0.443 A  
HETATM    8  C   UNL     1     -10.334  10.971  67.551  1.00  0.00    -0.233 C  
HETATM    9  C   UNL     1     -11.990  14.238  64.161  1.00  0.00    -0.401 A  
HETATM   10  C   UNL     1     -11.405  11.345  66.516  1.00  0.00    -0.195 C  
HETATM   11  C   UNL     1     -11.233  15.253  64.735  1.00  0.00    -0.405 A  
HETATM   12  C   UNL     1     -11.285  12.736  65.931  1.00  0.00    -0.334 A  
HETATM   13  C   UNL     1     -10.511  15.047  65.922  1.00  0.00    -0.328 A  
HETATM   14  C   UNL     1     -10.527  13.772  66.542  1.00  0.00    -0.282 A  
HETATM   15  C   UNL     1      -9.678  13.425  67.738  1.00  0.00    -0.216 C  
ENDROOT
BRANCH   5  16
HETATM   16  C   UNL     1      -9.672   9.056  69.063  1.00  0.00    -0.167 C  
BRANCH  16  17
HETATM   17  C   UNL     1      -8.727   9.768  70.033  1.00  0.00    -0.237 C  
BRANCH  17  18
HETATM   18  C   UNL     1      -7.246   9.777  69.634  1.00  0.00    -0.097 C  
HETATM   19  O   UNL     1      -7.110   9.273  68.306  1.00  0.00    -0.074 OA 
HETATM   20  H   UNL     1      -6.193   9.278  68.059  1.00  0.00     0.000 HD 
BRANCH  18  21
HETATM   21  C   UNL     1      -6.661  11.197  69.648  1.00  0.00    -0.139 C  
BRANCH  21  22
HETATM   22  C   UNL     1      -6.296  11.700  68.251  1.00  0.00    -0.050 C  
BRANCH  22  23
HETATM   23  C   UNL     1      -5.901  13.174  68.247  1.00  0.00    -0.087 C  
BRANCH  23  24
HETATM   24  C   UNL     1      -6.659  13.919  69.346  1.00  0.00    -0.114 C  
HETATM   25  C   UNL     1      -5.933  15.182  69.771  1.00  0.00    -0.132 C  
ENDBRANCH  23  24
ENDBRANCH  22  23
ENDBRANCH  21  22
ENDBRANCH  18  21
ENDBRANCH  17  18
ENDBRANCH  16  17
ENDBRANCH   5  16
BRANCH  13  26
HETATM   26  O   UNL     1      -9.819  16.180  66.285  1.00  0.00    -0.267 OA 
BRANCH  26  27
HETATM   27  C   UNL     1     -10.329  16.974  67.349  1.00  0.00    -0.319 C  
HETATM   28  C   UNL     1     -10.503  18.426  66.940  1.00  0.00    -0.389 C  
HETATM   29  O   UNL     1     -10.205  18.661  65.644  1.00  0.00    -0.536 OA 
HETATM   30  O   UNL     1     -10.885  19.304  67.701  1.00  0.00    -0.458 OA 
ENDBRANCH  26  27
ENDBRANCH  13  26
TORSDOF 9
ENDMDL
MODEL       82
REMARK 921   NORMALIZED FREE ENERGY PREDICTED BY IDOCK:   -4.48 KCAL/MOL
REMARK 922        TOTAL FREE ENERGY PREDICTED BY IDOCK:   -8.93 KCAL/MOL
REMARK 923 INTER-LIGAND FREE ENERGY PREDICTED BY IDOCK:   -7.65 KCAL/MOL
REMARK 924 INTRA-LIGAND FREE ENERGY PREDICTED BY IDOCK:   -1.28 KCAL/MOL
REMARK 927      BINDING AFFINITY PREDICTED BY RF-SCORE:    0.00 PKD
ROOT
HETATM    1  C   UNL     1     -10.534  12.144  67.520  1.00  0.00    -0.229 C  
HETATM    2  C   UNL     1      -9.078  12.084  67.979  1.00  0.00    -0.188 C  
HETATM    3  C   UNL     1      -8.499  10.920  67.168  1.00  0.00    -0.128 C  
HETATM    4  O   UNL     1      -7.646  10.128  67.982  1.00  0.00    -0.087 OA 
HETATM    5  C   UNL     1      -9.703  10.062  66.692  1.00  0.00    -0.246 C  
HETATM    6  H   UNL     1      -7.288   9.405  67.479  1.00  0.00     0.000 HD 
HETATM    7  C   UNL     1     -12.304  10.297  70.978  1.00  0.00    -0.483 A  
HETATM    8  C   UNL     1     -10.923  10.679  67.422  1.00  0.00    -0.361 C  
HETATM    9  C   UNL     1     -12.937  11.022  71.976  1.00  0.00    -0.398 A  
HETATM   10  C   UNL     1     -11.120  10.052  68.811  1.00  0.00    -0.219 C  
HETATM   11  C   UNL     1     -13.066  12.400  71.840  1.00  0.00    -0.471 A  
HETATM   12  C   UNL     1     -11.810  10.934  69.829  1.00  0.00    -0.419 A  
HETATM   13  C   UNL     1     -12.555  13.077  70.721  1.00  0.00    -0.241 A  
HETATM   14  C   UNL     1     -11.914  12.346  69.689  1.00  0.00    -0.341 A  
HETATM   15  C   UNL     1     -11.458  12.971  68.395  1.00  0.00    -0.345 C  
ENDROOT
BRANCH   5  16
HETATM   16  C   UNL     1      -9.924  10.133  65.165  1.00  0.00    -0.379 C  
BRANCH  16  17
HETATM   17  C   UNL     1      -8.739  10.654  64.350  1.00  0.00    -0.145 C  
BRANCH  17  18
HETATM   18  C   UNL     1      -8.000   9.609  63.505  1.00  0.00    -0.140 C  
HETATM   19  O   UNL     1      -6.815  10.191  62.962  1.00  0.00    -0.129 OA 
HETATM   20  H   UNL     1      -6.358   9.544  62.439  1.00  0.00     0.000 HD 
BRANCH  18  21
HETATM   21  C   UNL     1      -7.573   8.396  64.345  1.00  0.00    -0.115 C  
BRANCH  21  22
HETATM   22  C   UNL     1      -7.679   7.079  63.577  1.00  0.00    -0.114 C  
BRANCH  22  23
HETATM   23  C   UNL     1      -8.184   5.934  64.451  1.00  0.00    -0.099 C  
BRANCH  23  24
HETATM   24  C   UNL     1      -8.387   6.424  65.884  1.00  0.00    -0.143 C  
HETATM   25  C   UNL     1      -8.269   5.291  66.886  1.00  0.00    -0.108 C  
ENDBRANCH  23  24
ENDBRANCH  22  23
ENDBRANCH  21  22
ENDBRANCH  18  21
ENDBRANCH  17  18
ENDBRANCH  16  17
ENDBRANCH   5  16
BRANCH  13  26
HETATM   26  O   UNL     1     -12.824  14.426  70.791  1.00  0.00    -0.341 OA 
BRANCH  26  27
HETATM   27  C   UNL     1     -11.882  15.271  71.440  1.00  0.00    -0.372 C  
HETATM   28  C   UNL     1     -12.519  16.076  72.558  1.00  0.00    -0.473 C  
HETATM   29  O   UNL     1     -13.823  15.785  72.758  1.00  0.00    -0.581 OA 
HETATM   30  O   UNL     1     -11.915  16.903  73.227  1.00  0.00    -0.357 OA 
ENDBRANCH  26  27
ENDBRANCH  13  26
TORSDOF 9
ENDMDL
MODEL       83
REMARK 921   NORMALIZED FREE ENERGY PREDICTED BY IDOCK:   -4.47 KCAL/MOL
REMARK 922        TOTAL FREE ENERGY PREDICTED BY IDOCK:   -8.91 KCAL/MOL
REMARK 923 INTER-LIGAND FREE ENERGY PREDICTED BY IDOCK:   -7.14 KCAL/MOL
REMARK 924 INTRA-LIGAND FREE ENERGY PREDICTED BY IDOCK:   -1.77 KCAL/MOL
REMARK 927      BINDING AFFINITY PREDICTED BY RF-SCORE:    0.00 PKD
ROOT
HETATM    1  C   UNL     1      -9.400   8.021  70.188  1.00  0.00    -0.156 C  
HETATM    2  C   UNL     1      -8.531   8.040  71.445  1.00  0.00    -0.142 C  
HETATM    3  C   UNL     1      -8.338   6.554  71.763  1.00  0.00    -0.116 C  
HETATM    4  O   UNL     1      -8.442   6.332  73.163  1.00  0.00    -0.117 OA 
HETATM    5  C   UNL     1      -9.472   5.787  71.031  1.00  0.00    -0.195 C  
HETATM    6  H   UNL     1      -8.323   5.410  73.360  1.00  0.00     0.000 HD 
HETATM    7  C   UNL     1     -13.133   9.064  72.054  1.00  0.00    -0.474 A  
HETATM    8  C   UNL     1     -10.389   6.904  70.473  1.00  0.00    -0.224 C  
HETATM    9  C   UNL     1     -13.668  10.342  72.001  1.00  0.00    -0.164 A  
HETATM   10  C   UNL     1     -11.444   7.331  71.504  1.00  0.00    -0.292 C  
HETATM   11  C   UNL     1     -13.013  11.326  71.268  1.00  0.00    -0.427 A  
HETATM   12  C   UNL     1     -11.952   8.750  71.363  1.00  0.00    -0.367 A  
HETATM   13  C   UNL     1     -11.811  11.059  70.593  1.00  0.00    -0.333 A  
HETATM   14  C   UNL     1     -11.259   9.753  70.631  1.00  0.00    -0.402 A  
HETATM   15  C   UNL     1     -10.051   9.344  69.828  1.00  0.00    -0.229 C  
ENDROOT
BRANCH   5  16
HETATM   16  C   UNL     1      -8.953   4.913  69.868  1.00  0.00    -0.138 C  
BRANCH  16  17
HETATM   17  C   UNL     1     -10.006   4.489  68.842  1.00  0.00    -0.131 C  
BRANCH  17  18
HETATM   18  C   UNL     1      -9.820   5.048  67.426  1.00  0.00    -0.176 C  
HETATM   19  O   UNL     1      -9.917   3.985  66.480  1.00  0.00    -0.337 OA 
HETATM   20  H   UNL     1      -9.802   4.331  65.603  1.00  0.00     0.000 HD 
BRANCH  18  21
HETATM   21  C   UNL     1     -10.904   6.077  67.073  1.00  0.00    -0.413 C  
BRANCH  21  22
HETATM   22  C   UNL     1     -10.334   7.473  66.818  1.00  0.00    -0.332 C  
BRANCH  22  23
HETATM   23  C   UNL     1      -8.808   7.489  66.831  1.00  0.00    -0.145 C  
BRANCH  23  24
HETATM   24  C   UNL     1      -8.280   7.895  65.455  1.00  0.00    -0.139 C  
HETATM   25  C   UNL     1      -7.917   6.684  64.615  1.00  0.00    -0.113 C  
ENDBRANCH  23  24
ENDBRANCH  22  23
ENDBRANCH  21  22
ENDBRANCH  18  21
ENDBRANCH  17  18
ENDBRANCH  16  17
ENDBRANCH   5  16
BRANCH  13  26
HETATM   26  O   UNL     1     -11.364  12.171  69.916  1.00  0.00    -0.173 OA 
BRANCH  26  27
HETATM   27  C   UNL     1     -11.605  12.254  68.517  1.00  0.00    -0.310 C  
HETATM   28  C   UNL     1     -11.896  13.677  68.075  1.00  0.00    -0.362 C  
HETATM   29  O   UNL     1     -11.805  14.581  69.074  1.00  0.00    -0.299 OA 
HETATM   30  O   UNL     1     -12.178  13.986  66.926  1.00  0.00    -0.436 OA 
ENDBRANCH  26  27
ENDBRANCH  13  26
TORSDOF 9
ENDMDL
MODEL       84
REMARK 921   NORMALIZED FREE ENERGY PREDICTED BY IDOCK:   -4.46 KCAL/MOL
REMARK 922        TOTAL FREE ENERGY PREDICTED BY IDOCK:   -8.90 KCAL/MOL
REMARK 923 INTER-LIGAND FREE ENERGY PREDICTED BY IDOCK:   -7.24 KCAL/MOL
REMARK 924 INTRA-LIGAND FREE ENERGY PREDICTED BY IDOCK:   -1.66 KCAL/MOL
REMARK 927      BINDING AFFINITY PREDICTED BY RF-SCORE:    0.00 PKD
ROOT
HETATM    1  C   UNL     1     -11.935   7.682  70.584  1.00  0.00    -0.122 C  
HETATM    2  C   UNL     1     -13.227   7.258  71.283  1.00  0.00    -0.352 C  
HETATM    3  C   UNL     1     -13.846   8.589  71.719  1.00  0.00    -0.413 C  
HETATM    4  O   UNL     1     -14.389   8.474  73.027  1.00  0.00    -0.963 OA 
HETATM    5  C   UNL     1     -12.701   9.637  71.725  1.00  0.00    -0.510 C  
HETATM    6  H   UNL     1     -14.774   9.300  73.298  1.00  0.00     0.000 HD 
HETATM    7  C   UNL     1      -9.206   6.655  73.747  1.00  0.00    -0.176 A  
HETATM    8  C   UNL     1     -11.420   8.803  71.470  1.00  0.00    -0.375 C  
HETATM    9  C   UNL     1      -8.441   5.499  73.732  1.00  0.00    -0.114 A  
HETATM   10  C   UNL     1     -10.833   8.262  72.782  1.00  0.00    -0.308 C  
HETATM   11  C   UNL     1      -8.502   4.654  72.629  1.00  0.00    -0.115 A  
HETATM   12  C   UNL     1     -10.024   6.989  72.655  1.00  0.00    -0.196 A  
HETATM   13  C   UNL     1      -9.335   4.937  71.534  1.00  0.00    -0.149 A  
HETATM   14  C   UNL     1     -10.115   6.121  71.532  1.00  0.00    -0.227 A  
HETATM   15  C   UNL     1     -10.929   6.571  70.346  1.00  0.00    -0.353 C  
ENDROOT
BRANCH   5  16
HETATM   16  C   UNL     1     -12.854  10.701  70.616  1.00  0.00    -0.404 C  
BRANCH  16  17
HETATM   17  C   UNL     1     -11.550  11.328  70.119  1.00  0.00    -0.393 C  
BRANCH  17  18
HETATM   18  C   UNL     1     -11.682  12.285  68.928  1.00  0.00    -0.328 C  
HETATM   19  O   UNL     1     -10.624  13.241  68.969  1.00  0.00    -0.383 OA 
HETATM   20  H   UNL     1     -10.706  13.834  68.232  1.00  0.00     0.000 HD 
BRANCH  18  21
HETATM   21  C   UNL     1     -11.579  11.543  67.587  1.00  0.00    -0.320 C  
BRANCH  21  22
HETATM   22  C   UNL     1     -10.299  11.881  66.822  1.00  0.00    -0.238 C  
BRANCH  22  23
HETATM   23  C   UNL     1      -9.449  10.647  66.535  1.00  0.00    -0.199 C  
BRANCH  23  24
HETATM   24  C   UNL     1      -9.896   9.488  67.427  1.00  0.00    -0.218 C  
HETATM   25  C   UNL     1      -8.908   9.233  68.551  1.00  0.00    -0.129 C  
ENDBRANCH  23  24
ENDBRANCH  22  23
ENDBRANCH  21  22
ENDBRANCH  18  21
ENDBRANCH  17  18
ENDBRANCH  16  17
ENDBRANCH   5  16
BRANCH  13  26
HETATM   26  O   UNL     1      -9.208   3.978  70.554  1.00  0.00    -0.102 OA 
BRANCH  26  27
HETATM   27  C   UNL     1      -8.075   4.034  69.696  1.00  0.00    -0.054 C  
HETATM   28  C   UNL     1      -7.176   2.823  69.865  1.00  0.00    -0.040 C  
HETATM   29  O   UNL     1      -7.656   1.912  70.738  1.00  0.00    -0.033 OA 
HETATM   30  O   UNL     1      -6.120   2.674  69.265  1.00  0.00    -0.023 OA 
ENDBRANCH  26  27
ENDBRANCH  13  26
TORSDOF 9
ENDMDL
MODEL       85
REMARK 921   NORMALIZED FREE ENERGY PREDICTED BY IDOCK:   -4.44 KCAL/MOL
REMARK 922        TOTAL FREE ENERGY PREDICTED BY IDOCK:   -8.87 KCAL/MOL
REMARK 923 INTER-LIGAND FREE ENERGY PREDICTED BY IDOCK:   -8.04 KCAL/MOL
REMARK 924 INTRA-LIGAND FREE ENERGY PREDICTED BY IDOCK:   -0.83 KCAL/MOL
REMARK 927      BINDING AFFINITY PREDICTED BY RF-SCORE:    0.00 PKD
ROOT
HETATM    1  C   UNL     1     -10.316  11.286  66.849  1.00  0.00    -0.272 C  
HETATM    2  C   UNL     1      -8.909  11.154  67.432  1.00  0.00    -0.139 C  
HETATM    3  C   UNL     1      -8.867   9.705  67.928  1.00  0.00    -0.119 C  
HETATM    4  O   UNL     1      -8.213   9.633  69.187  1.00  0.00    -0.107 OA 
HETATM    5  C   UNL     1     -10.341   9.241  68.083  1.00  0.00    -0.261 C  
HETATM    6  H   UNL     1      -8.187   8.735  69.494  1.00  0.00     0.000 HD 
HETATM    7  C   UNL     1     -12.074  13.503  70.089  1.00  0.00    -0.425 A  
HETATM    8  C   UNL     1     -11.173  10.527  67.847  1.00  0.00    -0.358 C  
HETATM    9  C   UNL     1     -12.284  14.873  70.036  1.00  0.00    -0.381 A  
HETATM   10  C   UNL     1     -11.361  11.320  69.149  1.00  0.00    -0.349 C  
HETATM   11  C   UNL     1     -11.973  15.565  68.870  1.00  0.00    -0.306 A  
HETATM   12  C   UNL     1     -11.570  12.809  68.977  1.00  0.00    -0.366 A  
HETATM   13  C   UNL     1     -11.435  14.911  67.750  1.00  0.00    -0.338 A  
HETATM   14  C   UNL     1     -11.225  13.509  67.789  1.00  0.00    -0.308 A  
HETATM   15  C   UNL     1     -10.781  12.708  66.591  1.00  0.00    -0.275 C  
ENDROOT
BRANCH   5  16
HETATM   16  C   UNL     1     -10.745   8.166  67.050  1.00  0.00    -0.247 C  
BRANCH  16  17
HETATM   17  C   UNL     1      -9.650   7.165  66.678  1.00  0.00    -0.226 C  
BRANCH  17  18
HETATM   18  C   UNL     1     -10.054   5.686  66.727  1.00  0.00    -0.197 C  
HETATM   19  O   UNL     1     -11.115   5.454  65.802  1.00  0.00    -0.729 OA 
HETATM   20  H   UNL     1     -11.365   4.538  65.833  1.00  0.00     0.000 HD 
BRANCH  18  21
HETATM   21  C   UNL     1      -8.891   4.764  66.333  1.00  0.00    -0.113 C  
BRANCH  21  22
HETATM   22  C   UNL     1      -9.363   3.418  65.784  1.00  0.00    -0.144 C  
BRANCH  22  23
HETATM   23  C   UNL     1      -8.476   2.908  64.651  1.00  0.00    -0.091 C  
BRANCH  23  24
HETATM   24  C   UNL     1      -8.534   3.874  63.469  1.00  0.00    -0.094 C  
HETATM   25  C   UNL     1      -9.831   3.735  62.693  1.00  0.00    -0.137 C  
ENDBRANCH  23  24
ENDBRANCH  22  23
ENDBRANCH  21  22
ENDBRANCH  18  21
ENDBRANCH  17  18
ENDBRANCH  16  17
ENDBRANCH   5  16
BRANCH  13  26
HETATM   26  O   UNL     1     -11.235  15.791  66.710  1.00  0.00    -0.188 OA 
BRANCH  26  27
HETATM   27  C   UNL     1     -10.785  17.106  67.013  1.00  0.00    -0.149 C  
HETATM   28  C   UNL     1     -10.648  17.959  65.765  1.00  0.00    -0.174 C  
HETATM   29  O   UNL     1     -11.038  17.331  64.636  1.00  0.00    -1.052 OA 
HETATM   30  O   UNL     1     -10.234  19.110  65.774  1.00  0.00    -0.498 OA 
ENDBRANCH  26  27
ENDBRANCH  13  26
TORSDOF 9
ENDMDL
MODEL       86
REMARK 921   NORMALIZED FREE ENERGY PREDICTED BY IDOCK:   -4.44 KCAL/MOL
REMARK 922        TOTAL FREE ENERGY PREDICTED BY IDOCK:   -8.87 KCAL/MOL
REMARK 923 INTER-LIGAND FREE ENERGY PREDICTED BY IDOCK:   -7.82 KCAL/MOL
REMARK 924 INTRA-LIGAND FREE ENERGY PREDICTED BY IDOCK:   -1.04 KCAL/MOL
REMARK 927      BINDING AFFINITY PREDICTED BY RF-SCORE:    0.00 PKD
ROOT
HETATM    1  C   UNL     1     -11.774   7.159  70.371  1.00  0.00    -0.273 C  
HETATM    2  C   UNL     1     -11.685   6.448  71.722  1.00  0.00    -0.376 C  
HETATM    3  C   UNL     1     -11.777   7.596  72.732  1.00  0.00    -0.223 C  
HETATM    4  O   UNL     1     -10.858   7.391  73.796  1.00  0.00    -0.499 OA 
HETATM    5  C   UNL     1     -11.403   8.896  71.969  1.00  0.00    -0.427 C  
HETATM    6  H   UNL     1     -10.915   8.103  74.422  1.00  0.00     0.000 HD 
HETATM    7  C   UNL     1      -7.604   6.942  69.334  1.00  0.00    -0.099 A  
HETATM    8  C   UNL     1     -10.923   8.400  70.582  1.00  0.00    -0.266 C  
HETATM    9  C   UNL     1      -7.101   6.013  68.436  1.00  0.00    -0.082 A  
HETATM   10  C   UNL     1      -9.425   8.063  70.594  1.00  0.00    -0.167 C  
HETATM   11  C   UNL     1      -7.975   5.146  67.790  1.00  0.00    -0.095 A  
HETATM   12  C   UNL     1      -8.984   7.028  69.582  1.00  0.00    -0.141 A  
HETATM   13  C   UNL     1      -9.357   5.178  68.039  1.00  0.00    -0.121 A  
HETATM   14  C   UNL     1      -9.886   6.130  68.947  1.00  0.00    -0.167 A  
HETATM   15  C   UNL     1     -11.363   6.326  69.170  1.00  0.00    -0.358 C  
ENDROOT
BRANCH   5  16
HETATM   16  C   UNL     1     -12.602   9.853  71.790  1.00  0.00    -0.506 C  
BRANCH  16  17
HETATM   17  C   UNL     1     -12.342  11.076  70.907  1.00  0.00    -0.503 C  
BRANCH  17  18
HETATM   18  C   UNL     1     -13.195  12.313  71.215  1.00  0.00     0.019 C  
HETATM   19  O   UNL     1     -13.375  12.425  72.626  1.00  0.00    -0.554 OA 
HETATM   20  H   UNL     1     -13.903  13.191  72.816  1.00  0.00     0.000 HD 
BRANCH  18  21
HETATM   21  C   UNL     1     -12.518  13.605  70.734  1.00  0.00    -0.432 C  
BRANCH  21  22
HETATM   22  C   UNL     1     -11.450  13.352  69.670  1.00  0.00    -0.274 C  
BRANCH  22  23
HETATM   23  C   UNL     1     -11.916  13.749  68.272  1.00  0.00    -0.392 C  
BRANCH  23  24
HETATM   24  C   UNL     1     -11.752  12.570  67.313  1.00  0.00    -0.431 C  
HETATM   25  C   UNL     1     -12.088  12.957  65.885  1.00  0.00    -0.503 C  
ENDBRANCH  23  24
ENDBRANCH  22  23
ENDBRANCH  21  22
ENDBRANCH  18  21
ENDBRANCH  17  18
ENDBRANCH  16  17
ENDBRANCH   5  16
BRANCH  13  26
HETATM   26  O   UNL     1     -10.022   4.252  67.267  1.00  0.00    -0.179 OA 
BRANCH  26  27
HETATM   27  C   UNL     1     -10.475   4.645  65.978  1.00  0.00    -0.264 C  
HETATM   28  C   UNL     1      -9.954   3.724  64.889  1.00  0.00    -0.171 C  
HETATM   29  O   UNL     1      -9.228   2.688  65.361  1.00  0.00    -0.150 OA 
HETATM   30  O   UNL     1     -10.175   3.890  63.697  1.00  0.00    -0.186 OA 
ENDBRANCH  26  27
ENDBRANCH  13  26
TORSDOF 9
ENDMDL
MODEL       87
REMARK 921   NORMALIZED FREE ENERGY PREDICTED BY IDOCK:   -4.42 KCAL/MOL
REMARK 922        TOTAL FREE ENERGY PREDICTED BY IDOCK:   -8.84 KCAL/MOL
REMARK 923 INTER-LIGAND FREE ENERGY PREDICTED BY IDOCK:   -6.77 KCAL/MOL
REMARK 924 INTRA-LIGAND FREE ENERGY PREDICTED BY IDOCK:   -2.07 KCAL/MOL
REMARK 927      BINDING AFFINITY PREDICTED BY RF-SCORE:    0.00 PKD
ROOT
HETATM    1  C   UNL     1      -8.553   7.712  70.943  1.00  0.00    -0.129 C  
HETATM    2  C   UNL     1      -7.784   8.253  72.149  1.00  0.00    -0.162 C  
HETATM    3  C   UNL     1      -7.503   6.998  72.981  1.00  0.00    -0.073 C  
HETATM    4  O   UNL     1      -7.694   7.269  74.362  1.00  0.00    -0.120 OA 
HETATM    5  C   UNL     1      -8.517   5.917  72.520  1.00  0.00    -0.116 C  
HETATM    6  H   UNL     1      -7.520   6.490  74.878  1.00  0.00     0.000 HD 
HETATM    7  C   UNL     1     -12.483   8.971  72.157  1.00  0.00    -0.450 A  
HETATM    8  C   UNL     1      -9.472   6.674  71.563  1.00  0.00    -0.159 C  
HETATM    9  C   UNL     1     -13.109  10.092  71.632  1.00  0.00    -0.547 A  
HETATM   10  C   UNL     1     -10.631   7.329  72.329  1.00  0.00    -0.257 C  
HETATM   11  C   UNL     1     -12.477  10.817  70.626  1.00  0.00    -0.461 A  
HETATM   12  C   UNL     1     -11.233   8.553  71.673  1.00  0.00    -0.361 A  
HETATM   13  C   UNL     1     -11.211  10.449  70.142  1.00  0.00    -0.321 A  
HETATM   14  C   UNL     1     -10.566   9.300  70.664  1.00  0.00    -0.324 A  
HETATM   15  C   UNL     1      -9.273   8.756  70.110  1.00  0.00    -0.179 C  
ENDROOT
BRANCH   5  16
HETATM   16  C   UNL     1      -7.848   4.747  71.764  1.00  0.00    -0.099 C  
BRANCH  16  17
HETATM   17  C   UNL     1      -8.803   3.811  71.021  1.00  0.00    -0.134 C  
BRANCH  17  18
HETATM   18  C   UNL     1      -8.316   3.310  69.655  1.00  0.00    -0.052 C  
HETATM   19  O   UNL     1      -8.020   1.917  69.739  1.00  0.00    -0.042 OA 
HETATM   20  H   UNL     1      -7.719   1.607  68.894  1.00  0.00     0.000 HD 
BRANCH  18  21
HETATM   21  C   UNL     1      -9.387   3.487  68.569  1.00  0.00    -0.229 C  
BRANCH  21  22
HETATM   22  C   UNL     1      -9.509   4.934  68.089  1.00  0.00    -0.178 C  
BRANCH  22  23
HETATM   23  C   UNL     1     -10.783   5.608  68.589  1.00  0.00    -0.249 C  
BRANCH  23  24
HETATM   24  C   UNL     1     -11.063   6.866  67.768  1.00  0.00    -0.223 C  
HETATM   25  C   UNL     1      -9.973   7.121  66.742  1.00  0.00    -0.278 C  
ENDBRANCH  23  24
ENDBRANCH  22  23
ENDBRANCH  21  22
ENDBRANCH  18  21
ENDBRANCH  17  18
ENDBRANCH  16  17
ENDBRANCH   5  16
BRANCH  13  26
HETATM   26  O   UNL     1     -10.801  11.294  69.135  1.00  0.00    -0.212 OA 
BRANCH  26  27
HETATM   27  C   UNL     1     -11.788  12.041  68.435  1.00  0.00    -0.300 C  
HETATM   28  C   UNL     1     -11.569  12.002  66.933  1.00  0.00    -0.318 C  
HETATM   29  O   UNL     1     -10.532  11.221  66.559  1.00  0.00    -0.235 OA 
HETATM   30  O   UNL     1     -12.265  12.608  66.130  1.00  0.00    -0.568 OA 
ENDBRANCH  26  27
ENDBRANCH  13  26
TORSDOF 9
ENDMDL
MODEL       88
REMARK 921   NORMALIZED FREE ENERGY PREDICTED BY IDOCK:   -4.42 KCAL/MOL
REMARK 922        TOTAL FREE ENERGY PREDICTED BY IDOCK:   -8.83 KCAL/MOL
REMARK 923 INTER-LIGAND FREE ENERGY PREDICTED BY IDOCK:   -6.62 KCAL/MOL
REMARK 924 INTRA-LIGAND FREE ENERGY PREDICTED BY IDOCK:   -2.21 KCAL/MOL
REMARK 927      BINDING AFFINITY PREDICTED BY RF-SCORE:    0.00 PKD
ROOT
HETATM    1  C   UNL     1     -11.112  10.291  68.958  1.00  0.00    -0.277 C  
HETATM    2  C   UNL     1     -11.421  11.497  69.843  1.00  0.00    -0.340 C  
HETATM    3  C   UNL     1     -11.208  12.689  68.905  1.00  0.00    -0.280 C  
HETATM    4  O   UNL     1     -10.537  13.740  69.586  1.00  0.00    -0.437 OA 
HETATM    5  C   UNL     1     -10.323  12.184  67.733  1.00  0.00    -0.217 C  
HETATM    6  H   UNL     1     -10.405  14.479  69.003  1.00  0.00     0.000 HD 
HETATM    7  C   UNL     1      -7.201   9.416  70.524  1.00  0.00    -0.126 A  
HETATM    8  C   UNL     1      -9.906  10.754  68.158  1.00  0.00    -0.171 C  
HETATM    9  C   UNL     1      -6.966   8.392  71.428  1.00  0.00    -0.072 A  
HETATM   10  C   UNL     1      -8.632  10.773  69.016  1.00  0.00    -0.143 C  
HETATM   11  C   UNL     1      -8.017   7.565  71.811  1.00  0.00    -0.094 A  
HETATM   12  C   UNL     1      -8.480   9.615  69.978  1.00  0.00    -0.223 A  
HETATM   13  C   UNL     1      -9.317   7.755  71.314  1.00  0.00    -0.152 A  
HETATM   14  C   UNL     1      -9.569   8.792  70.381  1.00  0.00    -0.210 A  
HETATM   15  C   UNL     1     -10.898   8.981  69.695  1.00  0.00    -0.196 C  
ENDROOT
BRANCH   5  16
HETATM   16  C   UNL     1     -11.082  12.124  66.389  1.00  0.00    -0.358 C  
BRANCH  16  17
HETATM   17  C   UNL     1     -10.203  12.063  65.138  1.00  0.00    -0.308 C  
BRANCH  17  18
HETATM   18  C   UNL     1     -10.482  10.895  64.184  1.00  0.00    -0.327 C  
HETATM   19  O   UNL     1     -10.986  11.401  62.949  1.00  0.00    -0.770 OA 
HETATM   20  H   UNL     1     -11.159  10.678  62.358  1.00  0.00     0.000 HD 
BRANCH  18  21
HETATM   21  C   UNL     1      -9.206  10.100  63.868  1.00  0.00    -0.322 C  
BRANCH  21  22
HETATM   22  C   UNL     1      -8.371   9.802  65.113  1.00  0.00    -0.146 C  
BRANCH  22  23
HETATM   23  C   UNL     1      -8.961   8.671  65.952  1.00  0.00    -0.245 C  
BRANCH  23  24
HETATM   24  C   UNL     1      -7.857   7.994  66.763  1.00  0.00    -0.103 C  
HETATM   25  C   UNL     1      -8.394   6.836  67.584  1.00  0.00    -0.123 C  
ENDBRANCH  23  24
ENDBRANCH  22  23
ENDBRANCH  21  22
ENDBRANCH  18  21
ENDBRANCH  17  18
ENDBRANCH  16  17
ENDBRANCH   5  16
BRANCH  13  26
HETATM   26  O   UNL     1     -10.181   6.804  71.809  1.00  0.00    -0.191 OA 
BRANCH  26  27
HETATM   27  C   UNL     1      -9.709   5.469  71.950  1.00  0.00    -0.162 C  
HETATM   28  C   UNL     1     -10.114   4.598  70.774  1.00  0.00    -0.194 C  
HETATM   29  O   UNL     1     -10.777   5.270  69.808  1.00  0.00    -0.286 OA 
HETATM   30  O   UNL     1      -9.860   3.404  70.696  1.00  0.00    -0.153 OA 
ENDBRANCH  26  27
ENDBRANCH  13  26
TORSDOF 9
ENDMDL
MODEL       89
REMARK 921   NORMALIZED FREE ENERGY PREDICTED BY IDOCK:   -4.41 KCAL/MOL
REMARK 922        TOTAL FREE ENERGY PREDICTED BY IDOCK:   -8.82 KCAL/MOL
REMARK 923 INTER-LIGAND FREE ENERGY PREDICTED BY IDOCK:   -7.33 KCAL/MOL
REMARK 924 INTRA-LIGAND FREE ENERGY PREDICTED BY IDOCK:   -1.48 KCAL/MOL
REMARK 927      BINDING AFFINITY PREDICTED BY RF-SCORE:    0.00 PKD
ROOT
HETATM    1  C   UNL     1     -10.711  12.505  69.212  1.00  0.00     0.021 C  
HETATM    2  C   UNL     1     -12.114  12.384  69.806  1.00  0.00    -0.292 C  
HETATM    3  C   UNL     1     -12.188  10.917  70.241  1.00  0.00    -0.348 C  
HETATM    4  O   UNL     1     -13.462  10.372  69.924  1.00  0.00    -0.422 OA 
HETATM    5  C   UNL     1     -11.089  10.158  69.450  1.00  0.00    -0.288 C  
HETATM    6  H   UNL     1     -13.507   9.462  70.194  1.00  0.00     0.000 HD 
HETATM    7  C   UNL     1     -11.839  12.475  65.061  1.00  0.00    -0.445 A  
HETATM    8  C   UNL     1     -10.552  11.205  68.442  1.00  0.00    -0.223 C  
HETATM    9  C   UNL     1     -11.903  13.626  64.292  1.00  0.00    -0.464 A  
HETATM   10  C   UNL     1     -11.378  11.211  67.147  1.00  0.00    -0.257 C  
HETATM   11  C   UNL     1     -11.532  14.843  64.853  1.00  0.00    -0.407 A  
HETATM   12  C   UNL     1     -11.389  12.522  66.391  1.00  0.00    -0.379 A  
HETATM   13  C   UNL     1     -11.110  14.936  66.190  1.00  0.00    -0.335 A  
HETATM   14  C   UNL     1     -11.032  13.764  66.985  1.00  0.00    -0.297 A  
HETATM   15  C   UNL     1     -10.463  13.750  68.380  1.00  0.00    -0.256 C  
ENDROOT
BRANCH   5  16
HETATM   16  C   UNL     1      -9.933   9.665  70.349  1.00  0.00    -0.330 C  
BRANCH  16  17
HETATM   17  C   UNL     1     -10.155   8.310  71.023  1.00  0.00    -0.230 C  
BRANCH  17  18
HETATM   18  C   UNL     1      -9.616   7.091  70.264  1.00  0.00    -0.168 C  
HETATM   19  O   UNL     1     -10.487   5.980  70.473  1.00  0.00    -0.213 OA 
HETATM   20  H   UNL     1     -10.153   5.226  70.002  1.00  0.00     0.000 HD 
BRANCH  18  21
HETATM   21  C   UNL     1      -9.552   7.346  68.751  1.00  0.00    -0.147 C  
BRANCH  21  22
HETATM   22  C   UNL     1      -8.119   7.374  68.217  1.00  0.00    -0.125 C  
BRANCH  22  23
HETATM   23  C   UNL     1      -7.920   8.438  67.141  1.00  0.00    -0.104 C  
BRANCH  23  24
HETATM   24  C   UNL     1      -7.142   9.621  67.717  1.00  0.00    -0.081 C  
HETATM   25  C   UNL     1      -7.455  10.910  66.980  1.00  0.00    -0.122 C  
ENDBRANCH  23  24
ENDBRANCH  22  23
ENDBRANCH  21  22
ENDBRANCH  18  21
ENDBRANCH  17  18
ENDBRANCH  16  17
ENDBRANCH   5  16
BRANCH  13  26
HETATM   26  O   UNL     1     -10.770  16.229  66.514  1.00  0.00    -0.284 OA 
BRANCH  26  27
HETATM   27  C   UNL     1      -9.410  16.515  66.820  1.00  0.00    -0.243 C  
HETATM   28  C   UNL     1      -9.266  17.222  68.156  1.00  0.00    -0.267 C  
HETATM   29  O   UNL     1     -10.436  17.379  68.812  1.00  0.00    -0.348 OA 
HETATM   30  O   UNL     1      -8.197  17.606  68.607  1.00  0.00    -0.279 OA 
ENDBRANCH  26  27
ENDBRANCH  13  26
TORSDOF 9
ENDMDL
MODEL       90
REMARK 921   NORMALIZED FREE ENERGY PREDICTED BY IDOCK:   -4.40 KCAL/MOL
REMARK 922        TOTAL FREE ENERGY PREDICTED BY IDOCK:   -8.81 KCAL/MOL
REMARK 923 INTER-LIGAND FREE ENERGY PREDICTED BY IDOCK:   -8.19 KCAL/MOL
REMARK 924 INTRA-LIGAND FREE ENERGY PREDICTED BY IDOCK:   -0.63 KCAL/MOL
REMARK 927      BINDING AFFINITY PREDICTED BY RF-SCORE:    0.00 PKD
ROOT
HETATM    1  C   UNL     1      -9.556  12.441  67.445  1.00  0.00    -0.184 C  
HETATM    2  C   UNL     1      -8.960  13.107  66.205  1.00  0.00     0.098 C  
HETATM    3  C   UNL     1     -10.171  13.769  65.543  1.00  0.00    -0.316 C  
HETATM    4  O   UNL     1     -10.119  13.597  64.134  1.00  0.00    -0.757 OA 
HETATM    5  C   UNL     1     -11.434  13.061  66.104  1.00  0.00    -0.381 C  
HETATM    6  H   UNL     1     -10.871  14.008  63.723  1.00  0.00     0.000 HD 
HETATM    7  C   UNL     1      -9.578   8.399  65.973  1.00  0.00    -0.196 A  
HETATM    8  C   UNL     1     -10.870  11.879  66.932  1.00  0.00    -0.305 C  
HETATM    9  C   UNL     1      -8.624   7.461  66.338  1.00  0.00    -0.138 A  
HETATM   10  C   UNL     1     -10.651  10.635  66.058  1.00  0.00    -0.195 C  
HETATM   11  C   UNL     1      -7.646   7.808  67.263  1.00  0.00    -0.104 A  
HETATM   12  C   UNL     1      -9.577   9.684  66.540  1.00  0.00    -0.252 A  
HETATM   13  C   UNL     1      -7.592   9.094  67.826  1.00  0.00    -0.085 A  
HETATM   14  C   UNL     1      -8.568  10.059  67.468  1.00  0.00    -0.122 A  
HETATM   15  C   UNL     1      -8.667  11.414  68.122  1.00  0.00    -0.154 C  
ENDROOT
BRANCH   5  16
HETATM   16  C   UNL     1     -12.281  13.975  67.017  1.00  0.00    -0.387 C  
BRANCH  16  17
HETATM   17  C   UNL     1     -11.593  14.445  68.300  1.00  0.00    -0.359 C  
BRANCH  17  18
HETATM   18  C   UNL     1     -12.309  14.090  69.609  1.00  0.00    -0.260 C  
HETATM   19  O   UNL     1     -11.478  13.228  70.385  1.00  0.00    -0.516 OA 
HETATM   20  H   UNL     1     -11.922  13.009  71.196  1.00  0.00     0.000 HD 
BRANCH  18  21
HETATM   21  C   UNL     1     -12.597  15.338  70.457  1.00  0.00    -0.450 C  
BRANCH  21  22
HETATM   22  C   UNL     1     -14.005  15.335  71.052  1.00  0.00    -0.368 C  
BRANCH  22  23
HETATM   23  C   UNL     1     -14.003  15.614  72.552  1.00  0.00    -0.615 C  
BRANCH  23  24
HETATM   24  C   UNL     1     -12.855  14.858  73.221  1.00  0.00    -0.646 C  
HETATM   25  C   UNL     1     -12.358  15.577  74.462  1.00  0.00    -0.756 C  
ENDBRANCH  23  24
ENDBRANCH  22  23
ENDBRANCH  21  22
ENDBRANCH  18  21
ENDBRANCH  17  18
ENDBRANCH  16  17
ENDBRANCH   5  16
BRANCH  13  26
HETATM   26  O   UNL     1      -6.561   9.196  68.733  1.00  0.00    -0.052 OA 
BRANCH  26  27
HETATM   27  C   UNL     1      -6.723   8.595  70.012  1.00  0.00    -0.039 C  
HETATM   28  C   UNL     1      -6.517   9.594  71.137  1.00  0.00     0.000 C  
HETATM   29  O   UNL     1      -6.289  10.853  70.706  1.00  0.00    -0.346 OA 
HETATM   30  O   UNL     1      -6.561   9.297  72.323  1.00  0.00    -0.302 OA 
ENDBRANCH  26  27
ENDBRANCH  13  26
TORSDOF 9
ENDMDL
MODEL       91
REMARK 921   NORMALIZED FREE ENERGY PREDICTED BY IDOCK:   -4.40 KCAL/MOL
REMARK 922        TOTAL FREE ENERGY PREDICTED BY IDOCK:   -8.81 KCAL/MOL
REMARK 923 INTER-LIGAND FREE ENERGY PREDICTED BY IDOCK:   -8.02 KCAL/MOL
REMARK 924 INTRA-LIGAND FREE ENERGY PREDICTED BY IDOCK:   -0.79 KCAL/MOL
REMARK 927      BINDING AFFINITY PREDICTED BY RF-SCORE:    0.00 PKD
ROOT
HETATM    1  C   UNL     1     -12.158   8.086  70.507  1.00  0.00     0.127 C  
HETATM    2  C   UNL     1     -13.411   7.629  71.253  1.00  0.00    -0.283 C  
HETATM    3  C   UNL     1     -13.819   8.870  72.052  1.00  0.00    -0.456 C  
HETATM    4  O   UNL     1     -14.234   8.500  73.360  1.00  0.00    -0.874 OA 
HETATM    5  C   UNL     1     -12.563   9.778  72.145  1.00  0.00    -0.367 C  
HETATM    6  H   UNL     1     -14.487   9.270  73.856  1.00  0.00     0.000 HD 
HETATM    7  C   UNL     1      -9.257   6.094  72.981  1.00  0.00    -0.133 A  
HETATM    8  C   UNL     1     -11.424   8.914  71.547  1.00  0.00    -0.391 C  
HETATM    9  C   UNL     1      -8.641   4.909  72.610  1.00  0.00    -0.119 A  
HETATM   10  C   UNL     1     -10.772   8.026  72.618  1.00  0.00    -0.426 C  
HETATM   11  C   UNL     1      -8.916   4.359  71.363  1.00  0.00    -0.164 A  
HETATM   12  C   UNL     1     -10.139   6.751  72.106  1.00  0.00    -0.198 A  
HETATM   13  C   UNL     1      -9.818   4.968  70.475  1.00  0.00    -0.219 A  
HETATM   14  C   UNL     1     -10.448   6.185  70.839  1.00  0.00    -0.282 A  
HETATM   15  C   UNL     1     -11.322   6.975  69.899  1.00  0.00    -0.260 C  
ENDROOT
BRANCH   5  16
HETATM   16  C   UNL     1     -12.703  11.084  71.332  1.00  0.00    -0.534 C  
BRANCH  16  17
HETATM   17  C   UNL     1     -13.302  12.270  72.090  1.00  0.00    -0.473 C  
BRANCH  17  18
HETATM   18  C   UNL     1     -13.356  13.595  71.317  1.00  0.00    -0.189 C  
HETATM   19  O   UNL     1     -13.256  14.683  72.235  1.00  0.00    -0.327 OA 
HETATM   20  H   UNL     1     -13.290  15.502  71.757  1.00  0.00     0.000 HD 
BRANCH  18  21
HETATM   21  C   UNL     1     -12.192  13.723  70.324  1.00  0.00    -0.429 C  
BRANCH  21  22
HETATM   22  C   UNL     1     -11.454  15.056  70.449  1.00  0.00    -0.321 C  
BRANCH  22  23
HETATM   23  C   UNL     1     -11.640  15.942  69.220  1.00  0.00    -0.372 C  
BRANCH  23  24
HETATM   24  C   UNL     1     -11.752  15.075  67.965  1.00  0.00    -0.320 C  
HETATM   25  C   UNL     1     -10.397  14.561  67.516  1.00  0.00    -0.244 C  
ENDBRANCH  23  24
ENDBRANCH  22  23
ENDBRANCH  21  22
ENDBRANCH  18  21
ENDBRANCH  17  18
ENDBRANCH  16  17
ENDBRANCH   5  16
BRANCH  13  26
HETATM   26  O   UNL     1      -9.909   4.261  69.297  1.00  0.00    -0.187 OA 
BRANCH  26  27
HETATM   27  C   UNL     1      -8.790   4.263  68.419  1.00  0.00    -0.107 C  
HETATM   28  C   UNL     1      -9.153   4.789  67.041  1.00  0.00    -0.118 C  
HETATM   29  O   UNL     1     -10.433   5.207  66.943  1.00  0.00    -0.242 OA 
HETATM   30  O   UNL     1      -8.365   4.842  66.107  1.00  0.00    -0.110 OA 
ENDBRANCH  26  27
ENDBRANCH  13  26
TORSDOF 9
ENDMDL
MODEL       92
REMARK 921   NORMALIZED FREE ENERGY PREDICTED BY IDOCK:   -4.40 KCAL/MOL
REMARK 922        TOTAL FREE ENERGY PREDICTED BY IDOCK:   -8.81 KCAL/MOL
REMARK 923 INTER-LIGAND FREE ENERGY PREDICTED BY IDOCK:   -7.96 KCAL/MOL
REMARK 924 INTRA-LIGAND FREE ENERGY PREDICTED BY IDOCK:   -0.85 KCAL/MOL
REMARK 927      BINDING AFFINITY PREDICTED BY RF-SCORE:    0.00 PKD
ROOT
HETATM    1  C   UNL     1      -9.707  12.075  67.612  1.00  0.00    -0.187 C  
HETATM    2  C   UNL     1     -10.738  12.131  68.739  1.00  0.00    -0.252 C  
HETATM    3  C   UNL     1     -11.331  10.719  68.746  1.00  0.00    -0.288 C  
HETATM    4  O   UNL     1     -12.738  10.776  68.934  1.00  0.00    -0.647 OA 
HETATM    5  C   UNL     1     -11.019  10.094  67.360  1.00  0.00    -0.295 C  
HETATM    6  H   UNL     1     -13.106   9.900  68.938  1.00  0.00     0.000 HD 
HETATM    7  C   UNL     1     -11.984  14.206  64.648  1.00  0.00    -0.459 A  
HETATM    8  C   UNL     1     -10.416  11.264  66.541  1.00  0.00    -0.299 C  
HETATM    9  C   UNL     1     -11.756  15.538  64.340  1.00  0.00    -0.243 A  
HETATM   10  C   UNL     1     -11.513  12.083  65.844  1.00  0.00    -0.392 C  
HETATM   11  C   UNL     1     -10.713  16.213  64.964  1.00  0.00    -0.359 A  
HETATM   12  C   UNL     1     -11.164  13.529  65.565  1.00  0.00    -0.304 A  
HETATM   13  C   UNL     1      -9.893  15.580  65.913  1.00  0.00    -0.353 A  
HETATM   14  C   UNL     1     -10.110  14.215  66.229  1.00  0.00    -0.308 A  
HETATM   15  C   UNL     1      -9.198  13.421  67.130  1.00  0.00    -0.240 C  
ENDROOT
BRANCH   5  16
HETATM   16  C   UNL     1      -9.998   8.938  67.438  1.00  0.00    -0.267 C  
BRANCH  16  17
HETATM   17  C   UNL     1     -10.177   7.978  68.616  1.00  0.00    -0.225 C  
BRANCH  17  18
HETATM   18  C   UNL     1     -11.179   6.837  68.400  1.00  0.00    -0.060 C  
HETATM   19  O   UNL     1     -11.516   6.759  67.015  1.00  0.00    -0.735 OA 
HETATM   20  H   UNL     1     -12.136   6.052  66.881  1.00  0.00     0.000 HD 
BRANCH  18  21
HETATM   21  C   UNL     1     -10.592   5.478  68.807  1.00  0.00    -0.236 C  
BRANCH  21  22
HETATM   22  C   UNL     1      -9.479   5.010  67.870  1.00  0.00    -0.164 C  
BRANCH  22  23
HETATM   23  C   UNL     1      -9.670   3.566  67.415  1.00  0.00    -0.061 C  
BRANCH  23  24
HETATM   24  C   UNL     1      -8.966   3.344  66.076  1.00  0.00    -0.143 C  
HETATM   25  C   UNL     1      -9.720   3.995  64.931  1.00  0.00    -0.193 C  
ENDBRANCH  23  24
ENDBRANCH  22  23
ENDBRANCH  21  22
ENDBRANCH  18  21
ENDBRANCH  17  18
ENDBRANCH  16  17
ENDBRANCH   5  16
BRANCH  13  26
HETATM   26  O   UNL     1      -8.915  16.433  66.372  1.00  0.00    -0.251 OA 
BRANCH  26  27
HETATM   27  C   UNL     1      -9.278  17.432  67.317  1.00  0.00    -0.234 C  
HETATM   28  C   UNL     1      -8.116  18.354  67.642  1.00  0.00    -0.249 C  
HETATM   29  O   UNL     1      -7.001  18.087  66.930  1.00  0.00    -0.179 OA 
HETATM   30  O   UNL     1      -8.178  19.260  68.461  1.00  0.00    -0.342 OA 
ENDBRANCH  26  27
ENDBRANCH  13  26
TORSDOF 9
ENDMDL
MODEL       93
REMARK 921   NORMALIZED FREE ENERGY PREDICTED BY IDOCK:   -4.40 KCAL/MOL
REMARK 922        TOTAL FREE ENERGY PREDICTED BY IDOCK:   -8.80 KCAL/MOL
REMARK 923 INTER-LIGAND FREE ENERGY PREDICTED BY IDOCK:   -7.98 KCAL/MOL
REMARK 924 INTRA-LIGAND FREE ENERGY PREDICTED BY IDOCK:   -0.82 KCAL/MOL
REMARK 927      BINDING AFFINITY PREDICTED BY RF-SCORE:    0.00 PKD
ROOT
HETATM    1  C   UNL     1     -11.344  11.713  67.949  1.00  0.00    -0.369 C  
HETATM    2  C   UNL     1     -11.730  12.426  69.244  1.00  0.00    -0.386 C  
HETATM    3  C   UNL     1     -11.474  13.902  68.924  1.00  0.00    -0.301 C  
HETATM    4  O   UNL     1     -10.866  14.549  70.033  1.00  0.00    -0.442 OA 
HETATM    5  C   UNL     1     -10.507  13.938  67.710  1.00  0.00    -0.243 C  
HETATM    6  H   UNL     1     -10.707  15.465  69.834  1.00  0.00     0.000 HD 
HETATM    7  C   UNL     1      -7.531  10.196  69.240  1.00  0.00    -0.111 A  
HETATM    8  C   UNL     1     -10.096  12.457  67.506  1.00  0.00    -0.205 C  
HETATM    9  C   UNL     1      -7.340   8.880  69.631  1.00  0.00    -0.056 A  
HETATM   10  C   UNL     1      -8.882  12.088  68.371  1.00  0.00    -0.149 C  
HETATM   11  C   UNL     1      -8.400   7.983  69.552  1.00  0.00    -0.127 A  
HETATM   12  C   UNL     1      -8.775  10.627  68.751  1.00  0.00    -0.157 A  
HETATM   13  C   UNL     1      -9.668   8.386  69.100  1.00  0.00    -0.171 A  
HETATM   14  C   UNL     1      -9.874   9.727  68.688  1.00  0.00    -0.168 A  
HETATM   15  C   UNL     1     -11.158  10.211  68.065  1.00  0.00    -0.302 C  
ENDROOT
BRANCH   5  16
HETATM   16  C   UNL     1     -11.175  14.470  66.424  1.00  0.00    -0.341 C  
BRANCH  16  17
HETATM   17  C   UNL     1     -10.348  15.475  65.619  1.00  0.00    -0.407 C  
BRANCH  17  18
HETATM   18  C   UNL     1      -9.563  16.503  66.443  1.00  0.00    -0.285 C  
HETATM   19  O   UNL     1      -8.283  16.709  65.847  1.00  0.00    -0.405 OA 
HETATM   20  H   UNL     1      -7.796  17.345  66.357  1.00  0.00     0.000 HD 
BRANCH  18  21
HETATM   21  C   UNL     1     -10.274  17.864  66.484  1.00  0.00    -0.379 C  
BRANCH  21  22
HETATM   22  C   UNL     1     -10.570  18.333  67.909  1.00  0.00    -0.392 C  
BRANCH  22  23
HETATM   23  C   UNL     1     -10.048  19.741  68.178  1.00  0.00    -0.574 C  
BRANCH  23  24
HETATM   24  C   UNL     1      -9.251  20.240  66.973  1.00  0.00    -0.503 C  
HETATM   25  C   UNL     1      -7.786  20.443  67.315  1.00  0.00    -0.372 C  
ENDBRANCH  23  24
ENDBRANCH  22  23
ENDBRANCH  21  22
ENDBRANCH  18  21
ENDBRANCH  17  18
ENDBRANCH  16  17
ENDBRANCH   5  16
BRANCH  13  26
HETATM   26  O   UNL     1     -10.547   7.327  69.081  1.00  0.00    -0.212 OA 
BRANCH  26  27
HETATM   27  C   UNL     1     -10.149   6.106  69.692  1.00  0.00    -0.179 C  
HETATM   28  C   UNL     1     -10.723   5.958  71.090  1.00  0.00    -0.265 C  
HETATM   29  O   UNL     1     -11.542   6.971  71.447  1.00  0.00    -0.264 OA 
HETATM   30  O   UNL     1     -10.481   5.011  71.826  1.00  0.00    -0.211 OA 
ENDBRANCH  26  27
ENDBRANCH  13  26
TORSDOF 9
ENDMDL
MODEL       94
REMARK 921   NORMALIZED FREE ENERGY PREDICTED BY IDOCK:   -4.40 KCAL/MOL
REMARK 922        TOTAL FREE ENERGY PREDICTED BY IDOCK:   -8.80 KCAL/MOL
REMARK 923 INTER-LIGAND FREE ENERGY PREDICTED BY IDOCK:   -7.55 KCAL/MOL
REMARK 924 INTRA-LIGAND FREE ENERGY PREDICTED BY IDOCK:   -1.24 KCAL/MOL
REMARK 927      BINDING AFFINITY PREDICTED BY RF-SCORE:    0.00 PKD
ROOT
HETATM    1  C   UNL     1     -10.320  14.482  66.502  1.00  0.00    -0.283 C  
HETATM    2  C   UNL     1     -10.093  13.630  65.254  1.00  0.00    -0.297 C  
HETATM    3  C   UNL     1     -10.381  12.207  65.740  1.00  0.00    -0.258 C  
HETATM    4  O   UNL     1      -9.431  11.299  65.199  1.00  0.00    -0.219 OA 
HETATM    5  C   UNL     1     -10.256  12.226  67.287  1.00  0.00    -0.222 C  
HETATM    6  H   UNL     1      -9.610  10.416  65.501  1.00  0.00     0.000 HD 
HETATM    7  C   UNL     1      -6.190  15.163  67.494  1.00  0.00    -0.079 A  
HETATM    8  C   UNL     1      -9.706  13.640  67.607  1.00  0.00    -0.228 C  
HETATM    9  C   UNL     1      -5.535  16.351  67.209  1.00  0.00    -0.137 A  
HETATM   10  C   UNL     1      -8.172  13.670  67.555  1.00  0.00    -0.189 C  
HETATM   11  C   UNL     1      -6.244  17.400  66.632  1.00  0.00    -0.239 A  
HETATM   12  C   UNL     1      -7.560  15.014  67.223  1.00  0.00    -0.227 A  
HETATM   13  C   UNL     1      -7.607  17.276  66.315  1.00  0.00    -0.325 A  
HETATM   14  C   UNL     1      -8.291  16.069  66.611  1.00  0.00    -0.331 A  
HETATM   15  C   UNL     1      -9.777  15.898  66.431  1.00  0.00    -0.310 C  
ENDROOT
BRANCH   5  16
HETATM   16  C   UNL     1     -11.609  12.023  68.003  1.00  0.00    -0.407 C  
BRANCH  16  17
HETATM   17  C   UNL     1     -11.747  10.720  68.793  1.00  0.00    -0.315 C  
BRANCH  17  18
HETATM   18  C   UNL     1     -10.516  10.299  69.605  1.00  0.00    -0.253 C  
HETATM   19  O   UNL     1     -10.922   9.916  70.918  1.00  0.00    -0.319 OA 
HETATM   20  H   UNL     1     -10.160   9.656  71.421  1.00  0.00     0.000 HD 
BRANCH  18  21
HETATM   21  C   UNL     1      -9.803   9.094  68.975  1.00  0.00    -0.176 C  
BRANCH  21  22
HETATM   22  C   UNL     1     -10.595   8.474  67.823  1.00  0.00    -0.242 C  
BRANCH  22  23
HETATM   23  C   UNL     1      -9.732   8.232  66.588  1.00  0.00    -0.321 C  
BRANCH  23  24
HETATM   24  C   UNL     1      -8.468   7.465  66.978  1.00  0.00    -0.118 C  
HETATM   25  C   UNL     1      -8.571   5.994  66.617  1.00  0.00    -0.113 C  
ENDBRANCH  23  24
ENDBRANCH  22  23
ENDBRANCH  21  22
ENDBRANCH  18  21
ENDBRANCH  17  18
ENDBRANCH  16  17
ENDBRANCH   5  16
BRANCH  13  26
HETATM   26  O   UNL     1      -8.100  18.445  65.782  1.00  0.00    -0.502 OA 
BRANCH  26  27
HETATM   27  C   UNL     1      -8.285  19.559  66.647  1.00  0.00    -0.311 C  
HETATM   28  C   UNL     1      -9.732  20.016  66.681  1.00  0.00    -0.442 C  
HETATM   29  O   UNL     1     -10.559  19.244  65.945  1.00  0.00    -0.485 OA 
HETATM   30  O   UNL     1     -10.122  20.983  67.320  1.00  0.00    -0.208 OA 
ENDBRANCH  26  27
ENDBRANCH  13  26
TORSDOF 9
ENDMDL
MODEL       95
REMARK 921   NORMALIZED FREE ENERGY PREDICTED BY IDOCK:   -4.37 KCAL/MOL
REMARK 922        TOTAL FREE ENERGY PREDICTED BY IDOCK:   -8.76 KCAL/MOL
REMARK 923 INTER-LIGAND FREE ENERGY PREDICTED BY IDOCK:   -7.08 KCAL/MOL
REMARK 924 INTRA-LIGAND FREE ENERGY PREDICTED BY IDOCK:   -1.68 KCAL/MOL
REMARK 927      BINDING AFFINITY PREDICTED BY RF-SCORE:    0.00 PKD
ROOT
HETATM    1  C   UNL     1     -10.402  13.678  67.541  1.00  0.00    -0.241 C  
HETATM    2  C   UNL     1     -10.490  13.158  66.106  1.00  0.00    -0.287 C  
HETATM    3  C   UNL     1     -11.028  11.734  66.280  1.00  0.00    -0.300 C  
HETATM    4  O   UNL     1     -10.356  10.842  65.402  1.00  0.00    -0.268 OA 
HETATM    5  C   UNL     1     -10.747  11.323  67.750  1.00  0.00    -0.265 C  
HETATM    6  H   UNL     1     -10.690   9.959  65.510  1.00  0.00     0.000 HD 
HETATM    7  C   UNL     1      -6.143  13.305  68.026  1.00  0.00    -0.122 A  
HETATM    8  C   UNL     1      -9.876  12.477  68.308  1.00  0.00    -0.227 C  
HETATM    9  C   UNL     1      -5.279  14.385  67.934  1.00  0.00    -0.063 A  
HETATM   10  C   UNL     1      -8.384  12.238  68.032  1.00  0.00    -0.165 C  
HETATM   11  C   UNL     1      -5.799  15.660  67.737  1.00  0.00    -0.163 A  
HETATM   12  C   UNL     1      -7.533  13.486  67.940  1.00  0.00    -0.153 A  
HETATM   13  C   UNL     1      -7.182  15.876  67.611  1.00  0.00    -0.159 A  
HETATM   14  C   UNL     1      -8.077  14.781  67.712  1.00  0.00    -0.161 A  
HETATM   15  C   UNL     1      -9.575  14.938  67.725  1.00  0.00    -0.208 C  
ENDROOT
BRANCH   5  16
HETATM   16  C   UNL     1     -12.033  11.191  68.595  1.00  0.00    -0.289 C  
BRANCH  16  17
HETATM   17  C   UNL     1     -11.853  11.371  70.103  1.00  0.00    -0.440 C  
BRANCH  17  18
HETATM   18  C   UNL     1     -12.241  10.165  70.969  1.00  0.00    -0.374 C  
HETATM   19  O   UNL     1     -13.580   9.776  70.665  1.00  0.00    -0.600 OA 
HETATM   20  H   UNL     1     -13.820   9.030  71.201  1.00  0.00     0.000 HD 
BRANCH  18  21
HETATM   21  C   UNL     1     -11.337   8.954  70.697  1.00  0.00    -0.299 C  
BRANCH  21  22
HETATM   22  C   UNL     1     -10.204   8.822  71.714  1.00  0.00    -0.408 C  
BRANCH  22  23
HETATM   23  C   UNL     1      -8.826   8.946  71.069  1.00  0.00    -0.285 C  
BRANCH  23  24
HETATM   24  C   UNL     1      -8.925   8.665  69.570  1.00  0.00    -0.145 C  
HETATM   25  C   UNL     1      -7.571   8.333  68.971  1.00  0.00    -0.089 C  
ENDBRANCH  23  24
ENDBRANCH  22  23
ENDBRANCH  21  22
ENDBRANCH  18  21
ENDBRANCH  17  18
ENDBRANCH  16  17
ENDBRANCH   5  16
BRANCH  13  26
HETATM   26  O   UNL     1      -7.462  17.214  67.450  1.00  0.00    -0.153 OA 
BRANCH  26  27
HETATM   27  C   UNL     1      -6.620  17.985  66.601  1.00  0.00    -0.198 C  
HETATM   28  C   UNL     1      -7.409  18.989  65.781  1.00  0.00    -0.200 C  
HETATM   29  O   UNL     1      -8.729  18.998  66.063  1.00  0.00    -0.459 OA 
HETATM   30  O   UNL     1      -6.904  19.731  64.949  1.00  0.00    -0.361 OA 
ENDBRANCH  26  27
ENDBRANCH  13  26
TORSDOF 9
ENDMDL
MODEL       96
REMARK 921   NORMALIZED FREE ENERGY PREDICTED BY IDOCK:   -4.34 KCAL/MOL
REMARK 922        TOTAL FREE ENERGY PREDICTED BY IDOCK:   -8.72 KCAL/MOL
REMARK 923 INTER-LIGAND FREE ENERGY PREDICTED BY IDOCK:   -7.54 KCAL/MOL
REMARK 924 INTRA-LIGAND FREE ENERGY PREDICTED BY IDOCK:   -1.18 KCAL/MOL
REMARK 927      BINDING AFFINITY PREDICTED BY RF-SCORE:    0.00 PKD
ROOT
HETATM    1  C   UNL     1     -12.188   7.500  70.667  1.00  0.00    -0.068 C  
HETATM    2  C   UNL     1     -13.437   7.296  71.523  1.00  0.00    -0.439 C  
HETATM    3  C   UNL     1     -13.815   8.719  71.943  1.00  0.00    -0.442 C  
HETATM    4  O   UNL     1     -14.217   8.742  73.305  1.00  0.00    -1.164 OA 
HETATM    5  C   UNL     1     -12.544   9.593  71.764  1.00  0.00    -0.497 C  
HETATM    6  H   UNL     1     -14.451   9.625  73.566  1.00  0.00     0.000 HD 
HETATM    7  C   UNL     1      -9.284   6.235  73.578  1.00  0.00    -0.137 A  
HETATM    8  C   UNL     1     -11.426   8.574  71.425  1.00  0.00    -0.344 C  
HETATM    9  C   UNL     1      -8.690   4.982  73.552  1.00  0.00    -0.110 A  
HETATM   10  C   UNL     1     -10.774   8.014  72.697  1.00  0.00    -0.426 C  
HETATM   11  C   UNL     1      -8.991   4.107  72.513  1.00  0.00    -0.127 A  
HETATM   12  C   UNL     1     -10.167   6.634  72.561  1.00  0.00    -0.203 A  
HETATM   13  C   UNL     1      -9.896   4.457  71.498  1.00  0.00    -0.189 A  
HETATM   14  C   UNL     1     -10.502   5.739  71.508  1.00  0.00    -0.291 A  
HETATM   15  C   UNL     1     -11.377   6.247  70.391  1.00  0.00    -0.440 C  
ENDROOT
BRANCH   5  16
HETATM   16  C   UNL     1     -12.675  10.618  70.616  1.00  0.00    -0.445 C  
BRANCH  16  17
HETATM   17  C   UNL     1     -11.396  10.882  69.819  1.00  0.00    -0.374 C  
BRANCH  17  18
HETATM   18  C   UNL     1     -11.494  10.647  68.306  1.00  0.00    -0.245 C  
HETATM   19  O   UNL     1     -11.915  11.852  67.667  1.00  0.00    -0.575 OA 
HETATM   20  H   UNL     1     -11.975  11.707  66.730  1.00  0.00     0.000 HD 
BRANCH  18  21
HETATM   21  C   UNL     1     -10.137  10.256  67.702  1.00  0.00    -0.229 C  
BRANCH  21  22
HETATM   22  C   UNL     1      -9.092  11.364  67.828  1.00  0.00    -0.158 C  
BRANCH  22  23
HETATM   23  C   UNL     1      -7.972  11.000  68.799  1.00  0.00    -0.144 C  
BRANCH  23  24
HETATM   24  C   UNL     1      -7.166  12.249  69.156  1.00  0.00     0.041 C  
HETATM   25  C   UNL     1      -5.678  11.957  69.217  1.00  0.00    -0.067 C  
ENDBRANCH  23  24
ENDBRANCH  22  23
ENDBRANCH  21  22
ENDBRANCH  18  21
ENDBRANCH  17  18
ENDBRANCH  16  17
ENDBRANCH   5  16
BRANCH  13  26
HETATM   26  O   UNL     1     -10.014   3.448  70.569  1.00  0.00    -0.060 OA 
BRANCH  26  27
HETATM   27  C   UNL     1      -8.838   2.991  69.913  1.00  0.00    -0.091 C  
HETATM   28  C   UNL     1      -8.832   3.358  68.440  1.00  0.00    -0.119 C  
HETATM   29  O   UNL     1      -9.900   4.094  68.063  1.00  0.00    -0.122 OA 
HETATM   30  O   UNL     1      -7.944   3.033  67.664  1.00  0.00    -0.074 OA 
ENDBRANCH  26  27
ENDBRANCH  13  26
TORSDOF 9
ENDMDL
MODEL       97
REMARK 921   NORMALIZED FREE ENERGY PREDICTED BY IDOCK:   -4.33 KCAL/MOL
REMARK 922        TOTAL FREE ENERGY PREDICTED BY IDOCK:   -8.70 KCAL/MOL
REMARK 923 INTER-LIGAND FREE ENERGY PREDICTED BY IDOCK:   -6.75 KCAL/MOL
REMARK 924 INTRA-LIGAND FREE ENERGY PREDICTED BY IDOCK:   -1.94 KCAL/MOL
REMARK 927      BINDING AFFINITY PREDICTED BY RF-SCORE:    0.00 PKD
ROOT
HETATM    1  C   UNL     1     -10.324   8.053  68.417  1.00  0.00    -0.236 C  
HETATM    2  C   UNL     1      -9.154   8.347  69.355  1.00  0.00    -0.154 C  
HETATM    3  C   UNL     1      -9.443   9.769  69.845  1.00  0.00    -0.231 C  
HETATM    4  O   UNL     1      -8.244  10.530  69.885  1.00  0.00    -0.372 OA 
HETATM    5  C   UNL     1     -10.425  10.405  68.825  1.00  0.00    -0.219 C  
HETATM    6  H   UNL     1      -8.423  11.412  70.189  1.00  0.00     0.000 HD 
HETATM    7  C   UNL     1      -8.224   8.580  64.699  1.00  0.00    -0.162 A  
HETATM    8  C   UNL     1     -10.507   9.367  67.677  1.00  0.00    -0.328 C  
HETATM    9  C   UNL     1      -7.775   7.516  63.932  1.00  0.00    -0.125 A  
HETATM   10  C   UNL     1      -9.398   9.590  66.638  1.00  0.00    -0.207 C  
HETATM   11  C   UNL     1      -8.059   6.216  64.337  1.00  0.00    -0.102 A  
HETATM   12  C   UNL     1      -8.974   8.360  65.865  1.00  0.00    -0.223 A  
HETATM   13  C   UNL     1      -8.776   5.956  65.516  1.00  0.00    -0.129 A  
HETATM   14  C   UNL     1      -9.250   7.036  66.304  1.00  0.00    -0.166 A  
HETATM   15  C   UNL     1     -10.140   6.852  67.506  1.00  0.00    -0.222 C  
ENDROOT
BRANCH   5  16
HETATM   16  C   UNL     1     -11.834  10.639  69.412  1.00  0.00    -0.325 C  
BRANCH  16  17
HETATM   17  C   UNL     1     -11.933  10.567  70.937  1.00  0.00    -0.481 C  
BRANCH  17  18
HETATM   18  C   UNL     1     -12.988   9.600  71.491  1.00  0.00    -0.395 C  
HETATM   19  O   UNL     1     -14.105   9.560  70.605  1.00  0.00    -0.447 OA 
HETATM   20  H   UNL     1     -14.758   8.962  70.948  1.00  0.00     0.000 HD 
BRANCH  18  21
HETATM   21  C   UNL     1     -12.443   8.169  71.609  1.00  0.00    -0.349 C  
BRANCH  21  22
HETATM   22  C   UNL     1     -11.332   8.044  72.652  1.00  0.00    -0.469 C  
BRANCH  22  23
HETATM   23  C   UNL     1     -10.338   6.936  72.312  1.00  0.00    -0.219 C  
BRANCH  23  24
HETATM   24  C   UNL     1     -11.070   5.759  71.669  1.00  0.00    -0.290 C  
HETATM   25  C   UNL     1     -10.197   5.041  70.656  1.00  0.00    -0.306 C  
ENDBRANCH  23  24
ENDBRANCH  22  23
ENDBRANCH  21  22
ENDBRANCH  18  21
ENDBRANCH  17  18
ENDBRANCH  16  17
ENDBRANCH   5  16
BRANCH  13  26
HETATM   26  O   UNL     1      -8.959   4.603  65.697  1.00  0.00    -0.128 OA 
BRANCH  26  27
HETATM   27  C   UNL     1      -9.789   3.904  64.778  1.00  0.00    -0.197 C  
HETATM   28  C   UNL     1      -9.039   2.785  64.077  1.00  0.00    -0.107 C  
HETATM   29  O   UNL     1      -7.769   2.634  64.508  1.00  0.00    -0.074 OA 
HETATM   30  O   UNL     1      -9.534   2.076  63.212  1.00  0.00    -0.092 OA 
ENDBRANCH  26  27
ENDBRANCH  13  26
TORSDOF 9
ENDMDL
MODEL       98
REMARK 921   NORMALIZED FREE ENERGY PREDICTED BY IDOCK:   -4.32 KCAL/MOL
REMARK 922        TOTAL FREE ENERGY PREDICTED BY IDOCK:   -8.69 KCAL/MOL
REMARK 923 INTER-LIGAND FREE ENERGY PREDICTED BY IDOCK:   -7.76 KCAL/MOL
REMARK 924 INTRA-LIGAND FREE ENERGY PREDICTED BY IDOCK:   -0.93 KCAL/MOL
REMARK 927      BINDING AFFINITY PREDICTED BY RF-SCORE:    0.00 PKD
ROOT
HETATM    1  C   UNL     1      -9.753  12.247  67.527  1.00  0.00    -0.190 C  
HETATM    2  C   UNL     1     -10.742  12.285  68.692  1.00  0.00    -0.261 C  
HETATM    3  C   UNL     1     -11.231  10.837  68.788  1.00  0.00    -0.272 C  
HETATM    4  O   UNL     1     -12.631  10.804  69.029  1.00  0.00    -0.728 OA 
HETATM    5  C   UNL     1     -10.926  10.168  67.421  1.00  0.00    -0.295 C  
HETATM    6  H   UNL     1     -12.935   9.906  69.089  1.00  0.00     0.000 HD 
HETATM    7  C   UNL     1     -12.286  14.064  64.562  1.00  0.00    -0.463 A  
HETATM    8  C   UNL     1     -10.441  11.336  66.525  1.00  0.00    -0.299 C  
HETATM    9  C   UNL     1     -12.166  15.392  64.185  1.00  0.00    -0.075 A  
HETATM   10  C   UNL     1     -11.618  12.041  65.835  1.00  0.00    -0.364 C  
HETATM   11  C   UNL     1     -11.151  16.169  64.734  1.00  0.00    -0.345 A  
HETATM   12  C   UNL     1     -11.385  13.492  65.476  1.00  0.00    -0.310 A  
HETATM   13  C   UNL     1     -10.254  15.642  65.677  1.00  0.00    -0.375 A  
HETATM   14  C   UNL     1     -10.359  14.282  66.064  1.00  0.00    -0.318 A  
HETATM   15  C   UNL     1      -9.360  13.600  66.963  1.00  0.00    -0.249 C  
ENDROOT
BRANCH   5  16
HETATM   16  C   UNL     1      -9.823   9.091  67.510  1.00  0.00    -0.230 C  
BRANCH  16  17
HETATM   17  C   UNL     1     -10.206   7.816  68.264  1.00  0.00    -0.236 C  
BRANCH  17  18
HETATM   18  C   UNL     1     -10.446   6.575  67.395  1.00  0.00    -0.252 C  
HETATM   19  O   UNL     1     -11.716   6.684  66.755  1.00  0.00    -0.567 OA 
HETATM   20  H   UNL     1     -11.865   5.916  66.217  1.00  0.00     0.000 HD 
BRANCH  18  21
HETATM   21  C   UNL     1      -9.386   6.439  66.292  1.00  0.00    -0.149 C  
BRANCH  21  22
HETATM   22  C   UNL     1      -8.046   5.926  66.820  1.00  0.00    -0.102 C  
BRANCH  22  23
HETATM   23  C   UNL     1      -7.062   7.056  67.108  1.00  0.00    -0.083 C  
BRANCH  23  24
HETATM   24  C   UNL     1      -6.728   7.088  68.599  1.00  0.00    -0.063 C  
HETATM   25  C   UNL     1      -5.479   7.906  68.876  1.00  0.00    -0.026 C  
ENDBRANCH  23  24
ENDBRANCH  22  23
ENDBRANCH  21  22
ENDBRANCH  18  21
ENDBRANCH  17  18
ENDBRANCH  16  17
ENDBRANCH   5  16
BRANCH  13  26
HETATM   26  O   UNL     1      -9.323  16.583  66.056  1.00  0.00    -0.353 OA 
BRANCH  26  27
HETATM   27  C   UNL     1      -9.788  17.816  66.592  1.00  0.00    -0.322 C  
HETATM   28  C   UNL     1      -9.079  18.176  67.885  1.00  0.00    -0.265 C  
HETATM   29  O   UNL     1      -8.113  17.298  68.232  1.00  0.00    -0.227 OA 
HETATM   30  O   UNL     1      -9.343  19.168  68.550  1.00  0.00    -0.339 OA 
ENDBRANCH  26  27
ENDBRANCH  13  26
TORSDOF 9
ENDMDL
MODEL       99
REMARK 921   NORMALIZED FREE ENERGY PREDICTED BY IDOCK:   -4.31 KCAL/MOL
REMARK 922        TOTAL FREE ENERGY PREDICTED BY IDOCK:   -8.67 KCAL/MOL
REMARK 923 INTER-LIGAND FREE ENERGY PREDICTED BY IDOCK:   -7.82 KCAL/MOL
REMARK 924 INTRA-LIGAND FREE ENERGY PREDICTED BY IDOCK:   -0.85 KCAL/MOL
REMARK 927      BINDING AFFINITY PREDICTED BY RF-SCORE:    0.00 PKD
ROOT
HETATM    1  C   UNL     1     -10.625  12.408  69.029  1.00  0.00    -0.087 C  
HETATM    2  C   UNL     1     -12.013  12.289  69.658  1.00  0.00    -0.347 C  
HETATM    3  C   UNL     1     -12.054  10.841  70.154  1.00  0.00    -0.346 C  
HETATM    4  O   UNL     1     -13.324  10.264  69.887  1.00  0.00    -0.483 OA 
HETATM    5  C   UNL     1     -10.959  10.067  69.370  1.00  0.00    -0.280 C  
HETATM    6  H   UNL     1     -13.349   9.365  70.194  1.00  0.00     0.000 HD 
HETATM    7  C   UNL     1     -11.841  12.190  64.908  1.00  0.00    -0.366 A  
HETATM    8  C   UNL     1     -10.462  11.080  68.309  1.00  0.00    -0.212 C  
HETATM    9  C   UNL     1     -11.940  13.308  64.094  1.00  0.00    -0.505 A  
HETATM   10  C   UNL     1     -11.314  11.021  67.033  1.00  0.00    -0.164 C  
HETATM   11  C   UNL     1     -11.577  14.553  64.598  1.00  0.00    -0.413 A  
HETATM   12  C   UNL     1     -11.363  12.299  66.224  1.00  0.00    -0.395 A  
HETATM   13  C   UNL     1     -11.128  14.706  65.920  1.00  0.00    -0.338 A  
HETATM   14  C   UNL     1     -11.014  13.569  66.760  1.00  0.00    -0.297 A  
HETATM   15  C   UNL     1     -10.415  13.621  68.142  1.00  0.00    -0.250 C  
ENDROOT
BRANCH   5  16
HETATM   16  C   UNL     1      -9.777   9.629  70.262  1.00  0.00    -0.314 C  
BRANCH  16  17
HETATM   17  C   UNL     1     -10.160   9.026  71.615  1.00  0.00    -0.405 C  
BRANCH  17  18
HETATM   18  C   UNL     1     -10.160   7.493  71.685  1.00  0.00    -0.180 C  
HETATM   19  O   UNL     1     -11.151   6.979  70.796  1.00  0.00    -0.252 OA 
HETATM   20  H   UNL     1     -11.151   6.030  70.839  1.00  0.00     0.000 HD 
BRANCH  18  21
HETATM   21  C   UNL     1      -8.808   6.904  71.256  1.00  0.00    -0.135 C  
BRANCH  21  22
HETATM   22  C   UNL     1      -8.146   6.079  72.360  1.00  0.00    -0.109 C  
BRANCH  22  23
HETATM   23  C   UNL     1      -9.064   4.984  72.897  1.00  0.00    -0.127 C  
BRANCH  23  24
HETATM   24  C   UNL     1      -8.715   3.646  72.245  1.00  0.00    -0.109 C  
HETATM   25  C   UNL     1      -9.948   2.785  72.038  1.00  0.00    -0.226 C  
ENDBRANCH  23  24
ENDBRANCH  22  23
ENDBRANCH  21  22
ENDBRANCH  18  21
ENDBRANCH  17  18
ENDBRANCH  16  17
ENDBRANCH   5  16
BRANCH  13  26
HETATM   26  O   UNL     1     -10.802  16.018  66.184  1.00  0.00    -0.281 OA 
BRANCH  26  27
HETATM   27  C   UNL     1      -9.463  16.440  65.958  1.00  0.00    -0.310 C  
HETATM   28  C   UNL     1      -9.221  17.850  66.466  1.00  0.00    -0.273 C  
HETATM   29  O   UNL     1     -10.292  18.393  67.084  1.00  0.00    -0.358 OA 
HETATM   30  O   UNL     1      -8.158  18.442  66.342  1.00  0.00    -0.261 OA 
ENDBRANCH  26  27
ENDBRANCH  13  26
TORSDOF 9
ENDMDL
MODEL      100
REMARK 921   NORMALIZED FREE ENERGY PREDICTED BY IDOCK:   -4.30 KCAL/MOL
REMARK 922        TOTAL FREE ENERGY PREDICTED BY IDOCK:   -8.66 KCAL/MOL
REMARK 923 INTER-LIGAND FREE ENERGY PREDICTED BY IDOCK:   -7.11 KCAL/MOL
REMARK 924 INTRA-LIGAND FREE ENERGY PREDICTED BY IDOCK:   -1.54 KCAL/MOL
REMARK 927      BINDING AFFINITY PREDICTED BY RF-SCORE:    0.00 PKD
ROOT
HETATM    1  C   UNL     1     -11.646   7.274  69.710  1.00  0.00     0.048 C  
HETATM    2  C   UNL     1     -12.093   6.809  71.095  1.00  0.00    -0.422 C  
HETATM    3  C   UNL     1     -12.228   8.117  71.881  1.00  0.00    -0.331 C  
HETATM    4  O   UNL     1     -11.713   7.958  73.195  1.00  0.00    -0.630 OA 
HETATM    5  C   UNL     1     -11.393   9.184  71.123  1.00  0.00    -0.392 C  
HETATM    6  H   UNL     1     -11.797   8.769  73.683  1.00  0.00     0.000 HD 
HETATM    7  C   UNL     1      -7.492   6.210  70.061  1.00  0.00    -0.087 A  
HETATM    8  C   UNL     1     -10.653   8.380  70.025  1.00  0.00    -0.235 C  
HETATM    9  C   UNL     1      -6.958   5.068  69.483  1.00  0.00    -0.054 A  
HETATM   10  C   UNL     1      -9.323   7.814  70.545  1.00  0.00    -0.163 C  
HETATM   11  C   UNL     1      -7.772   4.253  68.705  1.00  0.00    -0.066 A  
HETATM   12  C   UNL     1      -8.837   6.559  69.853  1.00  0.00    -0.143 A  
HETATM   13  C   UNL     1      -9.130   4.550  68.504  1.00  0.00    -0.121 A  
HETATM   14  C   UNL     1      -9.686   5.720  69.081  1.00  0.00    -0.189 A  
HETATM   15  C   UNL     1     -11.093   6.187  68.806  1.00  0.00    -0.398 C  
ENDROOT
BRANCH   5  16
HETATM   16  C   UNL     1     -12.267  10.275  70.465  1.00  0.00    -0.390 C  
BRANCH  16  17
HETATM   17  C   UNL     1     -11.787  10.768  69.099  1.00  0.00    -0.347 C  
BRANCH  17  18
HETATM   18  C   UNL     1     -11.163  12.169  69.077  1.00  0.00    -0.260 C  
HETATM   19  O   UNL     1      -9.741  12.054  69.043  1.00  0.00    -0.412 OA 
HETATM   20  H   UNL     1      -9.355  12.921  69.030  1.00  0.00     0.000 HD 
BRANCH  18  21
HETATM   21  C   UNL     1     -11.589  12.963  67.833  1.00  0.00    -0.391 C  
BRANCH  21  22
HETATM   22  C   UNL     1     -11.739  12.082  66.593  1.00  0.00    -0.331 C  
BRANCH  22  23
HETATM   23  C   UNL     1     -10.456  12.012  65.770  1.00  0.00    -0.290 C  
BRANCH  23  24
HETATM   24  C   UNL     1     -10.195  10.571  65.333  1.00  0.00    -0.340 C  
HETATM   25  C   UNL     1      -9.534   9.762  66.433  1.00  0.00    -0.237 C  
ENDBRANCH  23  24
ENDBRANCH  22  23
ENDBRANCH  21  22
ENDBRANCH  18  21
ENDBRANCH  17  18
ENDBRANCH  16  17
ENDBRANCH   5  16
BRANCH  13  26
HETATM   26  O   UNL     1      -9.725   3.621  67.680  1.00  0.00    -0.176 OA 
BRANCH  26  27
HETATM   27  C   UNL     1      -9.083   3.294  66.454  1.00  0.00    -0.158 C  
HETATM   28  C   UNL     1      -9.830   3.855  65.257  1.00  0.00    -0.178 C  
HETATM   29  O   UNL     1     -10.906   4.599  65.592  1.00  0.00    -0.292 OA 
HETATM   30  O   UNL     1      -9.491   3.664  64.097  1.00  0.00    -0.131 OA 
ENDBRANCH  26  27
ENDBRANCH  13  26
TORSDOF 9
ENDMDL
MODEL      101
REMARK 921   NORMALIZED FREE ENERGY PREDICTED BY IDOCK:   -4.30 KCAL/MOL
REMARK 922        TOTAL FREE ENERGY PREDICTED BY IDOCK:   -8.65 KCAL/MOL
REMARK 923 INTER-LIGAND FREE ENERGY PREDICTED BY IDOCK:   -7.72 KCAL/MOL
REMARK 924 INTRA-LIGAND FREE ENERGY PREDICTED BY IDOCK:   -0.93 KCAL/MOL
REMARK 927      BINDING AFFINITY PREDICTED BY RF-SCORE:    0.00 PKD
ROOT
HETATM    1  C   UNL     1      -8.682   9.744  67.413  1.00  0.00    -0.133 C  
HETATM    2  C   UNL     1      -7.910   9.166  66.228  1.00  0.00    -0.103 C  
HETATM    3  C   UNL     1      -8.639   9.748  65.013  1.00  0.00    -0.162 C  
HETATM    4  O   UNL     1      -8.777   8.760  64.001  1.00  0.00    -0.396 OA 
HETATM    5  C   UNL     1     -10.046  10.187  65.502  1.00  0.00    -0.338 C  
HETATM    6  H   UNL     1      -9.230   9.121  63.247  1.00  0.00     0.000 HD 
HETATM    7  C   UNL     1     -10.904   6.204  68.432  1.00  0.00    -0.382 A  
HETATM    8  C   UNL     1     -10.128   9.655  66.955  1.00  0.00    -0.290 C  
HETATM    9  C   UNL     1     -10.556   5.377  69.490  1.00  0.00    -0.316 A  
HETATM   10  C   UNL     1     -10.646   8.210  66.994  1.00  0.00    -0.346 C  
HETATM   11  C   UNL     1      -9.482   5.724  70.302  1.00  0.00    -0.196 A  
HETATM   12  C   UNL     1     -10.197   7.392  68.185  1.00  0.00    -0.223 A  
HETATM   13  C   UNL     1      -8.729   6.886  70.065  1.00  0.00    -0.142 A  
HETATM   14  C   UNL     1      -9.081   7.745  68.993  1.00  0.00    -0.144 A  
HETATM   15  C   UNL     1      -8.417   9.076  68.750  1.00  0.00    -0.131 C  
ENDROOT
BRANCH   5  16
HETATM   16  C   UNL     1     -10.230  11.721  65.501  1.00  0.00    -0.291 C  
BRANCH  16  17
HETATM   17  C   UNL     1     -11.617  12.217  65.086  1.00  0.00    -0.402 C  
BRANCH  17  18
HETATM   18  C   UNL     1     -11.996  13.621  65.575  1.00  0.00    -0.384 C  
HETATM   19  O   UNL     1     -13.322  13.930  65.147  1.00  0.00    -0.698 OA 
HETATM   20  H   UNL     1     -13.557  14.798  65.450  1.00  0.00     0.000 HD 
BRANCH  18  21
HETATM   21  C   UNL     1     -11.975  13.714  67.108  1.00  0.00    -0.434 C  
BRANCH  21  22
HETATM   22  C   UNL     1     -10.924  14.696  67.626  1.00  0.00    -0.296 C  
BRANCH  22  23
HETATM   23  C   UNL     1     -11.509  15.713  68.603  1.00  0.00    -0.381 C  
BRANCH  23  24
HETATM   24  C   UNL     1     -10.736  17.029  68.509  1.00  0.00    -0.352 C  
HETATM   25  C   UNL     1      -9.369  16.833  67.880  1.00  0.00    -0.229 C  
ENDBRANCH  23  24
ENDBRANCH  22  23
ENDBRANCH  21  22
ENDBRANCH  18  21
ENDBRANCH  17  18
ENDBRANCH  16  17
ENDBRANCH   5  16
BRANCH  13  26
HETATM   26  O   UNL     1      -7.739   7.037  71.010  1.00  0.00    -0.089 OA 
BRANCH  26  27
HETATM   27  C   UNL     1      -8.112   7.062  72.382  1.00  0.00    -0.102 C  
HETATM   28  C   UNL     1      -7.622   8.319  73.079  1.00  0.00    -0.110 C  
HETATM   29  O   UNL     1      -6.995   9.184  72.254  1.00  0.00    -0.317 OA 
HETATM   30  O   UNL     1      -7.784   8.540  74.271  1.00  0.00    -0.333 OA 
ENDBRANCH  26  27
ENDBRANCH  13  26
TORSDOF 9
ENDMDL
MODEL      102
REMARK 921   NORMALIZED FREE ENERGY PREDICTED BY IDOCK:   -4.27 KCAL/MOL
REMARK 922        TOTAL FREE ENERGY PREDICTED BY IDOCK:   -8.61 KCAL/MOL
REMARK 923 INTER-LIGAND FREE ENERGY PREDICTED BY IDOCK:   -7.47 KCAL/MOL
REMARK 924 INTRA-LIGAND FREE ENERGY PREDICTED BY IDOCK:   -1.13 KCAL/MOL
REMARK 927      BINDING AFFINITY PREDICTED BY RF-SCORE:    0.00 PKD
ROOT
HETATM    1  C   UNL     1      -9.751   8.998  67.472  1.00  0.00    -0.206 C  
HETATM    2  C   UNL     1      -8.508   9.759  67.931  1.00  0.00    -0.125 C  
HETATM    3  C   UNL     1      -7.569   9.663  66.725  1.00  0.00    -0.098 C  
HETATM    4  O   UNL     1      -6.237   9.416  67.154  1.00  0.00    -0.062 OA 
HETATM    5  C   UNL     1      -8.065   8.471  65.863  1.00  0.00    -0.116 C  
HETATM    6  H   UNL     1      -5.655   9.356  66.406  1.00  0.00     0.000 HD 
HETATM    7  C   UNL     1      -9.059   5.377  69.688  1.00  0.00    -0.145 A  
HETATM    8  C   UNL     1      -9.168   7.810  66.727  1.00  0.00    -0.202 C  
HETATM    9  C   UNL     1      -9.722   5.080  70.869  1.00  0.00    -0.256 A  
HETATM   10  C   UNL     1      -8.577   6.772  67.693  1.00  0.00    -0.121 C  
HETATM   11  C   UNL     1     -10.698   5.952  71.341  1.00  0.00    -0.319 A  
HETATM   12  C   UNL     1      -9.375   6.533  68.957  1.00  0.00    -0.128 A  
HETATM   13  C   UNL     1     -11.017   7.136  70.655  1.00  0.00    -0.258 A  
HETATM   14  C   UNL     1     -10.352   7.445  69.441  1.00  0.00    -0.211 A  
HETATM   15  C   UNL     1     -10.725   8.620  68.573  1.00  0.00    -0.091 C  
ENDROOT
BRANCH   5  16
HETATM   16  C   UNL     1      -8.664   8.914  64.510  1.00  0.00    -0.120 C  
BRANCH  16  17
HETATM   17  C   UNL     1      -8.321  10.340  64.074  1.00  0.00    -0.165 C  
BRANCH  17  18
HETATM   18  C   UNL     1      -9.490  11.170  63.530  1.00  0.00    -0.276 C  
HETATM   19  O   UNL     1     -10.001  10.553  62.349  1.00  0.00    -0.723 OA 
HETATM   20  H   UNL     1     -10.725  11.066  62.013  1.00  0.00     0.000 HD 
BRANCH  18  21
HETATM   21  C   UNL     1     -10.645  11.256  64.539  1.00  0.00    -0.401 C  
BRANCH  21  22
HETATM   22  C   UNL     1     -11.377  12.597  64.487  1.00  0.00    -0.378 C  
BRANCH  22  23
HETATM   23  C   UNL     1     -10.544  13.738  65.063  1.00  0.00    -0.402 C  
BRANCH  23  24
HETATM   24  C   UNL     1     -11.446  14.708  65.827  1.00  0.00    -0.338 C  
HETATM   25  C   UNL     1     -12.083  14.047  67.035  1.00  0.00    -0.455 C  
ENDBRANCH  23  24
ENDBRANCH  22  23
ENDBRANCH  21  22
ENDBRANCH  18  21
ENDBRANCH  17  18
ENDBRANCH  16  17
ENDBRANCH   5  16
BRANCH  13  26
HETATM   26  O   UNL     1     -12.027   7.821  71.292  1.00  0.00    -0.293 OA 
BRANCH  26  27
HETATM   27  C   UNL     1     -11.763   9.141  71.752  1.00  0.00    -0.386 C  
HETATM   28  C   UNL     1     -13.025   9.983  71.811  1.00  0.00    -0.458 C  
HETATM   29  O   UNL     1     -14.144   9.302  71.483  1.00  0.00    -0.277 OA 
HETATM   30  O   UNL     1     -13.038  11.163  72.134  1.00  0.00    -0.463 OA 
ENDBRANCH  26  27
ENDBRANCH  13  26
TORSDOF 9
ENDMDL
MODEL      103
REMARK 921   NORMALIZED FREE ENERGY PREDICTED BY IDOCK:   -4.26 KCAL/MOL
REMARK 922        TOTAL FREE ENERGY PREDICTED BY IDOCK:   -8.59 KCAL/MOL
REMARK 923 INTER-LIGAND FREE ENERGY PREDICTED BY IDOCK:   -7.68 KCAL/MOL
REMARK 924 INTRA-LIGAND FREE ENERGY PREDICTED BY IDOCK:   -0.91 KCAL/MOL
REMARK 927      BINDING AFFINITY PREDICTED BY RF-SCORE:    0.00 PKD
ROOT
HETATM    1  C   UNL     1     -10.409  12.186  68.687  1.00  0.00    -0.211 C  
HETATM    2  C   UNL     1     -11.766  12.183  69.389  1.00  0.00    -0.391 C  
HETATM    3  C   UNL     1     -11.893  10.747  69.906  1.00  0.00    -0.335 C  
HETATM    4  O   UNL     1     -13.217  10.269  69.714  1.00  0.00    -0.480 OA 
HETATM    5  C   UNL     1     -10.906   9.882  69.077  1.00  0.00    -0.242 C  
HETATM    6  H   UNL     1     -13.296   9.378  70.034  1.00  0.00     0.000 HD 
HETATM    7  C   UNL     1     -11.855  12.025  64.638  1.00  0.00    -0.342 A  
HETATM    8  C   UNL     1     -10.388  10.843  67.977  1.00  0.00    -0.212 C  
HETATM    9  C   UNL     1     -11.910  13.140  63.815  1.00  0.00    -0.546 A  
HETATM   10  C   UNL     1     -11.309  10.838  66.749  1.00  0.00     0.094 C  
HETATM   11  C   UNL     1     -11.425  14.357  64.282  1.00  0.00    -0.226 A  
HETATM   12  C   UNL     1     -11.301  12.109  65.926  1.00  0.00    -0.407 A  
HETATM   13  C   UNL     1     -10.896  14.487  65.577  1.00  0.00    -0.336 A  
HETATM   14  C   UNL     1     -10.826  13.353  66.425  1.00  0.00    -0.294 A  
HETATM   15  C   UNL     1     -10.152  13.371  67.773  1.00  0.00    -0.232 C  
ENDROOT
BRANCH   5  16
HETATM   16  C   UNL     1      -9.715   9.362  69.912  1.00  0.00    -0.236 C  
BRANCH  16  17
HETATM   17  C   UNL     1      -8.734   8.454  69.166  1.00  0.00    -0.142 C  
BRANCH  17  18
HETATM   18  C   UNL     1      -8.388   7.133  69.863  1.00  0.00    -0.135 C  
HETATM   19  O   UNL     1      -7.415   7.373  70.879  1.00  0.00    -0.072 OA 
HETATM   20  H   UNL     1      -7.200   6.555  71.310  1.00  0.00     0.000 HD 
BRANCH  18  21
HETATM   21  C   UNL     1      -9.616   6.508  70.543  1.00  0.00    -0.180 C  
BRANCH  21  22
HETATM   22  C   UNL     1     -10.645   5.988  69.540  1.00  0.00    -0.363 C  
BRANCH  22  23
HETATM   23  C   UNL     1     -10.002   5.201  68.401  1.00  0.00    -0.214 C  
BRANCH  23  24
HETATM   24  C   UNL     1     -10.560   5.677  67.059  1.00  0.00    -0.358 C  
HETATM   25  C   UNL     1      -9.475   5.773  66.003  1.00  0.00    -0.108 C  
ENDBRANCH  23  24
ENDBRANCH  22  23
ENDBRANCH  21  22
ENDBRANCH  18  21
ENDBRANCH  17  18
ENDBRANCH  16  17
ENDBRANCH   5  16
BRANCH  13  26
HETATM   26  O   UNL     1     -10.455  15.771  65.806  1.00  0.00    -0.324 OA 
BRANCH  26  27
HETATM   27  C   UNL     1     -10.903  16.441  66.978  1.00  0.00    -0.145 C  
HETATM   28  C   UNL     1     -10.491  17.903  66.987  1.00  0.00    -0.340 C  
HETATM   29  O   UNL     1      -9.847  18.289  65.864  1.00  0.00    -0.527 OA 
HETATM   30  O   UNL     1     -10.725  18.667  67.912  1.00  0.00    -0.383 OA 
ENDBRANCH  26  27
ENDBRANCH  13  26
TORSDOF 9
ENDMDL
MODEL      104
REMARK 921   NORMALIZED FREE ENERGY PREDICTED BY IDOCK:   -4.22 KCAL/MOL
REMARK 922        TOTAL FREE ENERGY PREDICTED BY IDOCK:   -8.53 KCAL/MOL
REMARK 923 INTER-LIGAND FREE ENERGY PREDICTED BY IDOCK:   -7.90 KCAL/MOL
REMARK 924 INTRA-LIGAND FREE ENERGY PREDICTED BY IDOCK:   -0.63 KCAL/MOL
REMARK 927      BINDING AFFINITY PREDICTED BY RF-SCORE:    0.00 PKD
ROOT
HETATM    1  C   UNL     1     -10.718  12.163  67.712  1.00  0.00    -0.241 C  
HETATM    2  C   UNL     1     -11.839  12.328  66.686  1.00  0.00    -0.362 C  
HETATM    3  C   UNL     1     -11.516  13.670  66.022  1.00  0.00    -0.324 C  
HETATM    4  O   UNL     1     -12.706  14.419  65.820  1.00  0.00    -0.396 OA 
HETATM    5  C   UNL     1     -10.580  14.438  66.993  1.00  0.00    -0.274 C  
HETATM    6  H   UNL     1     -12.506  15.252  65.408  1.00  0.00     0.000 HD 
HETATM    7  C   UNL     1     -12.991  13.195  71.216  1.00  0.00    -0.339 A  
HETATM    8  C   UNL     1     -10.561  13.566  68.274  1.00  0.00    -0.259 C  
HETATM    9  C   UNL     1     -13.484  12.246  72.097  1.00  0.00    -0.431 A  
HETATM   10  C   UNL     1     -11.717  13.930  69.217  1.00  0.00    -0.381 C  
HETATM   11  C   UNL     1     -13.191  10.902  71.888  1.00  0.00    -0.508 A  
HETATM   12  C   UNL     1     -12.187  12.817  70.128  1.00  0.00    -0.320 A  
HETATM   13  C   UNL     1     -12.419  10.483  70.792  1.00  0.00    -0.378 A  
HETATM   14  C   UNL     1     -11.901  11.445  69.888  1.00  0.00    -0.435 A  
HETATM   15  C   UNL     1     -10.954  11.099  68.767  1.00  0.00    -0.268 C  
ENDROOT
BRANCH   5  16
HETATM   16  C   UNL     1      -9.142  14.588  66.448  1.00  0.00    -0.217 C  
BRANCH  16  17
HETATM   17  C   UNL     1      -8.053  13.883  67.260  1.00  0.00    -0.162 C  
BRANCH  17  18
HETATM   18  C   UNL     1      -7.299  14.760  68.267  1.00  0.00    -0.115 C  
HETATM   19  O   UNL     1      -5.894  14.593  68.082  1.00  0.00    -0.114 OA 
HETATM   20  H   UNL     1      -5.427  15.136  68.706  1.00  0.00     0.000 HD 
BRANCH  18  21
HETATM   21  C   UNL     1      -7.614  16.251  68.072  1.00  0.00    -0.143 C  
BRANCH  21  22
HETATM   22  C   UNL     1      -6.479  17.161  68.543  1.00  0.00    -0.164 C  
BRANCH  22  23
HETATM   23  C   UNL     1      -6.695  18.617  68.138  1.00  0.00    -0.235 C  
BRANCH  23  24
HETATM   24  C   UNL     1      -5.512  19.466  68.602  1.00  0.00    -0.209 C  
HETATM   25  C   UNL     1      -5.876  20.330  69.795  1.00  0.00    -0.383 C  
ENDBRANCH  23  24
ENDBRANCH  22  23
ENDBRANCH  21  22
ENDBRANCH  18  21
ENDBRANCH  17  18
ENDBRANCH  16  17
ENDBRANCH   5  16
BRANCH  13  26
HETATM   26  O   UNL     1     -12.238   9.118  70.806  1.00  0.00    -0.227 OA 
BRANCH  26  27
HETATM   27  C   UNL     1     -11.166   8.586  71.574  1.00  0.00    -0.279 C  
HETATM   28  C   UNL     1     -11.333   7.098  71.824  1.00  0.00    -0.252 C  
HETATM   29  O   UNL     1     -12.418   6.567  71.220  1.00  0.00    -0.283 OA 
HETATM   30  O   UNL     1     -10.559   6.433  72.499  1.00  0.00    -0.201 OA 
ENDBRANCH  26  27
ENDBRANCH  13  26
TORSDOF 9
ENDMDL
MODEL      105
REMARK 921   NORMALIZED FREE ENERGY PREDICTED BY IDOCK:   -4.21 KCAL/MOL
REMARK 922        TOTAL FREE ENERGY PREDICTED BY IDOCK:   -8.51 KCAL/MOL
REMARK 923 INTER-LIGAND FREE ENERGY PREDICTED BY IDOCK:   -7.43 KCAL/MOL
REMARK 924 INTRA-LIGAND FREE ENERGY PREDICTED BY IDOCK:   -1.08 KCAL/MOL
REMARK 927      BINDING AFFINITY PREDICTED BY RF-SCORE:    0.00 PKD
ROOT
HETATM    1  C   UNL     1     -11.178   7.166  69.540  1.00  0.00    -0.121 C  
HETATM    2  C   UNL     1     -12.056   6.740  70.716  1.00  0.00    -0.402 C  
HETATM    3  C   UNL     1     -12.084   7.986  71.606  1.00  0.00    -0.303 C  
HETATM    4  O   UNL     1     -11.969   7.618  72.974  1.00  0.00    -0.594 OA 
HETATM    5  C   UNL     1     -10.863   8.855  71.200  1.00  0.00    -0.352 C  
HETATM    6  H   UNL     1     -11.986   8.391  73.526  1.00  0.00     0.000 HD 
HETATM    7  C   UNL     1      -7.605   5.070  70.702  1.00  0.00    -0.070 A  
HETATM    8  C   UNL     1     -10.072   7.963  70.211  1.00  0.00    -0.196 C  
HETATM    9  C   UNL     1      -7.217   3.870  70.126  1.00  0.00    -0.042 A  
HETATM   10  C   UNL     1      -9.083   7.048  70.948  1.00  0.00    -0.153 C  
HETATM   11  C   UNL     1      -7.971   3.338  69.086  1.00  0.00    -0.057 A  
HETATM   12  C   UNL     1      -8.737   5.759  70.236  1.00  0.00    -0.137 A  
HETATM   13  C   UNL     1      -9.128   3.980  68.616  1.00  0.00    -0.133 A  
HETATM   14  C   UNL     1      -9.531   5.212  69.191  1.00  0.00    -0.188 A  
HETATM   15  C   UNL     1     -10.677   6.035  68.660  1.00  0.00    -0.363 C  
ENDROOT
BRANCH   5  16
HETATM   16  C   UNL     1     -11.268  10.171  70.500  1.00  0.00    -0.411 C  
BRANCH  16  17
HETATM   17  C   UNL     1     -10.289  10.683  69.442  1.00  0.00    -0.234 C  
BRANCH  17  18
HETATM   18  C   UNL     1     -10.868  11.671  68.421  1.00  0.00    -0.219 C  
HETATM   19  O   UNL     1     -12.237  11.352  68.177  1.00  0.00    -0.602 OA 
HETATM   20  H   UNL     1     -12.596  11.964  67.546  1.00  0.00     0.000 HD 
BRANCH  18  21
HETATM   21  C   UNL     1     -10.817  13.117  68.936  1.00  0.00    -0.240 C  
BRANCH  21  22
HETATM   22  C   UNL     1     -12.205  13.737  69.094  1.00  0.00    -0.289 C  
BRANCH  22  23
HETATM   23  C   UNL     1     -12.641  13.823  70.554  1.00  0.00    -0.361 C  
BRANCH  23  24
HETATM   24  C   UNL     1     -12.787  15.287  70.969  1.00  0.00    -0.505 C  
HETATM   25  C   UNL     1     -11.896  15.627  72.149  1.00  0.00    -0.567 C  
ENDBRANCH  23  24
ENDBRANCH  22  23
ENDBRANCH  21  22
ENDBRANCH  18  21
ENDBRANCH  17  18
ENDBRANCH  16  17
ENDBRANCH   5  16
BRANCH  13  26
HETATM   26  O   UNL     1      -9.691   3.285  67.569  1.00  0.00    -0.149 OA 
BRANCH  26  27
HETATM   27  C   UNL     1      -8.981   3.226  66.337  1.00  0.00    -0.151 C  
HETATM   28  C   UNL     1      -9.738   3.911  65.214  1.00  0.00    -0.187 C  
HETATM   29  O   UNL     1     -10.889   4.491  65.614  1.00  0.00    -0.270 OA 
HETATM   30  O   UNL     1      -9.345   3.947  64.056  1.00  0.00    -0.135 OA 
ENDBRANCH  26  27
ENDBRANCH  13  26
TORSDOF 9
ENDMDL
MODEL      106
REMARK 921   NORMALIZED FREE ENERGY PREDICTED BY IDOCK:   -4.14 KCAL/MOL
REMARK 922        TOTAL FREE ENERGY PREDICTED BY IDOCK:   -8.41 KCAL/MOL
REMARK 923 INTER-LIGAND FREE ENERGY PREDICTED BY IDOCK:   -6.44 KCAL/MOL
REMARK 924 INTRA-LIGAND FREE ENERGY PREDICTED BY IDOCK:   -1.97 KCAL/MOL
REMARK 927      BINDING AFFINITY PREDICTED BY RF-SCORE:    0.00 PKD
ROOT
HETATM    1  C   UNL     1     -10.435   7.958  68.899  1.00  0.00    -0.205 C  
HETATM    2  C   UNL     1      -9.388   7.739  69.990  1.00  0.00    -0.157 C  
HETATM    3  C   UNL     1      -9.262   9.120  70.641  1.00  0.00    -0.258 C  
HETATM    4  O   UNL     1      -7.900   9.412  70.917  1.00  0.00    -0.243 OA 
HETATM    5  C   UNL     1      -9.816  10.150  69.621  1.00  0.00    -0.254 C  
HETATM    6  H   UNL     1      -7.822  10.269  71.321  1.00  0.00     0.000 HD 
HETATM    7  C   UNL     1      -7.749   8.082  65.541  1.00  0.00    -0.093 A  
HETATM    8  C   UNL     1     -10.063   9.319  68.336  1.00  0.00    -0.215 C  
HETATM    9  C   UNL     1      -7.566   7.007  64.685  1.00  0.00    -0.106 A  
HETATM   10  C   UNL     1      -8.800   9.245  67.465  1.00  0.00    -0.123 C  
HETATM   11  C   UNL     1      -8.320   5.852  64.870  1.00  0.00    -0.115 A  
HETATM   12  C   UNL     1      -8.695   8.024  66.577  1.00  0.00    -0.161 A  
HETATM   13  C   UNL     1      -9.251   5.744  65.916  1.00  0.00    -0.113 A  
HETATM   14  C   UNL     1      -9.454   6.840  66.793  1.00  0.00    -0.199 A  
HETATM   15  C   UNL     1     -10.524   6.862  67.853  1.00  0.00    -0.262 C  
ENDROOT
BRANCH   5  16
HETATM   16  C   UNL     1     -11.141  10.799  70.080  1.00  0.00    -0.327 C  
BRANCH  16  17
HETATM   17  C   UNL     1     -12.012  11.378  68.963  1.00  0.00    -0.387 C  
BRANCH  17  18
HETATM   18  C   UNL     1     -11.926  12.897  68.771  1.00  0.00    -0.253 C  
HETATM   19  O   UNL     1     -10.794  13.401  69.480  1.00  0.00    -0.449 OA 
HETATM   20  H   UNL     1     -10.741  14.342  69.361  1.00  0.00     0.000 HD 
BRANCH  18  21
HETATM   21  C   UNL     1     -11.747  13.275  67.293  1.00  0.00    -0.424 C  
BRANCH  21  22
HETATM   22  C   UNL     1     -10.287  13.534  66.921  1.00  0.00    -0.265 C  
BRANCH  22  23
HETATM   23  C   UNL     1      -9.658  12.356  66.181  1.00  0.00    -0.238 C  
BRANCH  23  24
HETATM   24  C   UNL     1     -10.728  11.610  65.385  1.00  0.00    -0.341 C  
HETATM   25  C   UNL     1     -10.196  11.121  64.051  1.00  0.00    -0.419 C  
ENDBRANCH  23  24
ENDBRANCH  22  23
ENDBRANCH  21  22
ENDBRANCH  18  21
ENDBRANCH  17  18
ENDBRANCH  16  17
ENDBRANCH   5  16
BRANCH  13  26
HETATM   26  O   UNL     1      -9.894   4.527  65.884  1.00  0.00    -0.185 OA 
BRANCH  26  27
HETATM   27  C   UNL     1      -9.174   3.394  65.415  1.00  0.00    -0.152 C  
HETATM   28  C   UNL     1      -9.861   2.736  64.233  1.00  0.00    -0.118 C  
HETATM   29  O   UNL     1     -10.971   3.387  63.822  1.00  0.00    -0.271 OA 
HETATM   30  O   UNL     1      -9.451   1.719  63.690  1.00  0.00    -0.101 OA 
ENDBRANCH  26  27
ENDBRANCH  13  26
TORSDOF 9
ENDMDL
MODEL      107
REMARK 921   NORMALIZED FREE ENERGY PREDICTED BY IDOCK:   -4.11 KCAL/MOL
REMARK 922        TOTAL FREE ENERGY PREDICTED BY IDOCK:   -8.36 KCAL/MOL
REMARK 923 INTER-LIGAND FREE ENERGY PREDICTED BY IDOCK:   -7.73 KCAL/MOL
REMARK 924 INTRA-LIGAND FREE ENERGY PREDICTED BY IDOCK:   -0.62 KCAL/MOL
REMARK 927      BINDING AFFINITY PREDICTED BY RF-SCORE:    0.00 PKD
ROOT
HETATM    1  C   UNL     1      -9.081  10.186  67.719  1.00  0.00    -0.135 C  
HETATM    2  C   UNL     1      -7.790  10.668  68.379  1.00  0.00    -0.113 C  
HETATM    3  C   UNL     1      -7.693   9.804  69.640  1.00  0.00    -0.136 C  
HETATM    4  O   UNL     1      -7.261  10.587  70.743  1.00  0.00    -0.399 OA 
HETATM    5  C   UNL     1      -9.119   9.257  69.920  1.00  0.00    -0.203 C  
HETATM    6  H   UNL     1      -7.201  10.051  71.525  1.00  0.00     0.000 HD 
HETATM    7  C   UNL     1     -11.577  13.501  68.852  1.00  0.00    -0.364 A  
HETATM    8  C   UNL     1     -10.019   9.999  68.899  1.00  0.00    -0.198 C  
HETATM    9  C   UNL     1     -11.906  14.526  67.979  1.00  0.00    -0.350 A  
HETATM   10  C   UNL     1     -10.505  11.346  69.455  1.00  0.00    -0.040 C  
HETATM   11  C   UNL     1     -11.469  14.466  66.660  1.00  0.00    -0.372 A  
HETATM   12  C   UNL     1     -10.825  12.399  68.415  1.00  0.00    -0.263 A  
HETATM   13  C   UNL     1     -10.685  13.397  66.196  1.00  0.00    -0.284 A  
HETATM   14  C   UNL     1     -10.350  12.337  67.077  1.00  0.00    -0.237 A  
HETATM   15  C   UNL     1      -9.632  11.089  66.631  1.00  0.00    -0.216 C  
ENDROOT
BRANCH   5  16
HETATM   16  C   UNL     1      -9.234   7.733  69.699  1.00  0.00    -0.153 C  
BRANCH  16  17
HETATM   17  C   UNL     1     -10.465   7.271  68.917  1.00  0.00    -0.216 C  
BRANCH  17  18
HETATM   18  C   UNL     1     -11.404   6.312  69.659  1.00  0.00    -0.422 C  
HETATM   19  O   UNL     1     -10.761   5.049  69.820  1.00  0.00    -0.140 OA 
HETATM   20  H   UNL     1     -11.343   4.455  70.279  1.00  0.00     0.000 HD 
BRANCH  18  21
HETATM   21  C   UNL     1     -11.755   6.830  71.062  1.00  0.00    -0.406 C  
BRANCH  21  22
HETATM   22  C   UNL     1     -11.567   5.770  72.147  1.00  0.00    -0.265 C  
BRANCH  22  23
HETATM   23  C   UNL     1     -11.117   6.371  73.476  1.00  0.00     0.026 C  
BRANCH  23  24
HETATM   24  C   UNL     1     -10.283   7.627  73.224  1.00  0.00    -0.398 C  
HETATM   25  C   UNL     1      -8.985   7.606  74.009  1.00  0.00    -0.299 C  
ENDBRANCH  23  24
ENDBRANCH  22  23
ENDBRANCH  21  22
ENDBRANCH  18  21
ENDBRANCH  17  18
ENDBRANCH  16  17
ENDBRANCH   5  16
BRANCH  13  26
HETATM   26  O   UNL     1     -10.396  13.538  64.857  1.00  0.00    -0.366 OA 
BRANCH  26  27
HETATM   27  C   UNL     1     -10.703  12.460  63.982  1.00  0.00    -0.404 C  
HETATM   28  C   UNL     1     -12.166  12.456  63.578  1.00  0.00    -0.563 C  
HETATM   29  O   UNL     1     -12.864  13.502  64.071  1.00  0.00    -0.598 OA 
HETATM   30  O   UNL     1     -12.671  11.599  62.867  1.00  0.00    -0.219 OA 
ENDBRANCH  26  27
ENDBRANCH  13  26
TORSDOF 9
ENDMDL
MODEL      108
REMARK 921   NORMALIZED FREE ENERGY PREDICTED BY IDOCK:   -4.09 KCAL/MOL
REMARK 922        TOTAL FREE ENERGY PREDICTED BY IDOCK:   -8.33 KCAL/MOL
REMARK 923 INTER-LIGAND FREE ENERGY PREDICTED BY IDOCK:   -6.80 KCAL/MOL
REMARK 924 INTRA-LIGAND FREE ENERGY PREDICTED BY IDOCK:   -1.53 KCAL/MOL
REMARK 927      BINDING AFFINITY PREDICTED BY RF-SCORE:    0.00 PKD
ROOT
HETATM    1  C   UNL     1      -8.754  10.805  68.371  1.00  0.00    -0.142 C  
HETATM    2  C   UNL     1      -8.726   9.719  67.295  1.00  0.00    -0.135 C  
HETATM    3  C   UNL     1      -9.384  10.398  66.090  1.00  0.00    -0.172 C  
HETATM    4  O   UNL     1     -10.261   9.494  65.433  1.00  0.00    -0.311 OA 
HETATM    5  C   UNL     1     -10.198  11.599  66.641  1.00  0.00    -0.249 C  
HETATM    6  H   UNL     1     -10.669   9.915  64.686  1.00  0.00     0.000 HD 
HETATM    7  C   UNL     1     -12.034   9.245  70.676  1.00  0.00    -0.206 A  
HETATM    8  C   UNL     1     -10.121  11.439  68.181  1.00  0.00    -0.200 C  
HETATM    9  C   UNL     1     -11.854   8.545  71.860  1.00  0.00    -0.407 A  
HETATM   10  C   UNL     1     -11.243  10.531  68.707  1.00  0.00    -0.317 C  
HETATM   11  C   UNL     1     -10.570   8.382  72.368  1.00  0.00    -0.405 A  
HETATM   12  C   UNL     1     -10.938   9.804  69.999  1.00  0.00    -0.319 A  
HETATM   13  C   UNL     1      -9.446   8.897  71.700  1.00  0.00    -0.281 A  
HETATM   14  C   UNL     1      -9.618   9.624  70.494  1.00  0.00    -0.261 A  
HETATM   15  C   UNL     1      -8.487  10.325  69.786  1.00  0.00    -0.082 C  
ENDROOT
BRANCH   5  16
HETATM   16  C   UNL     1      -9.605  12.966  66.234  1.00  0.00    -0.245 C  
BRANCH  16  17
HETATM   17  C   UNL     1     -10.614  13.997  65.724  1.00  0.00    -0.303 C  
BRANCH  17  18
HETATM   18  C   UNL     1     -10.015  15.280  65.134  1.00  0.00    -0.225 C  
HETATM   19  O   UNL     1     -10.984  15.916  64.302  1.00  0.00    -0.875 OA 
HETATM   20  H   UNL     1     -10.613  16.710  63.937  1.00  0.00     0.000 HD 
BRANCH  18  21
HETATM   21  C   UNL     1      -9.621  16.281  66.229  1.00  0.00    -0.336 C  
BRANCH  21  22
HETATM   22  C   UNL     1      -8.124  16.593  66.235  1.00  0.00    -0.361 C  
BRANCH  22  23
HETATM   23  C   UNL     1      -7.465  16.258  67.570  1.00  0.00    -0.172 C  
BRANCH  23  24
HETATM   24  C   UNL     1      -8.491  15.631  68.514  1.00  0.00    -0.175 C  
HETATM   25  C   UNL     1      -7.965  14.354  69.145  1.00  0.00    -0.002 C  
ENDBRANCH  23  24
ENDBRANCH  22  23
ENDBRANCH  21  22
ENDBRANCH  18  21
ENDBRANCH  17  18
ENDBRANCH  16  17
ENDBRANCH   5  16
BRANCH  13  26
HETATM   26  O   UNL     1      -8.290   8.639  72.402  1.00  0.00    -0.340 OA 
BRANCH  26  27
HETATM   27  C   UNL     1      -8.028   7.301  72.805  1.00  0.00    -0.102 C  
HETATM   28  C   UNL     1      -7.080   6.597  71.851  1.00  0.00    -0.080 C  
HETATM   29  O   UNL     1      -6.627   7.391  70.857  1.00  0.00    -0.043 OA 
HETATM   30  O   UNL     1      -6.745   5.427  71.968  1.00  0.00    -0.053 OA 
ENDBRANCH  26  27
ENDBRANCH  13  26
TORSDOF 9
ENDMDL
MODEL      109
REMARK 921   NORMALIZED FREE ENERGY PREDICTED BY IDOCK:   -4.08 KCAL/MOL
REMARK 922        TOTAL FREE ENERGY PREDICTED BY IDOCK:   -8.32 KCAL/MOL
REMARK 923 INTER-LIGAND FREE ENERGY PREDICTED BY IDOCK:   -7.21 KCAL/MOL
REMARK 924 INTRA-LIGAND FREE ENERGY PREDICTED BY IDOCK:   -1.11 KCAL/MOL
REMARK 927      BINDING AFFINITY PREDICTED BY RF-SCORE:    0.00 PKD
ROOT
HETATM    1  C   UNL     1      -8.901   9.352  69.045  1.00  0.00    -0.141 C  
HETATM    2  C   UNL     1      -9.449   8.663  67.796  1.00  0.00    -0.165 C  
HETATM    3  C   UNL     1      -9.148   9.665  66.678  1.00  0.00    -0.148 C  
HETATM    4  O   UNL     1     -10.247   9.750  65.782  1.00  0.00    -0.264 OA 
HETATM    5  C   UNL     1      -8.927  11.044  67.358  1.00  0.00    -0.141 C  
HETATM    6  H   UNL     1     -10.060  10.372  65.088  1.00  0.00     0.000 HD 
HETATM    7  C   UNL     1     -12.661  10.643  70.688  1.00  0.00    -0.445 A  
HETATM    8  C   UNL     1      -9.305  10.802  68.841  1.00  0.00    -0.183 C  
HETATM    9  C   UNL     1     -13.289   9.985  71.734  1.00  0.00    -0.492 A  
HETATM   10  C   UNL     1     -10.809  11.008  69.077  1.00  0.00    -0.274 C  
HETATM   11  C   UNL     1     -12.663   8.894  72.328  1.00  0.00    -0.464 A  
HETATM   12  C   UNL     1     -11.396  10.233  70.237  1.00  0.00    -0.398 A  
HETATM   13  C   UNL     1     -11.414   8.433  71.881  1.00  0.00    -0.318 A  
HETATM   14  C   UNL     1     -10.756   9.104  70.819  1.00  0.00    -0.327 A  
HETATM   15  C   UNL     1      -9.359   8.763  70.367  1.00  0.00    -0.205 C  
ENDROOT
BRANCH   5  16
HETATM   16  C   UNL     1      -7.464  11.530  67.270  1.00  0.00    -0.139 C  
BRANCH  16  17
HETATM   17  C   UNL     1      -7.120  12.745  68.134  1.00  0.00    -0.105 C  
BRANCH  17  18
HETATM   18  C   UNL     1      -8.240  13.779  68.305  1.00  0.00    -0.156 C  
HETATM   19  O   UNL     1      -8.092  14.435  69.564  1.00  0.00    -0.372 OA 
HETATM   20  H   UNL     1      -8.785  15.075  69.670  1.00  0.00     0.000 HD 
BRANCH  18  21
HETATM   21  C   UNL     1      -8.189  14.860  67.215  1.00  0.00    -0.234 C  
BRANCH  21  22
HETATM   22  C   UNL     1      -9.220  15.968  67.433  1.00  0.00    -0.214 C  
BRANCH  22  23
HETATM   23  C   UNL     1     -10.358  15.911  66.418  1.00  0.00    -0.313 C  
BRANCH  23  24
HETATM   24  C   UNL     1     -11.208  14.663  66.657  1.00  0.00    -0.349 C  
HETATM   25  C   UNL     1     -11.771  14.630  68.066  1.00  0.00    -0.371 C  
ENDBRANCH  23  24
ENDBRANCH  22  23
ENDBRANCH  21  22
ENDBRANCH  18  21
ENDBRANCH  17  18
ENDBRANCH  16  17
ENDBRANCH   5  16
BRANCH  13  26
HETATM   26  O   UNL     1     -10.981   7.365  72.634  1.00  0.00    -0.266 OA 
BRANCH  26  27
HETATM   27  C   UNL     1     -11.462   6.067  72.306  1.00  0.00    -0.312 C  
HETATM   28  C   UNL     1     -10.390   5.006  72.479  1.00  0.00    -0.202 C  
HETATM   29  O   UNL     1      -9.227   5.487  72.966  1.00  0.00    -0.137 OA 
HETATM   30  O   UNL     1     -10.559   3.823  72.214  1.00  0.00    -0.076 OA 
ENDBRANCH  26  27
ENDBRANCH  13  26
TORSDOF 9
ENDMDL
MODEL      110
REMARK 921   NORMALIZED FREE ENERGY PREDICTED BY IDOCK:   -4.05 KCAL/MOL
REMARK 922        TOTAL FREE ENERGY PREDICTED BY IDOCK:   -8.27 KCAL/MOL
REMARK 923 INTER-LIGAND FREE ENERGY PREDICTED BY IDOCK:   -6.85 KCAL/MOL
REMARK 924 INTRA-LIGAND FREE ENERGY PREDICTED BY IDOCK:   -1.41 KCAL/MOL
REMARK 927      BINDING AFFINITY PREDICTED BY RF-SCORE:    0.00 PKD
ROOT
HETATM    1  C   UNL     1      -8.850   6.811  69.027  1.00  0.00    -0.129 C  
HETATM    2  C   UNL     1      -9.540   6.006  67.926  1.00  0.00    -0.118 C  
HETATM    3  C   UNL     1     -10.290   7.074  67.125  1.00  0.00    -0.281 C  
HETATM    4  O   UNL     1     -11.583   6.605  66.767  1.00  0.00    -0.718 OA 
HETATM    5  C   UNL     1     -10.427   8.315  68.048  1.00  0.00    -0.239 C  
HETATM    6  H   UNL     1     -12.048   7.268  66.270  1.00  0.00     0.000 HD 
HETATM    7  C   UNL     1     -11.513   5.787  72.246  1.00  0.00    -0.320 A  
HETATM    8  C   UNL     1      -9.908   7.826  69.423  1.00  0.00    -0.176 C  
HETATM    9  C   UNL     1     -11.201   4.837  73.206  1.00  0.00    -0.421 A  
HETATM   10  C   UNL     1     -11.031   7.178  70.249  1.00  0.00    -0.288 C  
HETATM   11  C   UNL     1      -9.953   4.222  73.177  1.00  0.00    -0.191 A  
HETATM   12  C   UNL     1     -10.580   6.146  71.259  1.00  0.00    -0.295 A  
HETATM   13  C   UNL     1      -9.008   4.530  72.185  1.00  0.00    -0.125 A  
HETATM   14  C   UNL     1      -9.312   5.507  71.203  1.00  0.00    -0.181 A  
HETATM   15  C   UNL     1      -8.310   5.995  70.188  1.00  0.00    -0.120 C  
ENDROOT
BRANCH   5  16
HETATM   16  C   UNL     1      -9.580   9.515  67.572  1.00  0.00    -0.176 C  
BRANCH  16  17
HETATM   17  C   UNL     1     -10.184  10.338  66.432  1.00  0.00    -0.290 C  
BRANCH  17  18
HETATM   18  C   UNL     1     -10.668  11.744  66.810  1.00  0.00    -0.253 C  
HETATM   19  O   UNL     1     -12.094  11.778  66.777  1.00  0.00    -0.547 OA 
HETATM   20  H   UNL     1     -12.394  12.648  67.011  1.00  0.00     0.000 HD 
BRANCH  18  21
HETATM   21  C   UNL     1     -10.232  12.135  68.229  1.00  0.00    -0.209 C  
BRANCH  21  22
HETATM   22  C   UNL     1     -11.045  13.297  68.799  1.00  0.00    -0.303 C  
BRANCH  22  23
HETATM   23  C   UNL     1     -12.007  12.851  69.897  1.00  0.00    -0.377 C  
BRANCH  23  24
HETATM   24  C   UNL     1     -11.718  11.401  70.285  1.00  0.00    -0.397 C  
HETATM   25  C   UNL     1     -12.812  10.828  71.167  1.00  0.00    -0.513 C  
ENDBRANCH  23  24
ENDBRANCH  22  23
ENDBRANCH  21  22
ENDBRANCH  18  21
ENDBRANCH  17  18
ENDBRANCH  16  17
ENDBRANCH   5  16
BRANCH  13  26
HETATM   26  O   UNL     1      -7.843   3.821  72.373  1.00  0.00    -0.066 OA 
BRANCH  26  27
HETATM   27  C   UNL     1      -7.180   3.929  73.627  1.00  0.00    -0.064 C  
HETATM   28  C   UNL     1      -5.921   4.771  73.532  1.00  0.00    -0.025 C  
HETATM   29  O   UNL     1      -5.716   5.299  72.306  1.00  0.00    -0.016 OA 
HETATM   30  O   UNL     1      -5.163   4.967  74.473  1.00  0.00    -0.015 OA 
ENDBRANCH  26  27
ENDBRANCH  13  26
TORSDOF 9
ENDMDL
MODEL      111
REMARK 921   NORMALIZED FREE ENERGY PREDICTED BY IDOCK:   -4.02 KCAL/MOL
REMARK 922        TOTAL FREE ENERGY PREDICTED BY IDOCK:   -8.23 KCAL/MOL
REMARK 923 INTER-LIGAND FREE ENERGY PREDICTED BY IDOCK:   -6.60 KCAL/MOL
REMARK 924 INTRA-LIGAND FREE ENERGY PREDICTED BY IDOCK:   -1.63 KCAL/MOL
REMARK 927      BINDING AFFINITY PREDICTED BY RF-SCORE:    0.00 PKD
ROOT
HETATM    1  C   UNL     1      -9.965   8.545  67.342  1.00  0.00    -0.275 C  
HETATM    2  C   UNL     1     -10.824   7.359  66.904  1.00  0.00    -0.223 C  
HETATM    3  C   UNL     1      -9.967   6.146  67.275  1.00  0.00    -0.144 C  
HETATM    4  O   UNL     1     -10.028   5.166  66.248  1.00  0.00    -0.173 OA 
HETATM    5  C   UNL     1      -8.507   6.654  67.418  1.00  0.00    -0.120 C  
HETATM    6  H   UNL     1      -9.496   4.413  66.478  1.00  0.00     0.000 HD 
HETATM    7  C   UNL     1      -8.575   9.718  63.443  1.00  0.00    -0.205 A  
HETATM    8  C   UNL     1      -8.565   8.124  66.930  1.00  0.00    -0.126 C  
HETATM    9  C   UNL     1      -9.110  10.790  62.746  1.00  0.00    -0.328 A  
HETATM   10  C   UNL     1      -8.371   8.217  65.409  1.00  0.00    -0.163 C  
HETATM   11  C   UNL     1     -10.097  11.567  63.343  1.00  0.00    -0.454 A  
HETATM   12  C   UNL     1      -9.006   9.421  64.746  1.00  0.00    -0.241 A  
HETATM   13  C   UNL     1     -10.578  11.280  64.631  1.00  0.00    -0.327 A  
HETATM   14  C   UNL     1     -10.033  10.191  65.358  1.00  0.00    -0.377 A  
HETATM   15  C   UNL     1     -10.390   9.894  66.791  1.00  0.00    -0.285 C  
ENDROOT
BRANCH   5  16
HETATM   16  C   UNL     1      -7.996   6.614  68.876  1.00  0.00    -0.112 C  
BRANCH  16  17
HETATM   17  C   UNL     1      -6.929   7.652  69.229  1.00  0.00    -0.060 C  
BRANCH  17  18
HETATM   18  C   UNL     1      -7.193   8.473  70.497  1.00  0.00    -0.045 C  
HETATM   19  O   UNL     1      -5.958   8.718  71.169  1.00  0.00    -0.036 OA 
HETATM   20  H   UNL     1      -6.121   9.227  71.954  1.00  0.00     0.000 HD 
BRANCH  18  21
HETATM   21  C   UNL     1      -7.818   9.838  70.172  1.00  0.00    -0.196 C  
BRANCH  21  22
HETATM   22  C   UNL     1      -7.184  10.502  68.949  1.00  0.00    -0.086 C  
BRANCH  22  23
HETATM   23  C   UNL     1      -6.574  11.862  69.276  1.00  0.00    -0.110 C  
BRANCH  23  24
HETATM   24  C   UNL     1      -7.024  12.896  68.244  1.00  0.00    -0.099 C  
HETATM   25  C   UNL     1      -7.230  14.262  68.872  1.00  0.00    -0.125 C  
ENDBRANCH  23  24
ENDBRANCH  22  23
ENDBRANCH  21  22
ENDBRANCH  18  21
ENDBRANCH  17  18
ENDBRANCH  16  17
ENDBRANCH   5  16
BRANCH  13  26
HETATM   26  O   UNL     1     -11.528  12.196  65.022  1.00  0.00    -0.325 OA 
BRANCH  26  27
HETATM   27  C   UNL     1     -11.099  13.504  65.382  1.00  0.00    -0.293 C  
HETATM   28  C   UNL     1     -11.686  14.564  64.467  1.00  0.00    -0.410 C  
HETATM   29  O   UNL     1     -12.540  14.069  63.546  1.00  0.00    -0.842 OA 
HETATM   30  O   UNL     1     -11.423  15.755  64.555  1.00  0.00    -0.417 OA 
ENDBRANCH  26  27
ENDBRANCH  13  26
TORSDOF 9
ENDMDL
MODEL      112
REMARK 921   NORMALIZED FREE ENERGY PREDICTED BY IDOCK:   -4.02 KCAL/MOL
REMARK 922        TOTAL FREE ENERGY PREDICTED BY IDOCK:   -8.23 KCAL/MOL
REMARK 923 INTER-LIGAND FREE ENERGY PREDICTED BY IDOCK:   -7.27 KCAL/MOL
REMARK 924 INTRA-LIGAND FREE ENERGY PREDICTED BY IDOCK:   -0.97 KCAL/MOL
REMARK 927      BINDING AFFINITY PREDICTED BY RF-SCORE:    0.00 PKD
ROOT
HETATM    1  C   UNL     1     -10.600   9.825  68.702  1.00  0.00    -0.249 C  
HETATM    2  C   UNL     1      -9.226   9.854  69.370  1.00  0.00    -0.225 C  
HETATM    3  C   UNL     1      -9.283   8.676  70.347  1.00  0.00    -0.170 C  
HETATM    4  O   UNL     1      -8.681   9.031  71.584  1.00  0.00    -0.331 OA 
HETATM    5  C   UNL     1     -10.784   8.354  70.576  1.00  0.00    -0.247 C  
HETATM    6  H   UNL     1      -8.716   8.300  72.190  1.00  0.00     0.000 HD 
HETATM    7  C   UNL     1     -12.352  13.115  70.850  1.00  0.00    -0.393 A  
HETATM    8  C   UNL     1     -11.534   9.503  69.856  1.00  0.00    -0.100 C  
HETATM    9  C   UNL     1     -12.484  14.383  70.305  1.00  0.00    -0.413 A  
HETATM   10  C   UNL     1     -11.727  10.714  70.781  1.00  0.00    -0.435 C  
HETATM   11  C   UNL     1     -12.092  14.604  68.989  1.00  0.00    -0.270 A  
HETATM   12  C   UNL     1     -11.847  12.052  70.084  1.00  0.00    -0.383 A  
HETATM   13  C   UNL     1     -11.549  13.574  68.203  1.00  0.00    -0.333 A  
HETATM   14  C   UNL     1     -11.419  12.270  68.745  1.00  0.00    -0.360 A  
HETATM   15  C   UNL     1     -10.976  11.079  67.934  1.00  0.00    -0.317 C  
ENDROOT
BRANCH   5  16
HETATM   16  C   UNL     1     -11.209   6.999  69.969  1.00  0.00    -0.310 C  
BRANCH  16  17
HETATM   17  C   UNL     1     -10.161   6.314  69.089  1.00  0.00    -0.229 C  
BRANCH  17  18
HETATM   18  C   UNL     1     -10.710   5.502  67.909  1.00  0.00    -0.093 C  
HETATM   19  O   UNL     1     -11.086   6.390  66.857  1.00  0.00    -0.527 OA 
HETATM   20  H   UNL     1     -11.426   5.888  66.126  1.00  0.00     0.000 HD 
BRANCH  18  21
HETATM   21  C   UNL     1      -9.658   4.538  67.342  1.00  0.00    -0.209 C  
BRANCH  21  22
HETATM   22  C   UNL     1      -9.411   3.333  68.250  1.00  0.00    -0.242 C  
BRANCH  22  23
HETATM   23  C   UNL     1      -7.979   2.814  68.152  1.00  0.00    -0.063 C  
BRANCH  23  24
HETATM   24  C   UNL     1      -7.179   3.258  69.377  1.00  0.00    -0.045 C  
HETATM   25  C   UNL     1      -6.298   4.454  69.068  1.00  0.00    -0.032 C  
ENDBRANCH  23  24
ENDBRANCH  22  23
ENDBRANCH  21  22
ENDBRANCH  18  21
ENDBRANCH  17  18
ENDBRANCH  16  17
ENDBRANCH   5  16
BRANCH  13  26
HETATM   26  O   UNL     1     -11.262  14.018  66.932  1.00  0.00    -0.297 OA 
BRANCH  26  27
HETATM   27  C   UNL     1     -11.017  15.406  66.740  1.00  0.00    -0.282 C  
HETATM   28  C   UNL     1      -9.541  15.698  66.541  1.00  0.00    -0.270 C  
HETATM   29  O   UNL     1      -8.770  14.590  66.519  1.00  0.00    -0.187 OA 
HETATM   30  O   UNL     1      -9.086  16.825  66.401  1.00  0.00    -0.254 OA 
ENDBRANCH  26  27
ENDBRANCH  13  26
TORSDOF 9
ENDMDL
MODEL      113
REMARK 921   NORMALIZED FREE ENERGY PREDICTED BY IDOCK:   -4.00 KCAL/MOL
REMARK 922        TOTAL FREE ENERGY PREDICTED BY IDOCK:   -8.20 KCAL/MOL
REMARK 923 INTER-LIGAND FREE ENERGY PREDICTED BY IDOCK:   -6.85 KCAL/MOL
REMARK 924 INTRA-LIGAND FREE ENERGY PREDICTED BY IDOCK:   -1.35 KCAL/MOL
REMARK 927      BINDING AFFINITY PREDICTED BY RF-SCORE:    0.00 PKD
ROOT
HETATM    1  C   UNL     1     -11.040  11.400  67.147  1.00  0.00    -0.366 C  
HETATM    2  C   UNL     1     -11.745  11.186  68.486  1.00  0.00    -0.368 C  
HETATM    3  C   UNL     1     -11.878  12.605  69.046  1.00  0.00    -0.294 C  
HETATM    4  O   UNL     1     -11.597  12.614  70.439  1.00  0.00    -0.533 OA 
HETATM    5  C   UNL     1     -10.834  13.482  68.302  1.00  0.00    -0.277 C  
HETATM    6  H   UNL     1     -11.679  13.495  70.787  1.00  0.00     0.000 HD 
HETATM    7  C   UNL     1      -7.117  10.110  68.352  1.00  0.00    -0.071 A  
HETATM    8  C   UNL     1     -10.008  12.468  67.471  1.00  0.00    -0.201 C  
HETATM    9  C   UNL     1      -6.609   8.858  68.040  1.00  0.00    -0.061 A  
HETATM   10  C   UNL     1      -8.839  11.895  68.286  1.00  0.00    -0.174 C  
HETATM   11  C   UNL     1      -7.363   7.992  67.255  1.00  0.00    -0.089 A  
HETATM   12  C   UNL     1      -8.371  10.517  67.870  1.00  0.00    -0.115 A  
HETATM   13  C   UNL     1      -8.636   8.351  66.784  1.00  0.00    -0.118 A  
HETATM   14  C   UNL     1      -9.163   9.633  67.087  1.00  0.00    -0.156 A  
HETATM   15  C   UNL     1     -10.456  10.151  66.512  1.00  0.00    -0.236 C  
ENDROOT
BRANCH   5  16
HETATM   16  C   UNL     1     -11.483  14.518  67.358  1.00  0.00    -0.385 C  
BRANCH  16  17
HETATM   17  C   UNL     1     -10.714  15.830  67.193  1.00  0.00    -0.312 C  
BRANCH  17  18
HETATM   18  C   UNL     1      -9.847  15.941  65.932  1.00  0.00    -0.351 C  
HETATM   19  O   UNL     1     -10.629  16.477  64.866  1.00  0.00    -0.689 OA 
HETATM   20  H   UNL     1     -10.093  16.545  64.085  1.00  0.00     0.000 HD 
BRANCH  18  21
HETATM   21  C   UNL     1      -8.651  16.881  66.143  1.00  0.00    -0.277 C  
BRANCH  21  22
HETATM   22  C   UNL     1      -7.629  16.324  67.133  1.00  0.00    -0.230 C  
BRANCH  22  23
HETATM   23  C   UNL     1      -7.531  17.164  68.404  1.00  0.00    -0.227 C  
BRANCH  23  24
HETATM   24  C   UNL     1      -6.690  16.431  69.449  1.00  0.00    -0.215 C  
HETATM   25  C   UNL     1      -7.084  14.969  69.561  1.00  0.00    -0.192 C  
ENDBRANCH  23  24
ENDBRANCH  22  23
ENDBRANCH  21  22
ENDBRANCH  18  21
ENDBRANCH  17  18
ENDBRANCH  16  17
ENDBRANCH   5  16
BRANCH  13  26
HETATM   26  O   UNL     1      -9.179   7.352  66.008  1.00  0.00    -0.140 OA 
BRANCH  26  27
HETATM   27  C   UNL     1      -8.755   6.013  66.236  1.00  0.00    -0.138 C  
HETATM   28  C   UNL     1      -9.907   5.119  66.660  1.00  0.00    -0.189 C  
HETATM   29  O   UNL     1     -11.102   5.748  66.672  1.00  0.00    -0.227 OA 
HETATM   30  O   UNL     1      -9.776   3.939  66.954  1.00  0.00    -0.216 OA 
ENDBRANCH  26  27
ENDBRANCH  13  26
TORSDOF 9
ENDMDL
MODEL      114
REMARK 921   NORMALIZED FREE ENERGY PREDICTED BY IDOCK:   -3.98 KCAL/MOL
REMARK 922        TOTAL FREE ENERGY PREDICTED BY IDOCK:   -8.16 KCAL/MOL
REMARK 923 INTER-LIGAND FREE ENERGY PREDICTED BY IDOCK:   -6.07 KCAL/MOL
REMARK 924 INTRA-LIGAND FREE ENERGY PREDICTED BY IDOCK:   -2.09 KCAL/MOL
REMARK 927      BINDING AFFINITY PREDICTED BY RF-SCORE:    0.00 PKD
ROOT
HETATM    1  C   UNL     1     -10.879   7.247  68.541  1.00  0.00    -0.106 C  
HETATM    2  C   UNL     1     -11.181   6.018  69.398  1.00  0.00    -0.397 C  
HETATM    3  C   UNL     1     -11.295   6.594  70.813  1.00  0.00    -0.336 C  
HETATM    4  O   UNL     1     -10.657   5.735  71.748  1.00  0.00    -0.223 OA 
HETATM    5  C   UNL     1     -10.575   7.969  70.798  1.00  0.00    -0.228 C  
HETATM    6  H   UNL     1     -10.728   6.092  72.625  1.00  0.00     0.000 HD 
HETATM    7  C   UNL     1      -6.672   6.540  67.983  1.00  0.00    -0.068 A  
HETATM    8  C   UNL     1      -9.906   8.034  69.402  1.00  0.00    -0.181 C  
HETATM    9  C   UNL     1      -6.148   6.010  66.815  1.00  0.00    -0.025 A  
HETATM   10  C   UNL     1      -8.513   7.386  69.417  1.00  0.00    -0.133 C  
HETATM   11  C   UNL     1      -6.997   5.744  65.745  1.00  0.00    -0.068 A  
HETATM   12  C   UNL     1      -8.043   6.828  68.091  1.00  0.00    -0.115 A  
HETATM   13  C   UNL     1      -8.378   5.986  65.828  1.00  0.00    -0.142 A  
HETATM   14  C   UNL     1      -8.925   6.538  67.015  1.00  0.00    -0.121 A  
HETATM   15  C   UNL     1     -10.368   6.955  67.142  1.00  0.00    -0.339 C  
ENDROOT
BRANCH   5  16
HETATM   16  C   UNL     1     -11.547   9.158  70.962  1.00  0.00    -0.370 C  
BRANCH  16  17
HETATM   17  C   UNL     1     -10.985  10.527  70.569  1.00  0.00    -0.173 C  
BRANCH  17  18
HETATM   18  C   UNL     1     -11.971  11.479  69.881  1.00  0.00    -0.351 C  
HETATM   19  O   UNL     1     -12.205  12.607  70.723  1.00  0.00    -0.406 OA 
HETATM   20  H   UNL     1     -12.816  13.197  70.297  1.00  0.00     0.000 HD 
BRANCH  18  21
HETATM   21  C   UNL     1     -11.419  12.006  68.549  1.00  0.00    -0.345 C  
BRANCH  21  22
HETATM   22  C   UNL     1     -11.179  10.895  67.527  1.00  0.00    -0.364 C  
BRANCH  22  23
HETATM   23  C   UNL     1     -10.289  11.347  66.373  1.00  0.00    -0.284 C  
BRANCH  23  24
HETATM   24  C   UNL     1     -10.006  10.169  65.441  1.00  0.00    -0.377 C  
HETATM   25  C   UNL     1      -8.516   9.932  65.274  1.00  0.00    -0.158 C  
ENDBRANCH  23  24
ENDBRANCH  22  23
ENDBRANCH  21  22
ENDBRANCH  18  21
ENDBRANCH  17  18
ENDBRANCH  16  17
ENDBRANCH   5  16
BRANCH  13  26
HETATM   26  O   UNL     1      -9.009   5.674  64.645  1.00  0.00     0.020 OA 
BRANCH  26  27
HETATM   27  C   UNL     1      -8.834   4.369  64.108  1.00  0.00    -0.146 C  
HETATM   28  C   UNL     1     -10.138   3.592  64.073  1.00  0.00    -0.207 C  
HETATM   29  O   UNL     1     -11.204   4.308  64.491  1.00  0.00    -0.280 OA 
HETATM   30  O   UNL     1     -10.226   2.432  63.695  1.00  0.00    -0.145 OA 
ENDBRANCH  26  27
ENDBRANCH  13  26
TORSDOF 9
ENDMDL
MODEL      115
REMARK 921   NORMALIZED FREE ENERGY PREDICTED BY IDOCK:   -3.96 KCAL/MOL
REMARK 922        TOTAL FREE ENERGY PREDICTED BY IDOCK:   -8.14 KCAL/MOL
REMARK 923 INTER-LIGAND FREE ENERGY PREDICTED BY IDOCK:   -6.94 KCAL/MOL
REMARK 924 INTRA-LIGAND FREE ENERGY PREDICTED BY IDOCK:   -1.19 KCAL/MOL
REMARK 927      BINDING AFFINITY PREDICTED BY RF-SCORE:    0.00 PKD
ROOT
HETATM    1  C   UNL     1      -8.994   6.970  68.990  1.00  0.00    -0.133 C  
HETATM    2  C   UNL     1      -9.609   6.088  67.903  1.00  0.00    -0.118 C  
HETATM    3  C   UNL     1     -10.402   7.082  67.048  1.00  0.00    -0.290 C  
HETATM    4  O   UNL     1     -11.655   6.524  66.679  1.00  0.00    -0.678 OA 
HETATM    5  C   UNL     1     -10.634   8.342  67.924  1.00  0.00    -0.218 C  
HETATM    6  H   UNL     1     -12.146   7.141  66.148  1.00  0.00     0.000 HD 
HETATM    7  C   UNL     1     -11.669   5.896  72.183  1.00  0.00    -0.287 A  
HETATM    8  C   UNL     1     -10.120   7.932  69.327  1.00  0.00    -0.197 C  
HETATM    9  C   UNL     1     -11.324   4.999  73.183  1.00  0.00    -0.397 A  
HETATM   10  C   UNL     1     -11.222   7.246  70.150  1.00  0.00    -0.264 C  
HETATM   11  C   UNL     1     -10.043   4.460  73.202  1.00  0.00    -0.202 A  
HETATM   12  C   UNL     1     -10.736   6.277  71.206  1.00  0.00    -0.299 A  
HETATM   13  C   UNL     1      -9.093   4.790  72.222  1.00  0.00    -0.126 A  
HETATM   14  C   UNL     1      -9.430   5.714  71.200  1.00  0.00    -0.191 A  
HETATM   15  C   UNL     1      -8.436   6.228  70.190  1.00  0.00    -0.134 C  
ENDROOT
BRANCH   5  16
HETATM   16  C   UNL     1      -9.848   9.575  67.426  1.00  0.00    -0.218 C  
BRANCH  16  17
HETATM   17  C   UNL     1      -9.759  10.742  68.411  1.00  0.00    -0.179 C  
BRANCH  17  18
HETATM   18  C   UNL     1     -11.097  11.361  68.834  1.00  0.00    -0.233 C  
HETATM   19  O   UNL     1     -11.245  11.248  70.248  1.00  0.00    -0.485 OA 
HETATM   20  H   UNL     1     -12.074  11.631  70.510  1.00  0.00     0.000 HD 
BRANCH  18  21
HETATM   21  C   UNL     1     -11.170  12.854  68.482  1.00  0.00    -0.310 C  
BRANCH  21  22
HETATM   22  C   UNL     1     -10.865  13.130  67.010  1.00  0.00    -0.278 C  
BRANCH  22  23
HETATM   23  C   UNL     1     -12.009  12.712  66.090  1.00  0.00    -0.458 C  
BRANCH  23  24
HETATM   24  C   UNL     1     -11.943  13.505  64.785  1.00  0.00    -0.424 C  
HETATM   25  C   UNL     1     -12.183  12.618  63.577  1.00  0.00    -0.638 C  
ENDBRANCH  23  24
ENDBRANCH  22  23
ENDBRANCH  21  22
ENDBRANCH  18  21
ENDBRANCH  17  18
ENDBRANCH  16  17
ENDBRANCH   5  16
BRANCH  13  26
HETATM   26  O   UNL     1      -7.893   4.160  72.461  1.00  0.00    -0.082 OA 
BRANCH  26  27
HETATM   27  C   UNL     1      -7.702   2.849  71.941  1.00  0.00    -0.053 C  
HETATM   28  C   UNL     1      -6.414   2.738  71.145  1.00  0.00    -0.023 C  
HETATM   29  O   UNL     1      -5.682   3.872  71.142  1.00  0.00    -0.011 OA 
HETATM   30  O   UNL     1      -6.061   1.719  70.566  1.00  0.00    -0.018 OA 
ENDBRANCH  26  27
ENDBRANCH  13  26
TORSDOF 9
ENDMDL
MODEL      116
REMARK 921   NORMALIZED FREE ENERGY PREDICTED BY IDOCK:   -3.95 KCAL/MOL
REMARK 922        TOTAL FREE ENERGY PREDICTED BY IDOCK:   -8.12 KCAL/MOL
REMARK 923 INTER-LIGAND FREE ENERGY PREDICTED BY IDOCK:   -6.33 KCAL/MOL
REMARK 924 INTRA-LIGAND FREE ENERGY PREDICTED BY IDOCK:   -1.79 KCAL/MOL
REMARK 927      BINDING AFFINITY PREDICTED BY RF-SCORE:    0.00 PKD
ROOT
HETATM    1  C   UNL     1      -9.171   8.052  72.010  1.00  0.00    -0.229 C  
HETATM    2  C   UNL     1      -9.192   7.765  73.511  1.00  0.00    -0.350 C  
HETATM    3  C   UNL     1      -8.552   6.377  73.616  1.00  0.00    -0.123 C  
HETATM    4  O   UNL     1      -9.251   5.581  74.562  1.00  0.00    -0.120 OA 
HETATM    5  C   UNL     1      -8.661   5.726  72.211  1.00  0.00    -0.132 C  
HETATM    6  H   UNL     1      -8.854   4.721  74.627  1.00  0.00     0.000 HD 
HETATM    7  C   UNL     1     -13.329   7.283  71.220  1.00  0.00    -0.338 A  
HETATM    8  C   UNL     1      -9.542   6.710  71.401  1.00  0.00    -0.174 C  
HETATM    9  C   UNL     1     -14.263   8.295  71.062  1.00  0.00    -0.079 A  
HETATM   10  C   UNL     1     -11.037   6.403  71.580  1.00  0.00    -0.322 C  
HETATM   11  C   UNL     1     -13.845   9.621  71.098  1.00  0.00    -0.067 A  
HETATM   12  C   UNL     1     -11.968   7.582  71.397  1.00  0.00    -0.336 A  
HETATM   13  C   UNL     1     -12.498   9.959  71.309  1.00  0.00    -0.381 A  
HETATM   14  C   UNL     1     -11.531   8.933  71.462  1.00  0.00    -0.391 A  
HETATM   15  C   UNL     1     -10.051   9.201  71.555  1.00  0.00    -0.381 C  
ENDROOT
BRANCH   5  16
HETATM   16  C   UNL     1      -7.292   5.564  71.514  1.00  0.00    -0.086 C  
BRANCH  16  17
HETATM   17  C   UNL     1      -7.326   5.568  69.985  1.00  0.00    -0.069 C  
BRANCH  17  18
HETATM   18  C   UNL     1      -6.625   4.388  69.300  1.00  0.00    -0.040 C  
HETATM   19  O   UNL     1      -6.345   3.377  70.267  1.00  0.00    -0.026 OA 
HETATM   20  H   UNL     1      -5.911   2.647  69.844  1.00  0.00     0.000 HD 
BRANCH  18  21
HETATM   21  C   UNL     1      -7.505   3.753  68.214  1.00  0.00    -0.061 C  
BRANCH  21  22
HETATM   22  C   UNL     1      -8.999   3.923  68.491  1.00  0.00    -0.167 C  
BRANCH  22  23
HETATM   23  C   UNL     1      -9.710   4.709  67.393  1.00  0.00    -0.215 C  
BRANCH  23  24
HETATM   24  C   UNL     1     -10.621   5.767  68.016  1.00  0.00    -0.295 C  
HETATM   25  C   UNL     1     -10.767   6.981  67.118  1.00  0.00    -0.433 C  
ENDBRANCH  23  24
ENDBRANCH  22  23
ENDBRANCH  21  22
ENDBRANCH  18  21
ENDBRANCH  17  18
ENDBRANCH  16  17
ENDBRANCH   5  16
BRANCH  13  26
HETATM   26  O   UNL     1     -12.318  11.324  71.277  1.00  0.00    -0.336 OA 
BRANCH  26  27
HETATM   27  C   UNL     1     -12.173  11.958  70.013  1.00  0.00    -0.217 C  
HETATM   28  C   UNL     1     -12.110  13.470  70.141  1.00  0.00    -0.354 C  
HETATM   29  O   UNL     1     -12.137  13.904  71.419  1.00  0.00    -0.284 OA 
HETATM   30  O   UNL     1     -12.031  14.228  69.185  1.00  0.00    -0.319 OA 
ENDBRANCH  26  27
ENDBRANCH  13  26
TORSDOF 9
ENDMDL
MODEL      117
REMARK 921   NORMALIZED FREE ENERGY PREDICTED BY IDOCK:   -3.95 KCAL/MOL
REMARK 922        TOTAL FREE ENERGY PREDICTED BY IDOCK:   -8.11 KCAL/MOL
REMARK 923 INTER-LIGAND FREE ENERGY PREDICTED BY IDOCK:   -7.54 KCAL/MOL
REMARK 924 INTRA-LIGAND FREE ENERGY PREDICTED BY IDOCK:   -0.57 KCAL/MOL
REMARK 927      BINDING AFFINITY PREDICTED BY RF-SCORE:    0.00 PKD
ROOT
HETATM    1  C   UNL     1      -9.538  10.974  67.803  1.00  0.00    -0.180 C  
HETATM    2  C   UNL     1      -8.525  10.825  68.938  1.00  0.00    -0.149 C  
HETATM    3  C   UNL     1      -8.903   9.485  69.576  1.00  0.00    -0.179 C  
HETATM    4  O   UNL     1      -8.833   9.576  70.992  1.00  0.00    -0.288 OA 
HETATM    5  C   UNL     1     -10.364   9.180  69.149  1.00  0.00    -0.223 C  
HETATM    6  H   UNL     1      -9.068   8.745  71.388  1.00  0.00     0.000 HD 
HETATM    7  C   UNL     1     -12.108  13.854  69.701  1.00  0.00    -0.404 A  
HETATM    8  C   UNL     1     -10.828  10.472  68.429  1.00  0.00    -0.284 C  
HETATM    9  C   UNL     1     -12.073  15.207  69.399  1.00  0.00    -0.293 A  
HETATM   10  C   UNL     1     -11.408  11.490  69.422  1.00  0.00    -0.355 C  
HETATM   11  C   UNL     1     -11.218  15.660  68.400  1.00  0.00    -0.352 A  
HETATM   12  C   UNL     1     -11.307  12.939  68.999  1.00  0.00    -0.341 A  
HETATM   13  C   UNL     1     -10.375  14.780  67.701  1.00  0.00    -0.237 A  
HETATM   14  C   UNL     1     -10.409  13.393  67.994  1.00  0.00    -0.242 A  
HETATM   15  C   UNL     1      -9.643  12.364  67.203  1.00  0.00    -0.206 C  
ENDROOT
BRANCH   5  16
HETATM   16  C   UNL     1     -10.470   7.982  68.180  1.00  0.00    -0.222 C  
BRANCH  16  17
HETATM   17  C   UNL     1      -9.166   7.224  67.924  1.00  0.00    -0.131 C  
BRANCH  17  18
HETATM   18  C   UNL     1      -8.899   6.027  68.846  1.00  0.00    -0.120 C  
HETATM   19  O   UNL     1      -9.205   6.389  70.192  1.00  0.00    -0.155 OA 
HETATM   20  H   UNL     1      -9.040   5.648  70.763  1.00  0.00     0.000 HD 
BRANCH  18  21
HETATM   21  C   UNL     1      -9.779   4.822  68.483  1.00  0.00    -0.215 C  
BRANCH  21  22
HETATM   22  C   UNL     1      -9.895   3.810  69.624  1.00  0.00    -0.046 C  
BRANCH  22  23
HETATM   23  C   UNL     1      -8.589   3.060  69.871  1.00  0.00    -0.110 C  
BRANCH  23  24
HETATM   24  C   UNL     1      -8.668   2.299  71.194  1.00  0.00    -0.110 C  
HETATM   25  C   UNL     1      -9.639   2.953  72.160  1.00  0.00    -0.210 C  
ENDBRANCH  23  24
ENDBRANCH  22  23
ENDBRANCH  21  22
ENDBRANCH  18  21
ENDBRANCH  17  18
ENDBRANCH  16  17
ENDBRANCH   5  16
BRANCH  13  26
HETATM   26  O   UNL     1      -9.643  15.448  66.745  1.00  0.00    -0.224 OA 
BRANCH  26  27
HETATM   27  C   UNL     1     -10.297  16.439  65.962  1.00  0.00    -0.352 C  
HETATM   28  C   UNL     1     -10.921  15.851  64.710  1.00  0.00    -0.375 C  
HETATM   29  O   UNL     1     -10.791  14.510  64.621  1.00  0.00    -0.391 OA 
HETATM   30  O   UNL     1     -11.498  16.518  63.862  1.00  0.00    -1.145 OA 
ENDBRANCH  26  27
ENDBRANCH  13  26
TORSDOF 9
ENDMDL
MODEL      118
REMARK 921   NORMALIZED FREE ENERGY PREDICTED BY IDOCK:   -3.94 KCAL/MOL
REMARK 922        TOTAL FREE ENERGY PREDICTED BY IDOCK:   -8.10 KCAL/MOL
REMARK 923 INTER-LIGAND FREE ENERGY PREDICTED BY IDOCK:   -7.14 KCAL/MOL
REMARK 924 INTRA-LIGAND FREE ENERGY PREDICTED BY IDOCK:   -0.96 KCAL/MOL
REMARK 927      BINDING AFFINITY PREDICTED BY RF-SCORE:    0.00 PKD
ROOT
HETATM    1  C   UNL     1     -10.933   7.950  70.057  1.00  0.00    -0.208 C  
HETATM    2  C   UNL     1     -11.858   7.300  71.085  1.00  0.00    -0.345 C  
HETATM    3  C   UNL     1     -12.630   8.488  71.667  1.00  0.00    -0.333 C  
HETATM    4  O   UNL     1     -12.767   8.346  73.074  1.00  0.00    -0.697 OA 
HETATM    5  C   UNL     1     -11.799   9.761  71.353  1.00  0.00    -0.488 C  
HETATM    6  H   UNL     1     -13.245   9.083  73.435  1.00  0.00     0.000 HD 
HETATM    7  C   UNL     1      -7.303   7.769  72.359  1.00  0.00    -0.094 A  
HETATM    8  C   UNL     1     -10.474   9.215  70.762  1.00  0.00    -0.322 C  
HETATM    9  C   UNL     1      -6.323   6.813  72.143  1.00  0.00    -0.049 A  
HETATM   10  C   UNL     1      -9.452   8.908  71.867  1.00  0.00    -0.301 C  
HETATM   11  C   UNL     1      -6.477   5.902  71.103  1.00  0.00    -0.045 A  
HETATM   12  C   UNL     1      -8.435   7.839  71.531  1.00  0.00    -0.129 A  
HETATM   13  C   UNL     1      -7.612   5.918  70.276  1.00  0.00    -0.094 A  
HETATM   14  C   UNL     1      -8.616   6.898  70.480  1.00  0.00    -0.142 A  
HETATM   15  C   UNL     1      -9.797   7.075  69.560  1.00  0.00    -0.161 C  
ENDROOT
BRANCH   5  16
HETATM   16  C   UNL     1     -12.482  10.687  70.323  1.00  0.00    -0.381 C  
BRANCH  16  17
HETATM   17  C   UNL     1     -11.550  11.647  69.580  1.00  0.00    -0.401 C  
BRANCH  17  18
HETATM   18  C   UNL     1     -12.093  13.065  69.361  1.00  0.00    -0.212 C  
HETATM   19  O   UNL     1     -12.500  13.616  70.612  1.00  0.00    -0.344 OA 
HETATM   20  H   UNL     1     -12.836  14.493  70.476  1.00  0.00     0.000 HD 
BRANCH  18  21
HETATM   21  C   UNL     1     -11.024  13.999  68.774  1.00  0.00    -0.282 C  
BRANCH  21  22
HETATM   22  C   UNL     1     -10.822  13.797  67.272  1.00  0.00    -0.292 C  
BRANCH  22  23
HETATM   23  C   UNL     1     -12.144  13.687  66.517  1.00  0.00    -0.469 C  
BRANCH  23  24
HETATM   24  C   UNL     1     -11.981  14.237  65.100  1.00  0.00    -0.395 C  
HETATM   25  C   UNL     1     -10.569  14.039  64.580  1.00  0.00    -0.416 C  
ENDBRANCH  23  24
ENDBRANCH  22  23
ENDBRANCH  21  22
ENDBRANCH  18  21
ENDBRANCH  17  18
ENDBRANCH  16  17
ENDBRANCH   5  16
BRANCH  13  26
HETATM   26  O   UNL     1      -7.531   4.947  69.303  1.00  0.00    -0.056 OA 
BRANCH  26  27
HETATM   27  C   UNL     1      -8.215   3.718  69.516  1.00  0.00    -0.053 C  
HETATM   28  C   UNL     1      -8.872   3.208  68.246  1.00  0.00    -0.121 C  
HETATM   29  O   UNL     1      -8.626   3.978  67.165  1.00  0.00    -0.099 OA 
HETATM   30  O   UNL     1      -9.553   2.193  68.196  1.00  0.00    -0.212 OA 
ENDBRANCH  26  27
ENDBRANCH  13  26
TORSDOF 9
ENDMDL
MODEL      119
REMARK 921   NORMALIZED FREE ENERGY PREDICTED BY IDOCK:   -3.91 KCAL/MOL
REMARK 922        TOTAL FREE ENERGY PREDICTED BY IDOCK:   -8.06 KCAL/MOL
REMARK 923 INTER-LIGAND FREE ENERGY PREDICTED BY IDOCK:   -7.16 KCAL/MOL
REMARK 924 INTRA-LIGAND FREE ENERGY PREDICTED BY IDOCK:   -0.89 KCAL/MOL
REMARK 927      BINDING AFFINITY PREDICTED BY RF-SCORE:    0.00 PKD
ROOT
HETATM    1  C   UNL     1     -10.447  10.981  68.401  1.00  0.00    -0.203 C  
HETATM    2  C   UNL     1     -11.408   9.804  68.565  1.00  0.00     0.025 C  
HETATM    3  C   UNL     1     -10.535   8.721  69.205  1.00  0.00    -0.219 C  
HETATM    4  O   UNL     1     -10.815   7.455  68.624  1.00  0.00    -0.379 OA 
HETATM    5  C   UNL     1      -9.059   9.107  68.919  1.00  0.00    -0.139 C  
HETATM    6  H   UNL     1     -10.273   6.783  69.021  1.00  0.00     0.000 HD 
HETATM    7  C   UNL     1      -9.763  10.582  64.173  1.00  0.00    -0.388 A  
HETATM    8  C   UNL     1      -9.161  10.312  67.950  1.00  0.00    -0.133 C  
HETATM    9  C   UNL     1     -10.384  11.389  63.232  1.00  0.00    -0.422 A  
HETATM   10  C   UNL     1      -9.247   9.849  66.487  1.00  0.00    -0.190 C  
HETATM   11  C   UNL     1     -11.220  12.415  63.659  1.00  0.00    -0.544 A  
HETATM   12  C   UNL     1      -9.956  10.800  65.547  1.00  0.00    -0.321 A  
HETATM   13  C   UNL     1     -11.464  12.642  65.024  1.00  0.00    -0.329 A  
HETATM   14  C   UNL     1     -10.828  11.830  65.996  1.00  0.00    -0.343 A  
HETATM   15  C   UNL     1     -10.925  12.087  67.478  1.00  0.00    -0.303 C  
ENDROOT
BRANCH   5  16
HETATM   16  C   UNL     1      -8.290   9.529  70.190  1.00  0.00    -0.212 C  
BRANCH  16  17
HETATM   17  C   UNL     1      -7.750   8.381  71.045  1.00  0.00    -0.099 C  
BRANCH  17  18
HETATM   18  C   UNL     1      -6.262   8.463  71.407  1.00  0.00    -0.043 C  
HETATM   19  O   UNL     1      -6.098   9.293  72.557  1.00  0.00    -0.275 OA 
HETATM   20  H   UNL     1      -5.177   9.343  72.781  1.00  0.00     0.000 HD 
BRANCH  18  21
HETATM   21  C   UNL     1      -5.682   7.083  71.751  1.00  0.00    -0.037 C  
BRANCH  21  22
HETATM   22  C   UNL     1      -6.762   6.058  72.096  1.00  0.00    -0.068 C  
BRANCH  22  23
HETATM   23  C   UNL     1      -6.642   4.783  71.266  1.00  0.00    -0.030 C  
BRANCH  23  24
HETATM   24  C   UNL     1      -5.726   5.028  70.066  1.00  0.00    -0.016 C  
HETATM   25  C   UNL     1      -5.985   4.031  68.951  1.00  0.00    -0.023 C  
ENDBRANCH  23  24
ENDBRANCH  22  23
ENDBRANCH  21  22
ENDBRANCH  18  21
ENDBRANCH  17  18
ENDBRANCH  16  17
ENDBRANCH   5  16
BRANCH  13  26
HETATM   26  O   UNL     1     -12.297  13.723  65.206  1.00  0.00    -0.411 OA 
BRANCH  26  27
HETATM   27  C   UNL     1     -12.247  14.783  64.258  1.00  0.00    -0.379 C  
HETATM   28  C   UNL     1     -11.426  15.955  64.762  1.00  0.00    -0.234 C  
HETATM   29  O   UNL     1     -10.857  15.738  65.967  1.00  0.00    -0.317 OA 
HETATM   30  O   UNL     1     -11.279  16.998  64.138  1.00  0.00    -1.130 OA 
ENDBRANCH  26  27
ENDBRANCH  13  26
TORSDOF 9
ENDMDL
MODEL      120
REMARK 921   NORMALIZED FREE ENERGY PREDICTED BY IDOCK:   -3.89 KCAL/MOL
REMARK 922        TOTAL FREE ENERGY PREDICTED BY IDOCK:   -8.03 KCAL/MOL
REMARK 923 INTER-LIGAND FREE ENERGY PREDICTED BY IDOCK:   -6.98 KCAL/MOL
REMARK 924 INTRA-LIGAND FREE ENERGY PREDICTED BY IDOCK:   -1.05 KCAL/MOL
REMARK 927      BINDING AFFINITY PREDICTED BY RF-SCORE:    0.00 PKD
ROOT
HETATM    1  C   UNL     1     -11.269   9.666  68.858  1.00  0.00    -0.020 C  
HETATM    2  C   UNL     1     -11.933  10.495  69.957  1.00  0.00    -0.367 C  
HETATM    3  C   UNL     1     -11.901  11.919  69.393  1.00  0.00    -0.327 C  
HETATM    4  O   UNL     1     -11.560  12.846  70.414  1.00  0.00    -0.528 OA 
HETATM    5  C   UNL     1     -10.810  11.941  68.289  1.00  0.00    -0.261 C  
HETATM    6  H   UNL     1     -11.540  13.729  70.065  1.00  0.00     0.000 HD 
HETATM    7  C   UNL     1      -7.443   9.154  70.757  1.00  0.00    -0.133 A  
HETATM    8  C   UNL     1     -10.125  10.555  68.403  1.00  0.00    -0.181 C  
HETATM    9  C   UNL     1      -7.075   7.983  71.401  1.00  0.00    -0.063 A  
HETATM   10  C   UNL     1      -8.983  10.577  69.430  1.00  0.00    -0.111 C  
HETATM   11  C   UNL     1      -7.944   6.897  71.391  1.00  0.00    -0.108 A  
HETATM   12  C   UNL     1      -8.671   9.248  70.082  1.00  0.00    -0.224 A  
HETATM   13  C   UNL     1      -9.195   6.965  70.757  1.00  0.00    -0.158 A  
HETATM   14  C   UNL     1      -9.579   8.154  70.086  1.00  0.00    -0.168 A  
HETATM   15  C   UNL     1     -10.839   8.269  69.267  1.00  0.00    -0.063 C  
ENDROOT
BRANCH   5  16
HETATM   16  C   UNL     1     -11.394  12.114  66.870  1.00  0.00    -0.402 C  
BRANCH  16  17
HETATM   17  C   UNL     1     -12.068  13.459  66.594  1.00  0.00    -0.429 C  
BRANCH  17  18
HETATM   18  C   UNL     1     -12.787  13.580  65.245  1.00  0.00    -0.353 C  
HETATM   19  O   UNL     1     -12.291  14.719  64.543  1.00  0.00    -0.479 OA 
HETATM   20  H   UNL     1     -12.736  14.794  63.708  1.00  0.00     0.000 HD 
BRANCH  18  21
HETATM   21  C   UNL     1     -12.542  12.351  64.356  1.00  0.00    -0.489 C  
BRANCH  21  22
HETATM   22  C   UNL     1     -11.518  12.615  63.253  1.00  0.00    -0.368 C  
BRANCH  22  23
HETATM   23  C   UNL     1     -10.107  12.192  63.655  1.00  0.00    -0.410 C  
BRANCH  23  24
HETATM   24  C   UNL     1      -9.818  10.783  63.136  1.00  0.00    -0.378 C  
HETATM   25  C   UNL     1      -8.670  10.134  63.887  1.00  0.00    -0.220 C  
ENDBRANCH  23  24
ENDBRANCH  22  23
ENDBRANCH  21  22
ENDBRANCH  18  21
ENDBRANCH  17  18
ENDBRANCH  16  17
ENDBRANCH   5  16
BRANCH  13  26
HETATM   26  O   UNL     1      -9.866   5.767  70.854  1.00  0.00    -0.169 OA 
BRANCH  26  27
HETATM   27  C   UNL     1     -10.187   5.273  72.149  1.00  0.00    -0.199 C  
HETATM   28  C   UNL     1      -9.841   3.802  72.296  1.00  0.00    -0.163 C  
HETATM   29  O   UNL     1      -9.245   3.276  71.205  1.00  0.00    -0.101 OA 
HETATM   30  O   UNL     1     -10.068   3.150  73.306  1.00  0.00    -0.113 OA 
ENDBRANCH  26  27
ENDBRANCH  13  26
TORSDOF 9
ENDMDL
MODEL      121
REMARK 921   NORMALIZED FREE ENERGY PREDICTED BY IDOCK:   -3.89 KCAL/MOL
REMARK 922        TOTAL FREE ENERGY PREDICTED BY IDOCK:   -8.03 KCAL/MOL
REMARK 923 INTER-LIGAND FREE ENERGY PREDICTED BY IDOCK:   -6.95 KCAL/MOL
REMARK 924 INTRA-LIGAND FREE ENERGY PREDICTED BY IDOCK:   -1.08 KCAL/MOL
REMARK 927      BINDING AFFINITY PREDICTED BY RF-SCORE:    0.00 PKD
ROOT
HETATM    1  C   UNL     1     -10.100  10.985  66.849  1.00  0.00    -0.248 C  
HETATM    2  C   UNL     1      -8.693  10.938  67.445  1.00  0.00    -0.130 C  
HETATM    3  C   UNL     1      -8.572   9.499  67.954  1.00  0.00    -0.119 C  
HETATM    4  O   UNL     1      -7.925   9.476  69.219  1.00  0.00    -0.084 OA 
HETATM    5  C   UNL     1     -10.018   8.952  68.102  1.00  0.00    -0.208 C  
HETATM    6  H   UNL     1      -7.851   8.582  69.535  1.00  0.00     0.000 HD 
HETATM    7  C   UNL     1     -12.009  13.125  70.056  1.00  0.00    -0.391 A  
HETATM    8  C   UNL     1     -10.920  10.186  67.848  1.00  0.00    -0.335 C  
HETATM    9  C   UNL     1     -12.296  14.480  69.989  1.00  0.00    -0.376 A  
HETATM   10  C   UNL     1     -11.165  10.978  69.141  1.00  0.00    -0.318 C  
HETATM   11  C   UNL     1     -12.016  15.179  68.820  1.00  0.00    -0.280 A  
HETATM   12  C   UNL     1     -11.457  12.452  68.954  1.00  0.00    -0.355 A  
HETATM   13  C   UNL     1     -11.432  14.548  67.710  1.00  0.00    -0.340 A  
HETATM   14  C   UNL     1     -11.142  13.160  67.762  1.00  0.00    -0.287 A  
HETATM   15  C   UNL     1     -10.644  12.376  66.576  1.00  0.00    -0.261 C  
ENDROOT
BRANCH   5  16
HETATM   16  C   UNL     1     -10.352   7.848  67.076  1.00  0.00    -0.411 C  
BRANCH  16  17
HETATM   17  C   UNL     1      -9.215   6.872  66.765  1.00  0.00    -0.177 C  
BRANCH  17  18
HETATM   18  C   UNL     1      -8.554   7.036  65.391  1.00  0.00    -0.036 C  
HETATM   19  O   UNL     1      -8.838   8.337  64.880  1.00  0.00    -0.400 OA 
HETATM   20  H   UNL     1      -8.429   8.439  64.029  1.00  0.00     0.000 HD 
BRANCH  18  21
HETATM   21  C   UNL     1      -7.026   6.899  65.474  1.00  0.00    -0.060 C  
BRANCH  21  22
HETATM   22  C   UNL     1      -6.551   6.399  66.838  1.00  0.00    -0.055 C  
BRANCH  22  23
HETATM   23  C   UNL     1      -5.265   5.582  66.742  1.00  0.00    -0.005 C  
BRANCH  23  24
HETATM   24  C   UNL     1      -5.417   4.493  65.680  1.00  0.00    -0.013 C  
HETATM   25  C   UNL     1      -6.257   3.333  66.182  1.00  0.00    -0.028 C  
ENDBRANCH  23  24
ENDBRANCH  22  23
ENDBRANCH  21  22
ENDBRANCH  18  21
ENDBRANCH  17  18
ENDBRANCH  16  17
ENDBRANCH   5  16
BRANCH  13  26
HETATM   26  O   UNL     1     -11.274  15.429  66.664  1.00  0.00    -0.284 OA 
BRANCH  26  27
HETATM   27  C   UNL     1     -10.714  16.708  66.935  1.00  0.00    -0.153 C  
HETATM   28  C   UNL     1     -10.510  17.517  65.667  1.00  0.00    -0.149 C  
HETATM   29  O   UNL     1     -10.955  16.897  64.553  1.00  0.00    -0.989 OA 
HETATM   30  O   UNL     1     -10.002  18.630  65.648  1.00  0.00    -0.455 OA 
ENDBRANCH  26  27
ENDBRANCH  13  26
TORSDOF 9
ENDMDL
MODEL      122
REMARK 921   NORMALIZED FREE ENERGY PREDICTED BY IDOCK:   -3.88 KCAL/MOL
REMARK 922        TOTAL FREE ENERGY PREDICTED BY IDOCK:   -8.01 KCAL/MOL
REMARK 923 INTER-LIGAND FREE ENERGY PREDICTED BY IDOCK:   -6.87 KCAL/MOL
REMARK 924 INTRA-LIGAND FREE ENERGY PREDICTED BY IDOCK:   -1.14 KCAL/MOL
REMARK 927      BINDING AFFINITY PREDICTED BY RF-SCORE:    0.00 PKD
ROOT
HETATM    1  C   UNL     1     -10.170  13.052  67.223  1.00  0.00    -0.239 C  
HETATM    2  C   UNL     1     -10.163  12.718  65.731  1.00  0.00    -0.302 C  
HETATM    3  C   UNL     1     -10.349  11.198  65.708  1.00  0.00    -0.260 C  
HETATM    4  O   UNL     1      -9.504  10.613  64.727  1.00  0.00    -0.214 OA 
HETATM    5  C   UNL     1      -9.949  10.675  67.114  1.00  0.00    -0.234 C  
HETATM    6  H   UNL     1      -9.620   9.670  64.713  1.00  0.00     0.000 HD 
HETATM    7  C   UNL     1      -5.934  13.629  67.702  1.00  0.00    -0.085 A  
HETATM    8  C   UNL     1      -9.362  11.917  67.830  1.00  0.00    -0.187 C  
HETATM    9  C   UNL     1      -5.350  14.885  67.764  1.00  0.00    -0.044 A  
HETATM   10  C   UNL     1      -7.862  12.074  67.542  1.00  0.00    -0.155 C  
HETATM   11  C   UNL     1      -6.158  16.016  67.732  1.00  0.00    -0.162 A  
HETATM   12  C   UNL     1      -7.329  13.489  67.625  1.00  0.00    -0.180 A  
HETATM   13  C   UNL     1      -7.555  15.916  67.620  1.00  0.00    -0.150 A  
HETATM   14  C   UNL     1      -8.166  14.637  67.565  1.00  0.00    -0.203 A  
HETATM   15  C   UNL     1      -9.659  14.435  67.582  1.00  0.00    -0.214 C  
ENDROOT
BRANCH   5  16
HETATM   16  C   UNL     1     -11.151  10.134  67.919  1.00  0.00    -0.303 C  
BRANCH  16  17
HETATM   17  C   UNL     1     -10.798   9.237  69.108  1.00  0.00    -0.154 C  
BRANCH  17  18
HETATM   18  C   UNL     1     -10.688   9.944  70.465  1.00  0.00    -0.317 C  
HETATM   19  O   UNL     1     -11.920  10.602  70.758  1.00  0.00    -0.320 OA 
HETATM   20  H   UNL     1     -11.852  11.039  71.598  1.00  0.00     0.000 HD 
BRANCH  18  21
HETATM   21  C   UNL     1     -10.417   8.950  71.604  1.00  0.00    -0.408 C  
BRANCH  21  22
HETATM   22  C   UNL     1     -10.941   7.546  71.301  1.00  0.00    -0.262 C  
BRANCH  22  23
HETATM   23  C   UNL     1     -12.135   7.170  72.173  1.00  0.00    -0.284 C  
BRANCH  23  24
HETATM   24  C   UNL     1     -13.419   7.208  71.343  1.00  0.00    -0.374 C  
HETATM   25  C   UNL     1     -14.351   8.313  71.804  1.00  0.00    -0.574 C  
ENDBRANCH  23  24
ENDBRANCH  22  23
ENDBRANCH  21  22
ENDBRANCH  18  21
ENDBRANCH  17  18
ENDBRANCH  16  17
ENDBRANCH   5  16
BRANCH  13  26
HETATM   26  O   UNL     1      -8.144  17.160  67.636  1.00  0.00    -0.176 OA 
BRANCH  26  27
HETATM   27  C   UNL     1      -8.386  17.810  66.394  1.00  0.00    -0.248 C  
HETATM   28  C   UNL     1      -7.709  19.167  66.324  1.00  0.00    -0.282 C  
HETATM   29  O   UNL     1      -6.967  19.457  67.414  1.00  0.00    -0.203 OA 
HETATM   30  O   UNL     1      -7.813  19.927  65.371  1.00  0.00    -0.335 OA 
ENDBRANCH  26  27
ENDBRANCH  13  26
TORSDOF 9
ENDMDL
MODEL      123
REMARK 921   NORMALIZED FREE ENERGY PREDICTED BY IDOCK:   -3.87 KCAL/MOL
REMARK 922        TOTAL FREE ENERGY PREDICTED BY IDOCK:   -8.00 KCAL/MOL
REMARK 923 INTER-LIGAND FREE ENERGY PREDICTED BY IDOCK:   -6.65 KCAL/MOL
REMARK 924 INTRA-LIGAND FREE ENERGY PREDICTED BY IDOCK:   -1.35 KCAL/MOL
REMARK 927      BINDING AFFINITY PREDICTED BY RF-SCORE:    0.00 PKD
ROOT
HETATM    1  C   UNL     1      -9.964   7.620  67.615  1.00  0.00    -0.225 C  
HETATM    2  C   UNL     1     -11.060   6.717  67.050  1.00  0.00    -0.369 C  
HETATM    3  C   UNL     1     -10.508   5.307  67.279  1.00  0.00    -0.173 C  
HETATM    4  O   UNL     1     -10.768   4.486  66.148  1.00  0.00    -0.466 OA 
HETATM    5  C   UNL     1      -8.975   5.450  67.473  1.00  0.00    -0.108 C  
HETATM    6  H   UNL     1     -10.426   3.611  66.290  1.00  0.00     0.000 HD 
HETATM    7  C   UNL     1      -8.259   8.868  63.867  1.00  0.00    -0.171 A  
HETATM    8  C   UNL     1      -8.687   6.939  67.153  1.00  0.00    -0.120 C  
HETATM    9  C   UNL     1      -8.521  10.105  63.298  1.00  0.00    -0.184 A  
HETATM   10  C   UNL     1      -8.444   7.153  65.651  1.00  0.00    -0.141 C  
HETATM   11  C   UNL     1      -9.319  11.016  63.982  1.00  0.00    -0.231 A  
HETATM   12  C   UNL     1      -8.774   8.535  65.131  1.00  0.00    -0.156 A  
HETATM   13  C   UNL     1      -9.881  10.705  65.231  1.00  0.00    -0.275 A  
HETATM   14  C   UNL     1      -9.613   9.447  65.829  1.00  0.00    -0.340 A  
HETATM   15  C   UNL     1     -10.060   9.083  67.222  1.00  0.00    -0.297 C  
ENDROOT
BRANCH   5  16
HETATM   16  C   UNL     1      -8.519   5.133  68.914  1.00  0.00    -0.090 C  
BRANCH  16  17
HETATM   17  C   UNL     1      -9.561   4.447  69.799  1.00  0.00    -0.276 C  
BRANCH  17  18
HETATM   18  C   UNL     1      -9.928   5.187  71.092  1.00  0.00    -0.206 C  
HETATM   19  O   UNL     1      -9.311   4.537  72.202  1.00  0.00    -0.127 OA 
HETATM   20  H   UNL     1      -9.538   4.995  73.002  1.00  0.00     0.000 HD 
BRANCH  18  21
HETATM   21  C   UNL     1      -9.431   6.640  71.077  1.00  0.00    -0.168 C  
BRANCH  21  22
HETATM   22  C   UNL     1     -10.256   7.556  71.981  1.00  0.00    -0.234 C  
BRANCH  22  23
HETATM   23  C   UNL     1      -9.386   8.526  72.776  1.00  0.00    -0.239 C  
BRANCH  23  24
HETATM   24  C   UNL     1      -7.983   7.945  72.950  1.00  0.00    -0.181 C  
HETATM   25  C   UNL     1      -7.023   8.963  73.537  1.00  0.00     0.210 C  
ENDBRANCH  23  24
ENDBRANCH  22  23
ENDBRANCH  21  22
ENDBRANCH  18  21
ENDBRANCH  17  18
ENDBRANCH  16  17
ENDBRANCH   5  16
BRANCH  13  26
HETATM   26  O   UNL     1     -10.607  11.765  65.727  1.00  0.00    -0.251 OA 
BRANCH  26  27
HETATM   27  C   UNL     1     -11.518  12.426  64.858  1.00  0.00    -0.332 C  
HETATM   28  C   UNL     1     -12.503  13.291  65.622  1.00  0.00    -0.451 C  
HETATM   29  O   UNL     1     -12.281  13.314  66.954  1.00  0.00    -0.350 OA 
HETATM   30  O   UNL     1     -13.408  13.920  65.091  1.00  0.00    -0.698 OA 
ENDBRANCH  26  27
ENDBRANCH  13  26
TORSDOF 9
ENDMDL
MODEL      124
REMARK 921   NORMALIZED FREE ENERGY PREDICTED BY IDOCK:   -3.86 KCAL/MOL
REMARK 922        TOTAL FREE ENERGY PREDICTED BY IDOCK:   -7.98 KCAL/MOL
REMARK 923 INTER-LIGAND FREE ENERGY PREDICTED BY IDOCK:   -6.96 KCAL/MOL
REMARK 924 INTRA-LIGAND FREE ENERGY PREDICTED BY IDOCK:   -1.01 KCAL/MOL
REMARK 927      BINDING AFFINITY PREDICTED BY RF-SCORE:    0.00 PKD
ROOT
HETATM    1  C   UNL     1      -9.590   8.787  67.391  1.00  0.00    -0.206 C  
HETATM    2  C   UNL     1     -10.454   7.582  67.017  1.00  0.00    -0.409 C  
HETATM    3  C   UNL     1      -9.427   6.471  66.778  1.00  0.00    -0.158 C  
HETATM    4  O   UNL     1      -9.788   5.702  65.640  1.00  0.00    -0.373 OA 
HETATM    5  C   UNL     1      -8.063   7.168  66.520  1.00  0.00    -0.114 C  
HETATM    6  H   UNL     1      -9.151   5.013  65.491  1.00  0.00     0.000 HD 
HETATM    7  C   UNL     1      -9.849  10.867  63.634  1.00  0.00    -0.403 A  
HETATM    8  C   UNL     1      -8.415   8.675  66.434  1.00  0.00    -0.117 C  
HETATM    9  C   UNL     1     -10.687  11.952  63.433  1.00  0.00    -0.476 A  
HETATM   10  C   UNL     1      -8.810   9.078  65.006  1.00  0.00    -0.213 C  
HETATM   11  C   UNL     1     -11.440  12.439  64.496  1.00  0.00    -0.394 A  
HETATM   12  C   UNL     1      -9.738  10.268  64.900  1.00  0.00    -0.385 A  
HETATM   13  C   UNL     1     -11.382  11.845  65.768  1.00  0.00    -0.299 A  
HETATM   14  C   UNL     1     -10.521  10.741  65.989  1.00  0.00    -0.273 A  
HETATM   15  C   UNL     1     -10.295  10.130  67.349  1.00  0.00    -0.289 C  
ENDROOT
BRANCH   5  16
HETATM   16  C   UNL     1      -7.045   6.939  67.659  1.00  0.00    -0.085 C  
BRANCH  16  17
HETATM   17  C   UNL     1      -7.556   6.115  68.843  1.00  0.00    -0.092 C  
BRANCH  17  18
HETATM   18  C   UNL     1      -7.509   6.813  70.208  1.00  0.00    -0.090 C  
HETATM   19  O   UNL     1      -8.590   7.740  70.305  1.00  0.00    -0.135 OA 
HETATM   20  H   UNL     1      -8.561   8.171  71.150  1.00  0.00     0.000 HD 
BRANCH  18  21
HETATM   21  C   UNL     1      -7.658   5.812  71.364  1.00  0.00    -0.105 C  
BRANCH  21  22
HETATM   22  C   UNL     1      -8.391   4.536  70.951  1.00  0.00    -0.095 C  
BRANCH  22  23
HETATM   23  C   UNL     1      -8.471   3.518  72.085  1.00  0.00    -0.090 C  
BRANCH  23  24
HETATM   24  C   UNL     1      -8.686   4.237  73.416  1.00  0.00    -0.092 C  
HETATM   25  C   UNL     1      -9.199   3.292  74.488  1.00  0.00    -0.109 C  
ENDBRANCH  23  24
ENDBRANCH  22  23
ENDBRANCH  21  22
ENDBRANCH  18  21
ENDBRANCH  17  18
ENDBRANCH  16  17
ENDBRANCH   5  16
BRANCH  13  26
HETATM   26  O   UNL     1     -12.187  12.512  66.664  1.00  0.00    -0.552 OA 
BRANCH  26  27
HETATM   27  C   UNL     1     -11.935  13.891  66.904  1.00  0.00    -0.433 C  
HETATM   28  C   UNL     1     -11.851  14.201  68.388  1.00  0.00    -0.353 C  
HETATM   29  O   UNL     1     -11.965  13.109  69.175  1.00  0.00    -0.305 OA 
HETATM   30  O   UNL     1     -11.685  15.327  68.837  1.00  0.00    -0.322 OA 
ENDBRANCH  26  27
ENDBRANCH  13  26
TORSDOF 9
ENDMDL
MODEL      125
REMARK 921   NORMALIZED FREE ENERGY PREDICTED BY IDOCK:   -3.85 KCAL/MOL
REMARK 922        TOTAL FREE ENERGY PREDICTED BY IDOCK:   -7.97 KCAL/MOL
REMARK 923 INTER-LIGAND FREE ENERGY PREDICTED BY IDOCK:   -7.57 KCAL/MOL
REMARK 924 INTRA-LIGAND FREE ENERGY PREDICTED BY IDOCK:   -0.39 KCAL/MOL
REMARK 927      BINDING AFFINITY PREDICTED BY RF-SCORE:    0.00 PKD
ROOT
HETATM    1  C   UNL     1     -10.495  10.713  68.767  1.00  0.00    -0.215 C  
HETATM    2  C   UNL     1     -11.160  10.232  67.478  1.00  0.00    -0.302 C  
HETATM    3  C   UNL     1     -10.060   9.414  66.796  1.00  0.00    -0.256 C  
HETATM    4  O   UNL     1     -10.044   9.676  65.399  1.00  0.00    -0.358 OA 
HETATM    5  C   UNL     1      -8.712   9.864  67.422  1.00  0.00    -0.129 C  
HETATM    6  H   UNL     1      -9.361   9.168  64.976  1.00  0.00     0.000 HD 
HETATM    7  C   UNL     1      -9.753  14.772  67.553  1.00  0.00    -0.213 A  
HETATM    8  C   UNL     1      -9.091  11.073  68.313  1.00  0.00    -0.158 C  
HETATM    9  C   UNL     1     -10.545  15.835  67.960  1.00  0.00    -0.279 A  
HETATM   10  C   UNL     1      -9.074  12.385  67.515  1.00  0.00    -0.185 C  
HETATM   11  C   UNL     1     -11.593  15.605  68.845  1.00  0.00    -0.392 A  
HETATM   12  C   UNL     1      -9.985  13.475  68.038  1.00  0.00    -0.248 A  
HETATM   13  C   UNL     1     -11.878  14.316  69.324  1.00  0.00    -0.330 A  
HETATM   14  C   UNL     1     -11.069  13.222  68.924  1.00  0.00    -0.304 A  
HETATM   15  C   UNL     1     -11.217  11.834  69.492  1.00  0.00    -0.265 C  
ENDROOT
BRANCH   5  16
HETATM   16  C   UNL     1      -8.056   8.767  68.290  1.00  0.00    -0.114 C  
BRANCH  16  17
HETATM   17  C   UNL     1      -8.707   8.529  69.654  1.00  0.00    -0.133 C  
BRANCH  17  18
HETATM   18  C   UNL     1      -8.620   7.096  70.192  1.00  0.00    -0.140 C  
HETATM   19  O   UNL     1      -7.804   7.078  71.363  1.00  0.00    -0.094 OA 
HETATM   20  H   UNL     1      -7.751   6.191  71.696  1.00  0.00     0.000 HD 
BRANCH  18  21
HETATM   21  C   UNL     1     -10.001   6.551  70.587  1.00  0.00    -0.206 C  
BRANCH  21  22
HETATM   22  C   UNL     1     -10.639   5.705  69.485  1.00  0.00    -0.384 C  
BRANCH  22  23
HETATM   23  C   UNL     1      -9.944   4.358  69.309  1.00  0.00    -0.144 C  
BRANCH  23  24
HETATM   24  C   UNL     1      -9.585   3.775  70.676  1.00  0.00    -0.259 C  
HETATM   25  C   UNL     1      -8.696   2.551  70.547  1.00  0.00    -0.119 C  
ENDBRANCH  23  24
ENDBRANCH  22  23
ENDBRANCH  21  22
ENDBRANCH  18  21
ENDBRANCH  17  18
ENDBRANCH  16  17
ENDBRANCH   5  16
BRANCH  13  26
HETATM   26  O   UNL     1     -12.936  14.336  70.205  1.00  0.00    -0.261 OA 
BRANCH  26  27
HETATM   27  C   UNL     1     -13.133  15.500  70.999  1.00  0.00    -0.489 C  
HETATM   28  C   UNL     1     -13.807  15.177  72.320  1.00  0.00    -0.515 C  
HETATM   29  O   UNL     1     -14.024  13.857  72.507  1.00  0.00    -0.630 OA 
HETATM   30  O   UNL     1     -14.119  16.023  73.147  1.00  0.00    -0.450 OA 
ENDBRANCH  26  27
ENDBRANCH  13  26
TORSDOF 9
ENDMDL
MODEL      126
REMARK 921   NORMALIZED FREE ENERGY PREDICTED BY IDOCK:   -3.84 KCAL/MOL
REMARK 922        TOTAL FREE ENERGY PREDICTED BY IDOCK:   -7.95 KCAL/MOL
REMARK 923 INTER-LIGAND FREE ENERGY PREDICTED BY IDOCK:   -7.61 KCAL/MOL
REMARK 924 INTRA-LIGAND FREE ENERGY PREDICTED BY IDOCK:   -0.34 KCAL/MOL
REMARK 927      BINDING AFFINITY PREDICTED BY RF-SCORE:    0.00 PKD
ROOT
HETATM    1  C   UNL     1      -9.947  12.649  67.718  1.00  0.00    -0.218 C  
HETATM    2  C   UNL     1      -8.832  12.033  68.562  1.00  0.00    -0.095 C  
HETATM    3  C   UNL     1      -9.011  10.528  68.339  1.00  0.00    -0.141 C  
HETATM    4  O   UNL     1      -8.831   9.824  69.560  1.00  0.00    -0.163 OA 
HETATM    5  C   UNL     1     -10.462  10.319  67.830  1.00  0.00    -0.269 C  
HETATM    6  H   UNL     1      -8.943   8.890  69.422  1.00  0.00     0.000 HD 
HETATM    7  C   UNL     1     -12.637  13.609  70.935  1.00  0.00    -0.421 A  
HETATM    8  C   UNL     1     -11.119  11.716  67.967  1.00  0.00    -0.299 C  
HETATM    9  C   UNL     1     -12.770  14.891  71.446  1.00  0.00    -0.408 A  
HETATM   10  C   UNL     1     -11.717  11.920  69.367  1.00  0.00    -0.401 C  
HETATM   11  C   UNL     1     -12.055  15.933  70.867  1.00  0.00    -0.414 A  
HETATM   12  C   UNL     1     -11.805  13.357  69.832  1.00  0.00    -0.385 A  
HETATM   13  C   UNL     1     -11.186  15.714  69.785  1.00  0.00    -0.321 A  
HETATM   14  C   UNL     1     -11.049  14.409  69.247  1.00  0.00    -0.300 A  
HETATM   15  C   UNL     1     -10.248  14.109  68.006  1.00  0.00    -0.232 C  
ENDROOT
BRANCH   5  16
HETATM   16  C   UNL     1     -10.523   9.861  66.356  1.00  0.00    -0.197 C  
BRANCH  16  17
HETATM   17  C   UNL     1      -9.966  10.855  65.334  1.00  0.00    -0.319 C  
BRANCH  17  18
HETATM   18  C   UNL     1      -8.708  10.402  64.582  1.00  0.00    -0.187 C  
HETATM   19  O   UNL     1      -7.550  10.873  65.269  1.00  0.00    -0.354 OA 
HETATM   20  H   UNL     1      -6.771  10.593  64.804  1.00  0.00     0.000 HD 
BRANCH  18  21
HETATM   21  C   UNL     1      -8.608   8.871  64.509  1.00  0.00    -0.155 C  
BRANCH  21  22
HETATM   22  C   UNL     1      -7.347   8.329  65.182  1.00  0.00    -0.081 C  
BRANCH  22  23
HETATM   23  C   UNL     1      -7.209   6.817  65.026  1.00  0.00    -0.074 C  
BRANCH  23  24
HETATM   24  C   UNL     1      -8.053   6.105  66.083  1.00  0.00    -0.115 C  
HETATM   25  C   UNL     1      -8.703   4.851  65.530  1.00  0.00    -0.139 C  
ENDBRANCH  23  24
ENDBRANCH  22  23
ENDBRANCH  21  22
ENDBRANCH  18  21
ENDBRANCH  17  18
ENDBRANCH  16  17
ENDBRANCH   5  16
BRANCH  13  26
HETATM   26  O   UNL     1     -10.612  16.893  69.363  1.00  0.00    -0.337 OA 
BRANCH  26  27
HETATM   27  C   UNL     1     -10.783  17.280  68.005  1.00  0.00    -0.367 C  
HETATM   28  C   UNL     1     -10.400  18.732  67.778  1.00  0.00    -0.411 C  
HETATM   29  O   UNL     1      -9.917  19.341  68.882  1.00  0.00    -0.422 OA 
HETATM   30  O   UNL     1     -10.506  19.300  66.700  1.00  0.00    -0.389 OA 
ENDBRANCH  26  27
ENDBRANCH  13  26
TORSDOF 9
ENDMDL
MODEL      127
REMARK 921   NORMALIZED FREE ENERGY PREDICTED BY IDOCK:   -3.82 KCAL/MOL
REMARK 922        TOTAL FREE ENERGY PREDICTED BY IDOCK:   -7.93 KCAL/MOL
REMARK 923 INTER-LIGAND FREE ENERGY PREDICTED BY IDOCK:   -7.26 KCAL/MOL
REMARK 924 INTRA-LIGAND FREE ENERGY PREDICTED BY IDOCK:   -0.66 KCAL/MOL
REMARK 927      BINDING AFFINITY PREDICTED BY RF-SCORE:    0.00 PKD
ROOT
HETATM    1  C   UNL     1     -10.601  14.845  70.128  1.00  0.00    -0.070 C  
HETATM    2  C   UNL     1     -11.694  15.725  70.734  1.00  0.00    -0.430 C  
HETATM    3  C   UNL     1     -12.854  14.748  70.949  1.00  0.00    -0.362 C  
HETATM    4  O   UNL     1     -14.086  15.358  70.589  1.00  0.00    -0.818 OA 
HETATM    5  C   UNL     1     -12.592  13.528  70.027  1.00  0.00    -0.131 C  
HETATM    6  H   UNL     1     -14.805  14.752  70.723  1.00  0.00     0.000 HD 
HETATM    7  C   UNL     1     -11.011  16.148  66.048  1.00  0.00    -0.056 A  
HETATM    8  C   UNL     1     -11.372  13.953  69.170  1.00  0.00    -0.331 C  
HETATM    9  C   UNL     1     -10.144  17.055  65.459  1.00  0.00    -0.035 A  
HETATM   10  C   UNL     1     -11.809  14.717  67.912  1.00  0.00    -0.327 C  
HETATM   11  C   UNL     1      -9.055  17.528  66.183  1.00  0.00    -0.157 A  
HETATM   12  C   UNL     1     -10.792  15.691  67.358  1.00  0.00    -0.315 A  
HETATM   13  C   UNL     1      -8.823  17.121  67.507  1.00  0.00    -0.216 A  
HETATM   14  C   UNL     1      -9.697  16.186  68.119  1.00  0.00    -0.222 A  
HETATM   15  C   UNL     1      -9.449  15.593  69.482  1.00  0.00    -0.275 C  
ENDROOT
BRANCH   5  16
HETATM   16  C   UNL     1     -12.250  12.243  70.812  1.00  0.00    -0.354 C  
BRANCH  16  17
HETATM   17  C   UNL     1     -12.123  10.971  69.971  1.00  0.00    -0.441 C  
BRANCH  17  18
HETATM   18  C   UNL     1     -10.837  10.843  69.146  1.00  0.00    -0.235 C  
HETATM   19  O   UNL     1     -10.153   9.646  69.516  1.00  0.00    -0.185 OA 
HETATM   20  H   UNL     1      -9.357   9.567  69.005  1.00  0.00     0.000 HD 
BRANCH  18  21
HETATM   21  C   UNL     1     -11.131  10.757  67.641  1.00  0.00    -0.384 C  
BRANCH  21  22
HETATM   22  C   UNL     1      -9.993  11.309  66.783  1.00  0.00    -0.238 C  
BRANCH  22  23
HETATM   23  C   UNL     1     -10.192  11.022  65.298  1.00  0.00    -0.344 C  
BRANCH  23  24
HETATM   24  C   UNL     1     -11.451  11.728  64.795  1.00  0.00    -0.281 C  
HETATM   25  C   UNL     1     -11.130  13.080  64.185  1.00  0.00    -0.437 C  
ENDBRANCH  23  24
ENDBRANCH  22  23
ENDBRANCH  21  22
ENDBRANCH  18  21
ENDBRANCH  17  18
ENDBRANCH  16  17
ENDBRANCH   5  16
BRANCH  13  26
HETATM   26  O   UNL     1      -7.678  17.696  68.010  1.00  0.00    -0.218 OA 
BRANCH  26  27
HETATM   27  C   UNL     1      -7.505  17.737  69.421  1.00  0.00     0.141 C  
HETATM   28  C   UNL     1      -6.055  17.969  69.807  1.00  0.00    -0.208 C  
HETATM   29  O   UNL     1      -5.237  18.154  68.749  1.00  0.00    -0.167 OA 
HETATM   30  O   UNL     1      -5.658  17.998  70.964  1.00  0.00    -0.164 OA 
ENDBRANCH  26  27
ENDBRANCH  13  26
TORSDOF 9
ENDMDL
MODEL      128
REMARK 921   NORMALIZED FREE ENERGY PREDICTED BY IDOCK:   -3.82 KCAL/MOL
REMARK 922        TOTAL FREE ENERGY PREDICTED BY IDOCK:   -7.91 KCAL/MOL
REMARK 923 INTER-LIGAND FREE ENERGY PREDICTED BY IDOCK:   -6.87 KCAL/MOL
REMARK 924 INTRA-LIGAND FREE ENERGY PREDICTED BY IDOCK:   -1.04 KCAL/MOL
REMARK 927      BINDING AFFINITY PREDICTED BY RF-SCORE:    0.00 PKD
ROOT
HETATM    1  C   UNL     1     -10.012  12.536  67.902  1.00  0.00    -0.212 C  
HETATM    2  C   UNL     1     -11.094  12.628  68.977  1.00  0.00    -0.291 C  
HETATM    3  C   UNL     1     -11.436  11.162  69.261  1.00  0.00    -0.294 C  
HETATM    4  O   UNL     1     -12.840  11.003  69.409  1.00  0.00    -0.405 OA 
HETATM    5  C   UNL     1     -10.948  10.342  68.037  1.00  0.00    -0.345 C  
HETATM    6  H   UNL     1     -13.052  10.093  69.585  1.00  0.00     0.000 HD 
HETATM    7  C   UNL     1     -12.460  13.597  64.528  1.00  0.00    -0.335 A  
HETATM    8  C   UNL     1     -10.513  11.415  67.007  1.00  0.00    -0.271 C  
HETATM    9  C   UNL     1     -12.448  14.862  63.959  1.00  0.00     0.026 A  
HETATM   10  C   UNL     1     -11.695  11.871  66.139  1.00  0.00    -0.217 C  
HETATM   11  C   UNL     1     -11.570  15.822  64.450  1.00  0.00    -0.240 A  
HETATM   12  C   UNL     1     -11.586  13.273  65.578  1.00  0.00    -0.351 A  
HETATM   13  C   UNL     1     -10.705  15.545  65.522  1.00  0.00    -0.381 A  
HETATM   14  C   UNL     1     -10.701  14.253  66.106  1.00  0.00    -0.295 A  
HETATM   15  C   UNL     1      -9.716  13.829  67.165  1.00  0.00    -0.244 C  
ENDROOT
BRANCH   5  16
HETATM   16  C   UNL     1      -9.750   9.425  68.366  1.00  0.00    -0.163 C  
BRANCH  16  17
HETATM   17  C   UNL     1      -8.667  10.047  69.250  1.00  0.00    -0.182 C  
BRANCH  17  18
HETATM   18  C   UNL     1      -7.255  10.077  68.652  1.00  0.00    -0.080 C  
HETATM   19  O   UNL     1      -6.420   9.166  69.366  1.00  0.00    -0.043 OA 
HETATM   20  H   UNL     1      -5.545   9.184  68.996  1.00  0.00     0.000 HD 
BRANCH  18  21
HETATM   21  C   UNL     1      -7.251   9.645  67.178  1.00  0.00    -0.087 C  
BRANCH  21  22
HETATM   22  C   UNL     1      -6.528   8.317  66.953  1.00  0.00    -0.057 C  
BRANCH  22  23
HETATM   23  C   UNL     1      -6.775   7.749  65.559  1.00  0.00    -0.045 C  
BRANCH  23  24
HETATM   24  C   UNL     1      -8.176   8.131  65.081  1.00  0.00    -0.156 C  
HETATM   25  C   UNL     1      -8.277   8.112  63.567  1.00  0.00    -0.058 C  
ENDBRANCH  23  24
ENDBRANCH  22  23
ENDBRANCH  21  22
ENDBRANCH  18  21
ENDBRANCH  17  18
ENDBRANCH  16  17
ENDBRANCH   5  16
BRANCH  13  26
HETATM   26  O   UNL     1      -9.914  16.633  65.815  1.00  0.00    -0.466 OA 
BRANCH  26  27
HETATM   27  C   UNL     1     -10.152  17.336  67.029  1.00  0.00    -0.303 C  
HETATM   28  C   UNL     1     -10.432  18.808  66.785  1.00  0.00    -0.420 C  
HETATM   29  O   UNL     1     -10.465  19.142  65.477  1.00  0.00    -0.521 OA 
HETATM   30  O   UNL     1     -10.621  19.619  67.681  1.00  0.00    -0.437 OA 
ENDBRANCH  26  27
ENDBRANCH  13  26
TORSDOF 9
ENDMDL
MODEL      129
REMARK 921   NORMALIZED FREE ENERGY PREDICTED BY IDOCK:   -3.81 KCAL/MOL
REMARK 922        TOTAL FREE ENERGY PREDICTED BY IDOCK:   -7.90 KCAL/MOL
REMARK 923 INTER-LIGAND FREE ENERGY PREDICTED BY IDOCK:   -6.73 KCAL/MOL
REMARK 924 INTRA-LIGAND FREE ENERGY PREDICTED BY IDOCK:   -1.17 KCAL/MOL
REMARK 927      BINDING AFFINITY PREDICTED BY RF-SCORE:    0.00 PKD
ROOT
HETATM    1  C   UNL     1     -10.596  13.062  66.483  1.00  0.00    -0.292 C  
HETATM    2  C   UNL     1     -10.315  12.970  64.984  1.00  0.00    -0.336 C  
HETATM    3  C   UNL     1     -10.139  11.467  64.748  1.00  0.00    -0.269 C  
HETATM    4  O   UNL     1      -9.059  11.231  63.855  1.00  0.00    -0.383 OA 
HETATM    5  C   UNL     1      -9.818  10.831  66.128  1.00  0.00    -0.269 C  
HETATM    6  H   UNL     1      -8.950  10.298  63.709  1.00  0.00     0.000 HD 
HETATM    7  C   UNL     1      -6.710  14.440  67.713  1.00  0.00    -0.191 A  
HETATM    8  C   UNL     1      -9.635  12.045  67.074  1.00  0.00    -0.200 C  
HETATM    9  C   UNL     1      -6.446  15.766  68.020  1.00  0.00    -0.150 A  
HETATM   10  C   UNL     1      -8.187  12.557  67.055  1.00  0.00    -0.125 C  
HETATM   11  C   UNL     1      -7.483  16.692  67.991  1.00  0.00    -0.170 A  
HETATM   12  C   UNL     1      -8.012  14.022  67.393  1.00  0.00    -0.191 A  
HETATM   13  C   UNL     1      -8.791  16.318  67.642  1.00  0.00    -0.190 A  
HETATM   14  C   UNL     1      -9.076  14.963  67.336  1.00  0.00    -0.196 A  
HETATM   15  C   UNL     1     -10.471  14.450  67.084  1.00  0.00    -0.263 C  
ENDROOT
BRANCH   5  16
HETATM   16  C   UNL     1     -10.958   9.932  66.655  1.00  0.00     0.079 C  
BRANCH  16  17
HETATM   17  C   UNL     1     -10.529   8.550  67.155  1.00  0.00    -0.370 C  
BRANCH  17  18
HETATM   18  C   UNL     1      -9.030   8.377  67.430  1.00  0.00    -0.134 C  
HETATM   19  O   UNL     1      -8.739   8.813  68.757  1.00  0.00    -0.135 OA 
HETATM   20  H   UNL     1      -7.811   8.706  68.927  1.00  0.00     0.000 HD 
BRANCH  18  21
HETATM   21  C   UNL     1      -8.598   6.907  67.324  1.00  0.00    -0.120 C  
BRANCH  21  22
HETATM   22  C   UNL     1      -9.767   5.934  67.487  1.00  0.00    -0.123 C  
BRANCH  22  23
HETATM   23  C   UNL     1      -9.941   5.470  68.930  1.00  0.00    -0.236 C  
BRANCH  23  24
HETATM   24  C   UNL     1     -11.276   5.972  69.481  1.00  0.00    -0.416 C  
HETATM   25  C   UNL     1     -11.090   6.792  70.744  1.00  0.00    -0.323 C  
ENDBRANCH  23  24
ENDBRANCH  22  23
ENDBRANCH  21  22
ENDBRANCH  18  21
ENDBRANCH  17  18
ENDBRANCH  16  17
ENDBRANCH   5  16
BRANCH  13  26
HETATM   26  O   UNL     1      -9.649  17.392  67.710  1.00  0.00    -0.255 OA 
BRANCH  26  27
HETATM   27  C   UNL     1     -10.039  18.025  66.497  1.00  0.00    -0.379 C  
HETATM   28  C   UNL     1      -9.875  19.532  66.566  1.00  0.00    -0.404 C  
HETATM   29  O   UNL     1      -9.336  19.964  67.727  1.00  0.00    -0.328 OA 
HETATM   30  O   UNL     1     -10.188  20.291  65.659  1.00  0.00    -0.365 OA 
ENDBRANCH  26  27
ENDBRANCH  13  26
TORSDOF 9
ENDMDL
MODEL      130
REMARK 921   NORMALIZED FREE ENERGY PREDICTED BY IDOCK:   -3.78 KCAL/MOL
REMARK 922        TOTAL FREE ENERGY PREDICTED BY IDOCK:   -7.87 KCAL/MOL
REMARK 923 INTER-LIGAND FREE ENERGY PREDICTED BY IDOCK:   -6.97 KCAL/MOL
REMARK 924 INTRA-LIGAND FREE ENERGY PREDICTED BY IDOCK:   -0.89 KCAL/MOL
REMARK 927      BINDING AFFINITY PREDICTED BY RF-SCORE:    0.00 PKD
ROOT
HETATM    1  C   UNL     1     -10.335  12.183  68.182  1.00  0.00    -0.214 C  
HETATM    2  C   UNL     1     -11.319  12.068  67.019  1.00  0.00    -0.396 C  
HETATM    3  C   UNL     1     -11.319  13.475  66.415  1.00  0.00    -0.316 C  
HETATM    4  O   UNL     1     -12.640  13.862  66.064  1.00  0.00    -0.467 OA 
HETATM    5  C   UNL     1     -10.772  14.433  67.508  1.00  0.00    -0.271 C  
HETATM    6  H   UNL     1     -12.640  14.735  65.689  1.00  0.00     0.000 HD 
HETATM    7  C   UNL     1     -13.225  12.358  71.364  1.00  0.00    -0.190 A  
HETATM    8  C   UNL     1     -10.661  13.544  68.772  1.00  0.00    -0.261 C  
HETATM    9  C   UNL     1     -13.528  11.267  72.164  1.00  0.00    -0.197 A  
HETATM   10  C   UNL     1     -11.981  13.518  69.557  1.00  0.00    -0.390 C  
HETATM   11  C   UNL     1     -12.835  10.075  71.983  1.00  0.00    -0.484 A  
HETATM   12  C   UNL     1     -12.218  12.276  70.389  1.00  0.00    -0.371 A  
HETATM   13  C   UNL     1     -11.846   9.945  70.995  1.00  0.00    -0.376 A  
HETATM   14  C   UNL     1     -11.520  11.056  70.177  1.00  0.00    -0.383 A  
HETATM   15  C   UNL     1     -10.382  11.047  69.188  1.00  0.00    -0.210 C  
ENDROOT
BRANCH   5  16
HETATM   16  C   UNL     1      -9.384  15.013  67.160  1.00  0.00    -0.225 C  
BRANCH  16  17
HETATM   17  C   UNL     1      -8.327  13.988  66.743  1.00  0.00     0.075 C  
BRANCH  17  18
HETATM   18  C   UNL     1      -7.028  14.002  67.559  1.00  0.00    -0.148 C  
HETATM   19  O   UNL     1      -7.328  14.287  68.924  1.00  0.00    -0.120 OA 
HETATM   20  H   UNL     1      -6.524  14.296  69.429  1.00  0.00     0.000 HD 
BRANCH  18  21
HETATM   21  C   UNL     1      -6.316  12.642  67.520  1.00  0.00    -0.159 C  
BRANCH  21  22
HETATM   22  C   UNL     1      -7.251  11.496  67.134  1.00  0.00    -0.140 C  
BRANCH  22  23
HETATM   23  C   UNL     1      -6.638  10.571  66.086  1.00  0.00    -0.123 C  
BRANCH  23  24
HETATM   24  C   UNL     1      -6.424   9.180  66.681  1.00  0.00    -0.067 C  
HETATM   25  C   UNL     1      -5.204   8.499  66.089  1.00  0.00    -0.031 C  
ENDBRANCH  23  24
ENDBRANCH  22  23
ENDBRANCH  21  22
ENDBRANCH  18  21
ENDBRANCH  17  18
ENDBRANCH  16  17
ENDBRANCH   5  16
BRANCH  13  26
HETATM   26  O   UNL     1     -11.280   8.690  71.021  1.00  0.00    -0.253 OA 
BRANCH  26  27
HETATM   27  C   UNL     1     -11.344   7.944  72.230  1.00  0.00    -0.337 C  
HETATM   28  C   UNL     1     -11.494   6.455  71.970  1.00  0.00    -0.305 C  
HETATM   29  O   UNL     1     -11.471   6.131  70.660  1.00  0.00    -0.338 OA 
HETATM   30  O   UNL     1     -11.615   5.621  72.857  1.00  0.00    -0.277 OA 
ENDBRANCH  26  27
ENDBRANCH  13  26
TORSDOF 9
ENDMDL
MODEL      131
REMARK 921   NORMALIZED FREE ENERGY PREDICTED BY IDOCK:   -3.77 KCAL/MOL
REMARK 922        TOTAL FREE ENERGY PREDICTED BY IDOCK:   -7.85 KCAL/MOL
REMARK 923 INTER-LIGAND FREE ENERGY PREDICTED BY IDOCK:   -6.23 KCAL/MOL
REMARK 924 INTRA-LIGAND FREE ENERGY PREDICTED BY IDOCK:   -1.62 KCAL/MOL
REMARK 927      BINDING AFFINITY PREDICTED BY RF-SCORE:    0.00 PKD
ROOT
HETATM    1  C   UNL     1     -11.084   7.962  69.846  1.00  0.00    -0.123 C  
HETATM    2  C   UNL     1     -11.917   7.387  70.991  1.00  0.00    -0.337 C  
HETATM    3  C   UNL     1     -12.522   8.632  71.648  1.00  0.00    -0.335 C  
HETATM    4  O   UNL     1     -12.489   8.508  73.063  1.00  0.00    -0.604 OA 
HETATM    5  C   UNL     1     -11.648   9.839  71.213  1.00  0.00    -0.465 C  
HETATM    6  H   UNL     1     -12.864   9.280  73.470  1.00  0.00     0.000 HD 
HETATM    7  C   UNL     1      -7.215   7.531  71.675  1.00  0.00    -0.067 A  
HETATM    8  C   UNL     1     -10.451   9.195  70.469  1.00  0.00    -0.289 C  
HETATM    9  C   UNL     1      -6.341   6.505  71.351  1.00  0.00    -0.042 A  
HETATM   10  C   UNL     1      -9.322   8.821  71.440  1.00  0.00    -0.328 C  
HETATM   11  C   UNL     1      -6.690   5.602  70.353  1.00  0.00    -0.048 A  
HETATM   12  C   UNL     1      -8.435   7.679  70.995  1.00  0.00    -0.116 A  
HETATM   13  C   UNL     1      -7.916   5.696  69.675  1.00  0.00    -0.095 A  
HETATM   14  C   UNL     1      -8.814   6.747  69.990  1.00  0.00    -0.142 A  
HETATM   15  C   UNL     1     -10.086   7.004  69.222  1.00  0.00    -0.178 C  
ENDROOT
BRANCH   5  16
HETATM   16  C   UNL     1     -12.388  10.806  70.263  1.00  0.00    -0.423 C  
BRANCH  16  17
HETATM   17  C   UNL     1     -11.796  12.213  70.163  1.00  0.00    -0.368 C  
BRANCH  17  18
HETATM   18  C   UNL     1     -12.150  12.996  68.893  1.00  0.00    -0.168 C  
HETATM   19  O   UNL     1     -12.316  14.376  69.218  1.00  0.00    -0.505 OA 
HETATM   20  H   UNL     1     -12.535  14.861  68.431  1.00  0.00     0.000 HD 
BRANCH  18  21
HETATM   21  C   UNL     1     -11.038  12.903  67.838  1.00  0.00    -0.283 C  
BRANCH  21  22
HETATM   22  C   UNL     1      -9.830  12.101  68.322  1.00  0.00    -0.212 C  
BRANCH  22  23
HETATM   23  C   UNL     1      -9.307  11.138  67.259  1.00  0.00    -0.170 C  
BRANCH  23  24
HETATM   24  C   UNL     1     -10.463  10.647  66.388  1.00  0.00    -0.276 C  
HETATM   25  C   UNL     1      -9.993  10.267  64.996  1.00  0.00    -0.393 C  
ENDBRANCH  23  24
ENDBRANCH  22  23
ENDBRANCH  21  22
ENDBRANCH  18  21
ENDBRANCH  17  18
ENDBRANCH  16  17
ENDBRANCH   5  16
BRANCH  13  26
HETATM   26  O   UNL     1      -8.029   4.716  68.715  1.00  0.00    -0.078 OA 
BRANCH  26  27
HETATM   27  C   UNL     1      -7.563   4.999  67.401  1.00  0.00    -0.091 C  
HETATM   28  C   UNL     1      -6.497   4.015  66.954  1.00  0.00    -0.041 C  
HETATM   29  O   UNL     1      -6.252   3.039  67.854  1.00  0.00    -0.030 OA 
HETATM   30  O   UNL     1      -5.917   4.086  65.879  1.00  0.00    -0.022 OA 
ENDBRANCH  26  27
ENDBRANCH  13  26
TORSDOF 9
ENDMDL
MODEL      132
REMARK 921   NORMALIZED FREE ENERGY PREDICTED BY IDOCK:   -3.76 KCAL/MOL
REMARK 922        TOTAL FREE ENERGY PREDICTED BY IDOCK:   -7.83 KCAL/MOL
REMARK 923 INTER-LIGAND FREE ENERGY PREDICTED BY IDOCK:   -6.70 KCAL/MOL
REMARK 924 INTRA-LIGAND FREE ENERGY PREDICTED BY IDOCK:   -1.14 KCAL/MOL
REMARK 927      BINDING AFFINITY PREDICTED BY RF-SCORE:    0.00 PKD
ROOT
HETATM    1  C   UNL     1     -11.099   8.203  70.483  1.00  0.00    -0.257 C  
HETATM    2  C   UNL     1     -11.823   9.471  70.935  1.00  0.00    -0.385 C  
HETATM    3  C   UNL     1     -11.570  10.452  69.786  1.00  0.00    -0.269 C  
HETATM    4  O   UNL     1     -11.284  11.746  70.296  1.00  0.00    -0.463 OA 
HETATM    5  C   UNL     1     -10.339   9.919  69.004  1.00  0.00    -0.224 C  
HETATM    6  H   UNL     1     -11.127  12.354  69.583  1.00  0.00     0.000 HD 
HETATM    7  C   UNL     1      -7.646   8.578  73.021  1.00  0.00    -0.042 A  
HETATM    8  C   UNL     1      -9.819   8.742  69.867  1.00  0.00    -0.189 C  
HETATM    9  C   UNL     1      -7.491   7.849  74.190  1.00  0.00    -0.202 A  
HETATM   10  C   UNL     1      -8.835   9.227  70.942  1.00  0.00    -0.252 C  
HETATM   11  C   UNL     1      -8.454   6.910  74.542  1.00  0.00    -0.195 A  
HETATM   12  C   UNL     1      -8.752   8.365  72.183  1.00  0.00    -0.272 A  
HETATM   13  C   UNL     1      -9.592   6.694  73.747  1.00  0.00    -0.203 A  
HETATM   14  C   UNL     1      -9.757   7.426  72.543  1.00  0.00    -0.202 A  
HETATM   15  C   UNL     1     -10.873   7.163  71.564  1.00  0.00    -0.250 C  
ENDROOT
BRANCH   5  16
HETATM   16  C   UNL     1     -10.699   9.406  67.592  1.00  0.00    -0.295 C  
BRANCH  16  17
HETATM   17  C   UNL     1     -10.514  10.415  66.457  1.00  0.00    -0.262 C  
BRANCH  17  18
HETATM   18  C   UNL     1      -9.820  11.728  66.839  1.00  0.00    -0.203 C  
HETATM   19  O   UNL     1      -8.555  11.804  66.183  1.00  0.00    -0.345 OA 
HETATM   20  H   UNL     1      -8.126  12.617  66.419  1.00  0.00     0.000 HD 
BRANCH  18  21
HETATM   21  C   UNL     1     -10.638  12.953  66.403  1.00  0.00    -0.285 C  
BRANCH  21  22
HETATM   22  C   UNL     1     -11.052  13.836  67.580  1.00  0.00    -0.295 C  
BRANCH  22  23
HETATM   23  C   UNL     1      -9.917  14.738  68.058  1.00  0.00    -0.218 C  
BRANCH  23  24
HETATM   24  C   UNL     1     -10.395  15.603  69.224  1.00  0.00    -0.250 C  
HETATM   25  C   UNL     1     -11.783  15.199  69.689  1.00  0.00    -0.353 C  
ENDBRANCH  23  24
ENDBRANCH  22  23
ENDBRANCH  21  22
ENDBRANCH  18  21
ENDBRANCH  17  18
ENDBRANCH  16  17
ENDBRANCH   5  16
BRANCH  13  26
HETATM   26  O   UNL     1     -10.386   5.702  74.276  1.00  0.00    -0.260 OA 
BRANCH  26  27
HETATM   27  C   UNL     1      -9.831   4.402  74.433  1.00  0.00    -0.155 C  
HETATM   28  C   UNL     1     -10.761   3.322  73.909  1.00  0.00    -0.210 C  
HETATM   29  O   UNL     1     -11.888   3.808  73.345  1.00  0.00    -0.048 OA 
HETATM   30  O   UNL     1     -10.517   2.126  73.978  1.00  0.00    -0.112 OA 
ENDBRANCH  26  27
ENDBRANCH  13  26
TORSDOF 9
ENDMDL
MODEL      133
REMARK 921   NORMALIZED FREE ENERGY PREDICTED BY IDOCK:   -3.75 KCAL/MOL
REMARK 922        TOTAL FREE ENERGY PREDICTED BY IDOCK:   -7.81 KCAL/MOL
REMARK 923 INTER-LIGAND FREE ENERGY PREDICTED BY IDOCK:   -7.04 KCAL/MOL
REMARK 924 INTRA-LIGAND FREE ENERGY PREDICTED BY IDOCK:   -0.78 KCAL/MOL
REMARK 927      BINDING AFFINITY PREDICTED BY RF-SCORE:    0.00 PKD
ROOT
HETATM    1  C   UNL     1      -8.699   7.584  68.559  1.00  0.00    -0.128 C  
HETATM    2  C   UNL     1      -9.421   6.398  67.921  1.00  0.00    -0.115 C  
HETATM    3  C   UNL     1     -10.201   7.038  66.768  1.00  0.00    -0.211 C  
HETATM    4  O   UNL     1     -11.502   6.475  66.680  1.00  0.00    -0.727 OA 
HETATM    5  C   UNL     1     -10.315   8.553  67.089  1.00  0.00    -0.377 C  
HETATM    6  H   UNL     1     -11.986   6.872  65.965  1.00  0.00     0.000 HD 
HETATM    7  C   UNL     1     -11.254   8.031  71.992  1.00  0.00    -0.356 A  
HETATM    8  C   UNL     1      -9.749   8.682  68.526  1.00  0.00    -0.174 C  
HETATM    9  C   UNL     1     -10.906   7.568  73.252  1.00  0.00    -0.409 A  
HETATM   10  C   UNL     1     -10.842   8.451  69.581  1.00  0.00    -0.153 C  
HETATM   11  C   UNL     1      -9.658   6.986  73.445  1.00  0.00    -0.225 A  
HETATM   12  C   UNL     1     -10.355   7.934  70.917  1.00  0.00    -0.215 A  
HETATM   13  C   UNL     1      -8.746   6.841  72.387  1.00  0.00    -0.127 A  
HETATM   14  C   UNL     1      -9.086   7.318  71.095  1.00  0.00    -0.152 A  
HETATM   15  C   UNL     1      -8.120   7.327  69.938  1.00  0.00    -0.127 C  
ENDROOT
BRANCH   5  16
HETATM   16  C   UNL     1      -9.488   9.435  66.128  1.00  0.00    -0.287 C  
BRANCH  16  17
HETATM   17  C   UNL     1     -10.267  10.049  64.962  1.00  0.00    -0.096 C  
BRANCH  17  18
HETATM   18  C   UNL     1      -9.502  11.076  64.117  1.00  0.00    -0.242 C  
HETATM   19  O   UNL     1      -9.311  10.558  62.801  1.00  0.00    -0.263 OA 
HETATM   20  H   UNL     1      -8.838  11.193  62.278  1.00  0.00     0.000 HD 
BRANCH  18  21
HETATM   21  C   UNL     1     -10.278  12.394  63.984  1.00  0.00    -0.401 C  
BRANCH  21  22
HETATM   22  C   UNL     1     -11.675  12.201  63.393  1.00  0.00    -0.533 C  
BRANCH  22  23
HETATM   23  C   UNL     1     -12.780  12.516  64.398  1.00  0.00    -0.447 C  
BRANCH  23  24
HETATM   24  C   UNL     1     -12.295  13.572  65.391  1.00  0.00    -0.517 C  
HETATM   25  C   UNL     1     -11.897  12.952  66.718  1.00  0.00    -0.452 C  
ENDBRANCH  23  24
ENDBRANCH  22  23
ENDBRANCH  21  22
ENDBRANCH  18  21
ENDBRANCH  17  18
ENDBRANCH  16  17
ENDBRANCH   5  16
BRANCH  13  26
HETATM   26  O   UNL     1      -7.572   6.266  72.819  1.00  0.00    -0.101 OA 
BRANCH  26  27
HETATM   27  C   UNL     1      -7.649   5.146  73.693  1.00  0.00    -0.092 C  
HETATM   28  C   UNL     1      -7.048   3.899  73.069  1.00  0.00    -0.058 C  
HETATM   29  O   UNL     1      -6.507   4.112  71.851  1.00  0.00    -0.017 OA 
HETATM   30  O   UNL     1      -7.041   2.804  73.615  1.00  0.00    -0.037 OA 
ENDBRANCH  26  27
ENDBRANCH  13  26
TORSDOF 9
ENDMDL
MODEL      134
REMARK 921   NORMALIZED FREE ENERGY PREDICTED BY IDOCK:   -3.74 KCAL/MOL
REMARK 922        TOTAL FREE ENERGY PREDICTED BY IDOCK:   -7.80 KCAL/MOL
REMARK 923 INTER-LIGAND FREE ENERGY PREDICTED BY IDOCK:   -6.63 KCAL/MOL
REMARK 924 INTRA-LIGAND FREE ENERGY PREDICTED BY IDOCK:   -1.18 KCAL/MOL
REMARK 927      BINDING AFFINITY PREDICTED BY RF-SCORE:    0.00 PKD
ROOT
HETATM    1  C   UNL     1      -9.204  10.027  67.078  1.00  0.00    -0.167 C  
HETATM    2  C   UNL     1      -8.021   9.717  66.162  1.00  0.00    -0.108 C  
HETATM    3  C   UNL     1      -7.135   8.813  67.025  1.00  0.00    -0.078 C  
HETATM    4  O   UNL     1      -5.767   9.159  66.858  1.00  0.00    -0.043 OA 
HETATM    5  C   UNL     1      -7.552   9.050  68.501  1.00  0.00    -0.093 C  
HETATM    6  H   UNL     1      -5.217   8.598  67.393  1.00  0.00     0.000 HD 
HETATM    7  C   UNL     1      -8.061  14.032  68.157  1.00  0.00    -0.151 A  
HETATM    8  C   UNL     1      -8.545  10.238  68.430  1.00  0.00    -0.125 C  
HETATM    9  C   UNL     1      -8.637  15.157  67.586  1.00  0.00    -0.180 A  
HETATM   10  C   UNL     1      -7.811  11.586  68.497  1.00  0.00    -0.140 C  
HETATM   11  C   UNL     1      -9.670  15.003  66.667  1.00  0.00    -0.273 A  
HETATM   12  C   UNL     1      -8.522  12.745  67.832  1.00  0.00    -0.173 A  
HETATM   13  C   UNL     1     -10.133  13.732  66.291  1.00  0.00    -0.300 A  
HETATM   14  C   UNL     1      -9.560  12.573  66.875  1.00  0.00    -0.229 A  
HETATM   15  C   UNL     1     -10.085  11.181  66.634  1.00  0.00    -0.256 C  
ENDROOT
BRANCH   5  16
HETATM   16  C   UNL     1      -8.254   7.827  69.132  1.00  0.00    -0.129 C  
BRANCH  16  17
HETATM   17  C   UNL     1      -9.778   7.918  69.226  1.00  0.00    -0.159 C  
BRANCH  17  18
HETATM   18  C   UNL     1     -10.551   6.686  68.737  1.00  0.00    -0.236 C  
HETATM   19  O   UNL     1     -11.887   6.736  69.235  1.00  0.00    -0.606 OA 
HETATM   20  H   UNL     1     -12.365   5.974  68.932  1.00  0.00     0.000 HD 
BRANCH  18  21
HETATM   21  C   UNL     1     -10.634   6.637  67.204  1.00  0.00    -0.401 C  
BRANCH  21  22
HETATM   22  C   UNL     1     -10.766   5.213  66.664  1.00  0.00    -0.225 C  
BRANCH  22  23
HETATM   23  C   UNL     1      -9.653   4.858  65.681  1.00  0.00    -0.168 C  
BRANCH  23  24
HETATM   24  C   UNL     1      -8.445   5.766  65.911  1.00  0.00    -0.139 C  
HETATM   25  C   UNL     1      -7.317   5.031  66.612  1.00  0.00    -0.086 C  
ENDBRANCH  23  24
ENDBRANCH  22  23
ENDBRANCH  21  22
ENDBRANCH  18  21
ENDBRANCH  17  18
ENDBRANCH  16  17
ENDBRANCH   5  16
BRANCH  13  26
HETATM   26  O   UNL     1     -11.174  13.828  65.396  1.00  0.00    -0.296 OA 
BRANCH  26  27
HETATM   27  C   UNL     1     -11.095  13.087  64.184  1.00  0.00    -0.401 C  
HETATM   28  C   UNL     1     -12.382  12.337  63.893  1.00  0.00    -0.509 C  
HETATM   29  O   UNL     1     -13.359  12.572  64.796  1.00  0.00    -0.773 OA 
HETATM   30  O   UNL     1     -12.534  11.598  62.930  1.00  0.00    -0.182 OA 
ENDBRANCH  26  27
ENDBRANCH  13  26
TORSDOF 9
ENDMDL
MODEL      135
REMARK 921   NORMALIZED FREE ENERGY PREDICTED BY IDOCK:   -3.72 KCAL/MOL
REMARK 922        TOTAL FREE ENERGY PREDICTED BY IDOCK:   -7.77 KCAL/MOL
REMARK 923 INTER-LIGAND FREE ENERGY PREDICTED BY IDOCK:   -6.81 KCAL/MOL
REMARK 924 INTRA-LIGAND FREE ENERGY PREDICTED BY IDOCK:   -0.96 KCAL/MOL
REMARK 927      BINDING AFFINITY PREDICTED BY RF-SCORE:    0.00 PKD
ROOT
HETATM    1  C   UNL     1      -8.295   9.817  67.993  1.00  0.00    -0.110 C  
HETATM    2  C   UNL     1      -7.861  10.225  66.586  1.00  0.00    -0.116 C  
HETATM    3  C   UNL     1      -8.649  11.514  66.333  1.00  0.00    -0.159 C  
HETATM    4  O   UNL     1      -9.147  11.534  65.002  1.00  0.00    -0.397 OA 
HETATM    5  C   UNL     1      -9.838  11.517  67.331  1.00  0.00    -0.202 C  
HETATM    6  H   UNL     1      -9.636  12.334  64.845  1.00  0.00     0.000 HD 
HETATM    7  C   UNL     1     -10.984   6.652  66.871  1.00  0.00    -0.396 A  
HETATM    8  C   UNL     1      -9.784  10.117  67.992  1.00  0.00    -0.161 C  
HETATM    9  C   UNL     1     -10.640   5.312  66.949  1.00  0.00    -0.283 A  
HETATM   10  C   UNL     1     -10.569   9.080  67.174  1.00  0.00    -0.291 C  
HETATM   11  C   UNL     1      -9.400   4.954  67.465  1.00  0.00    -0.148 A  
HETATM   12  C   UNL     1     -10.103   7.648  67.323  1.00  0.00    -0.306 A  
HETATM   13  C   UNL     1      -8.478   5.923  67.895  1.00  0.00    -0.107 A  
HETATM   14  C   UNL     1      -8.821   7.298  67.830  1.00  0.00    -0.124 A  
HETATM   15  C   UNL     1      -7.953   8.393  68.392  1.00  0.00    -0.118 C  
ENDROOT
BRANCH   5  16
HETATM   16  C   UNL     1      -9.708  12.607  68.417  1.00  0.00    -0.187 C  
BRANCH  16  17
HETATM   17  C   UNL     1     -11.026  13.215  68.902  1.00  0.00    -0.270 C  
BRANCH  17  18
HETATM   18  C   UNL     1     -11.111  14.746  68.853  1.00  0.00    -0.252 C  
HETATM   19  O   UNL     1     -12.469  15.138  68.660  1.00  0.00    -0.560 OA 
HETATM   20  H   UNL     1     -12.522  16.086  68.629  1.00  0.00     0.000 HD 
BRANCH  18  21
HETATM   21  C   UNL     1     -10.630  15.386  70.163  1.00  0.00    -0.314 C  
BRANCH  21  22
HETATM   22  C   UNL     1     -11.780  15.921  71.016  1.00  0.00    -0.473 C  
BRANCH  22  23
HETATM   23  C   UNL     1     -11.959  15.135  72.312  1.00  0.00    -0.485 C  
BRANCH  23  24
HETATM   24  C   UNL     1     -13.362  14.531  72.365  1.00  0.00    -0.526 C  
HETATM   25  C   UNL     1     -13.338  13.034  72.118  1.00  0.00    -0.622 C  
ENDBRANCH  23  24
ENDBRANCH  22  23
ENDBRANCH  21  22
ENDBRANCH  18  21
ENDBRANCH  17  18
ENDBRANCH  16  17
ENDBRANCH   5  16
BRANCH  13  26
HETATM   26  O   UNL     1      -7.336   5.336  68.391  1.00  0.00    -0.069 OA 
BRANCH  26  27
HETATM   27  C   UNL     1      -6.570   4.508  67.525  1.00  0.00    -0.047 C  
HETATM   28  C   UNL     1      -6.305   3.143  68.135  1.00  0.00    -0.033 C  
HETATM   29  O   UNL     1      -6.897   2.964  69.336  1.00  0.00    -0.036 OA 
HETATM   30  O   UNL     1      -5.630   2.279  67.594  1.00  0.00    -0.017 OA 
ENDBRANCH  26  27
ENDBRANCH  13  26
TORSDOF 9
ENDMDL
MODEL      136
REMARK 921   NORMALIZED FREE ENERGY PREDICTED BY IDOCK:   -3.69 KCAL/MOL
REMARK 922        TOTAL FREE ENERGY PREDICTED BY IDOCK:   -7.73 KCAL/MOL
REMARK 923 INTER-LIGAND FREE ENERGY PREDICTED BY IDOCK:   -6.54 KCAL/MOL
REMARK 924 INTRA-LIGAND FREE ENERGY PREDICTED BY IDOCK:   -1.19 KCAL/MOL
REMARK 927      BINDING AFFINITY PREDICTED BY RF-SCORE:    0.00 PKD
ROOT
HETATM    1  C   UNL     1     -10.086   8.649  68.868  1.00  0.00    -0.213 C  
HETATM    2  C   UNL     1     -11.149   9.473  69.594  1.00  0.00    -0.196 C  
HETATM    3  C   UNL     1     -11.038  10.852  68.935  1.00  0.00    -0.252 C  
HETATM    4  O   UNL     1     -11.142  11.876  69.915  1.00  0.00    -0.475 OA 
HETATM    5  C   UNL     1      -9.640  10.918  68.264  1.00  0.00    -0.169 C  
HETATM    6  H   UNL     1     -11.073  12.731  69.507  1.00  0.00     0.000 HD 
HETATM    7  C   UNL     1      -7.115   8.679  71.980  1.00  0.00    -0.077 A  
HETATM    8  C   UNL     1      -8.929   9.625  68.737  1.00  0.00    -0.134 C  
HETATM    9  C   UNL     1      -6.899   7.599  72.822  1.00  0.00    -0.072 A  
HETATM   10  C   UNL     1      -8.214   9.837  70.080  1.00  0.00    -0.207 C  
HETATM   11  C   UNL     1      -7.624   6.428  72.630  1.00  0.00    -0.103 A  
HETATM   12  C   UNL     1      -8.041   8.595  70.927  1.00  0.00    -0.155 A  
HETATM   13  C   UNL     1      -8.583   6.319  71.610  1.00  0.00    -0.133 A  
HETATM   14  C   UNL     1      -8.807   7.413  70.735  1.00  0.00    -0.149 A  
HETATM   15  C   UNL     1      -9.714   7.337  69.534  1.00  0.00    -0.158 C  
ENDROOT
BRANCH   5  16
HETATM   16  C   UNL     1      -9.714  10.933  66.721  1.00  0.00    -0.221 C  
BRANCH  16  17
HETATM   17  C   UNL     1      -9.480  12.294  66.063  1.00  0.00    -0.194 C  
BRANCH  17  18
HETATM   18  C   UNL     1      -9.390  13.490  67.020  1.00  0.00    -0.247 C  
HETATM   19  O   UNL     1      -8.135  14.144  66.844  1.00  0.00    -0.382 OA 
HETATM   20  H   UNL     1      -8.079  14.885  67.436  1.00  0.00     0.000 HD 
BRANCH  18  21
HETATM   21  C   UNL     1     -10.491  14.524  66.743  1.00  0.00    -0.270 C  
BRANCH  21  22
HETATM   22  C   UNL     1     -11.895  13.922  66.793  1.00  0.00    -0.452 C  
BRANCH  22  23
HETATM   23  C   UNL     1     -12.746  14.328  65.593  1.00  0.00    -0.395 C  
BRANCH  23  24
HETATM   24  C   UNL     1     -12.159  13.733  64.313  1.00  0.00    -0.481 C  
HETATM   25  C   UNL     1     -12.438  12.244  64.208  1.00  0.00    -0.508 C  
ENDBRANCH  23  24
ENDBRANCH  22  23
ENDBRANCH  21  22
ENDBRANCH  18  21
ENDBRANCH  17  18
ENDBRANCH  16  17
ENDBRANCH   5  16
BRANCH  13  26
HETATM   26  O   UNL     1      -9.151   5.065  71.594  1.00  0.00    -0.137 OA 
BRANCH  26  27
HETATM   27  C   UNL     1      -9.174   4.317  72.804  1.00  0.00    -0.116 C  
HETATM   28  C   UNL     1     -10.527   4.392  73.489  1.00  0.00    -0.202 C  
HETATM   29  O   UNL     1     -11.448   5.089  72.790  1.00  0.00    -0.239 OA 
HETATM   30  O   UNL     1     -10.771   3.865  74.566  1.00  0.00    -0.198 OA 
ENDBRANCH  26  27
ENDBRANCH  13  26
TORSDOF 9
ENDMDL
MODEL      137
REMARK 921   NORMALIZED FREE ENERGY PREDICTED BY IDOCK:   -3.69 KCAL/MOL
REMARK 922        TOTAL FREE ENERGY PREDICTED BY IDOCK:   -7.72 KCAL/MOL
REMARK 923 INTER-LIGAND FREE ENERGY PREDICTED BY IDOCK:   -6.97 KCAL/MOL
REMARK 924 INTRA-LIGAND FREE ENERGY PREDICTED BY IDOCK:   -0.75 KCAL/MOL
REMARK 927      BINDING AFFINITY PREDICTED BY RF-SCORE:    0.00 PKD
ROOT
HETATM    1  C   UNL     1      -8.873   8.945  68.086  1.00  0.00    -0.134 C  
HETATM    2  C   UNL     1      -8.471   9.263  66.647  1.00  0.00    -0.130 C  
HETATM    3  C   UNL     1      -9.616  10.150  66.147  1.00  0.00    -0.203 C  
HETATM    4  O   UNL     1      -9.966   9.799  64.816  1.00  0.00    -0.411 OA 
HETATM    5  C   UNL     1     -10.826   9.892  67.086  1.00  0.00    -0.227 C  
HETATM    6  H   UNL     1     -10.677  10.349  64.506  1.00  0.00     0.000 HD 
HETATM    7  C   UNL     1     -10.237   4.919  67.424  1.00  0.00    -0.173 A  
HETATM    8  C   UNL     1     -10.370   8.710  67.978  1.00  0.00    -0.277 C  
HETATM    9  C   UNL     1      -9.475   3.806  67.744  1.00  0.00    -0.231 A  
HETATM   10  C   UNL     1     -10.685   7.358  67.322  1.00  0.00    -0.379 C  
HETATM   11  C   UNL     1      -8.240   3.978  68.359  1.00  0.00    -0.088 A  
HETATM   12  C   UNL     1      -9.785   6.212  67.731  1.00  0.00    -0.118 A  
HETATM   13  C   UNL     1      -7.739   5.257  68.650  1.00  0.00    -0.083 A  
HETATM   14  C   UNL     1      -8.513   6.404  68.338  1.00  0.00    -0.116 A  
HETATM   15  C   UNL     1      -8.115   7.802  68.736  1.00  0.00    -0.126 C  
ENDROOT
BRANCH   5  16
HETATM   16  C   UNL     1     -11.168  11.109  67.973  1.00  0.00    -0.359 C  
BRANCH  16  17
HETATM   17  C   UNL     1     -11.317  12.441  67.236  1.00  0.00    -0.384 C  
BRANCH  17  18
HETATM   18  C   UNL     1     -11.483  13.680  68.126  1.00  0.00    -0.313 C  
HETATM   19  O   UNL     1     -12.455  14.551  67.548  1.00  0.00    -0.590 OA 
HETATM   20  H   UNL     1     -12.558  15.318  68.099  1.00  0.00     0.000 HD 
BRANCH  18  21
HETATM   21  C   UNL     1     -11.978  13.309  69.532  1.00  0.00    -0.366 C  
BRANCH  21  22
HETATM   22  C   UNL     1     -12.476  14.520  70.321  1.00  0.00    -0.405 C  
BRANCH  22  23
HETATM   23  C   UNL     1     -12.885  14.157  71.746  1.00  0.00    -0.428 C  
BRANCH  23  24
HETATM   24  C   UNL     1     -13.643  15.322  72.383  1.00  0.00    -0.592 C  
HETATM   25  C   UNL     1     -12.908  15.876  73.590  1.00  0.00    -0.717 C  
ENDBRANCH  23  24
ENDBRANCH  22  23
ENDBRANCH  21  22
ENDBRANCH  18  21
ENDBRANCH  17  18
ENDBRANCH  16  17
ENDBRANCH   5  16
BRANCH  13  26
HETATM   26  O   UNL     1      -6.518   5.180  69.282  1.00  0.00    -0.033 OA 
BRANCH  26  27
HETATM   27  C   UNL     1      -6.271   4.076  70.144  1.00  0.00    -0.027 C  
HETATM   28  C   UNL     1      -5.961   4.522  71.561  1.00  0.00    -0.017 C  
HETATM   29  O   UNL     1      -6.046   5.859  71.737  1.00  0.00    -0.033 OA 
HETATM   30  O   UNL     1      -5.672   3.752  72.467  1.00  0.00    -0.007 OA 
ENDBRANCH  26  27
ENDBRANCH  13  26
TORSDOF 9
ENDMDL
MODEL      138
REMARK 921   NORMALIZED FREE ENERGY PREDICTED BY IDOCK:   -3.68 KCAL/MOL
REMARK 922        TOTAL FREE ENERGY PREDICTED BY IDOCK:   -7.70 KCAL/MOL
REMARK 923 INTER-LIGAND FREE ENERGY PREDICTED BY IDOCK:   -6.14 KCAL/MOL
REMARK 924 INTRA-LIGAND FREE ENERGY PREDICTED BY IDOCK:   -1.56 KCAL/MOL
REMARK 927      BINDING AFFINITY PREDICTED BY RF-SCORE:    0.00 PKD
ROOT
HETATM    1  C   UNL     1      -7.594   9.647  69.202  1.00  0.00    -0.082 C  
HETATM    2  C   UNL     1      -7.014  10.144  70.526  1.00  0.00    -0.059 C  
HETATM    3  C   UNL     1      -6.851   8.860  71.345  1.00  0.00    -0.083 C  
HETATM    4  O   UNL     1      -7.245   9.081  72.692  1.00  0.00    -0.331 OA 
HETATM    5  C   UNL     1      -7.781   7.796  70.702  1.00  0.00    -0.091 C  
HETATM    6  H   UNL     1      -7.144   8.284  73.200  1.00  0.00     0.000 HD 
HETATM    7  C   UNL     1     -11.667  10.862  69.868  1.00  0.00    -0.418 A  
HETATM    8  C   UNL     1      -8.589   8.587  69.642  1.00  0.00    -0.131 C  
HETATM    9  C   UNL     1     -12.214  12.001  69.297  1.00  0.00    -0.135 A  
HETATM   10  C   UNL     1      -9.851   9.215  70.253  1.00  0.00    -0.245 C  
HETATM   11  C   UNL     1     -11.445  12.761  68.422  1.00  0.00    -0.349 A  
HETATM   12  C   UNL     1     -10.357  10.461  69.559  1.00  0.00    -0.264 A  
HETATM   13  C   UNL     1     -10.120  12.411  68.116  1.00  0.00    -0.224 A  
HETATM   14  C   UNL     1      -9.552  11.244  68.686  1.00  0.00    -0.195 A  
HETATM   15  C   UNL     1      -8.190  10.720  68.310  1.00  0.00    -0.124 C  
ENDROOT
BRANCH   5  16
HETATM   16  C   UNL     1      -7.002   6.654  70.012  1.00  0.00    -0.062 C  
BRANCH  16  17
HETATM   17  C   UNL     1      -7.829   5.754  69.093  1.00  0.00    -0.090 C  
BRANCH  17  18
HETATM   18  C   UNL     1      -9.077   5.123  69.725  1.00  0.00    -0.116 C  
HETATM   19  O   UNL     1      -9.150   5.495  71.101  1.00  0.00    -0.139 OA 
HETATM   20  H   UNL     1      -9.922   5.105  71.492  1.00  0.00     0.000 HD 
BRANCH  18  21
HETATM   21  C   UNL     1     -10.366   5.610  69.048  1.00  0.00    -0.314 C  
BRANCH  21  22
HETATM   22  C   UNL     1     -10.204   5.809  67.541  1.00  0.00    -0.239 C  
BRANCH  22  23
HETATM   23  C   UNL     1     -11.070   6.947  67.008  1.00  0.00    -0.315 C  
BRANCH  23  24
HETATM   24  C   UNL     1     -10.214   8.195  66.790  1.00  0.00    -0.372 C  
HETATM   25  C   UNL     1      -8.938   7.874  66.033  1.00  0.00    -0.195 C  
ENDBRANCH  23  24
ENDBRANCH  22  23
ENDBRANCH  21  22
ENDBRANCH  18  21
ENDBRANCH  17  18
ENDBRANCH  16  17
ENDBRANCH   5  16
BRANCH  13  26
HETATM   26  O   UNL     1      -9.571  13.291  67.211  1.00  0.00    -0.221 OA 
BRANCH  26  27
HETATM   27  C   UNL     1     -10.333  13.646  66.064  1.00  0.00    -0.304 C  
HETATM   28  C   UNL     1     -10.103  15.089  65.655  1.00  0.00    -0.362 C  
HETATM   29  O   UNL     1      -9.183  15.725  66.411  1.00  0.00    -0.256 OA 
HETATM   30  O   UNL     1     -10.685  15.631  64.725  1.00  0.00    -0.427 OA 
ENDBRANCH  26  27
ENDBRANCH  13  26
TORSDOF 9
ENDMDL
MODEL      139
REMARK 921   NORMALIZED FREE ENERGY PREDICTED BY IDOCK:   -3.66 KCAL/MOL
REMARK 922        TOTAL FREE ENERGY PREDICTED BY IDOCK:   -7.67 KCAL/MOL
REMARK 923 INTER-LIGAND FREE ENERGY PREDICTED BY IDOCK:   -6.85 KCAL/MOL
REMARK 924 INTRA-LIGAND FREE ENERGY PREDICTED BY IDOCK:   -0.82 KCAL/MOL
REMARK 927      BINDING AFFINITY PREDICTED BY RF-SCORE:    0.00 PKD
ROOT
HETATM    1  C   UNL     1      -8.765   9.669  67.992  1.00  0.00    -0.119 C  
HETATM    2  C   UNL     1      -9.628   9.582  66.733  1.00  0.00    -0.229 C  
HETATM    3  C   UNL     1      -9.870  11.049  66.368  1.00  0.00    -0.212 C  
HETATM    4  O   UNL     1     -11.216  11.239  65.955  1.00  0.00    -0.177 OA 
HETATM    5  C   UNL     1      -9.600  11.881  67.650  1.00  0.00    -0.185 C  
HETATM    6  H   UNL     1     -11.366  12.150  65.729  1.00  0.00     0.000 HD 
HETATM    7  C   UNL     1     -11.835   8.731  70.857  1.00  0.00    -0.267 A  
HETATM    8  C   UNL     1      -9.396  10.818  68.759  1.00  0.00    -0.186 C  
HETATM    9  C   UNL     1     -11.965   7.478  71.435  1.00  0.00    -0.336 A  
HETATM   10  C   UNL     1     -10.733  10.407  69.395  1.00  0.00    -0.277 C  
HETATM   11  C   UNL     1     -11.036   6.488  71.133  1.00  0.00    -0.332 A  
HETATM   12  C   UNL     1     -10.769   9.015  69.986  1.00  0.00    -0.247 A  
HETATM   13  C   UNL     1      -9.978   6.723  70.241  1.00  0.00    -0.178 A  
HETATM   14  C   UNL     1      -9.828   8.004  69.649  1.00  0.00    -0.184 A  
HETATM   15  C   UNL     1      -8.649   8.383  68.790  1.00  0.00    -0.135 C  
ENDROOT
BRANCH   5  16
HETATM   16  C   UNL     1      -8.337  12.763  67.541  1.00  0.00    -0.179 C  
BRANCH  16  17
HETATM   17  C   UNL     1      -8.310  13.993  68.450  1.00  0.00    -0.162 C  
BRANCH  17  18
HETATM   18  C   UNL     1      -9.661  14.684  68.676  1.00  0.00    -0.219 C  
HETATM   19  O   UNL     1      -9.703  15.221  69.997  1.00  0.00    -0.459 OA 
HETATM   20  H   UNL     1     -10.539  15.649  70.137  1.00  0.00     0.000 HD 
BRANCH  18  21
HETATM   21  C   UNL     1      -9.875  15.849  67.699  1.00  0.00    -0.233 C  
BRANCH  21  22
HETATM   22  C   UNL     1     -10.887  16.873  68.213  1.00  0.00    -0.357 C  
BRANCH  22  23
HETATM   23  C   UNL     1     -10.276  18.261  68.381  1.00  0.00    -0.402 C  
BRANCH  23  24
HETATM   24  C   UNL     1     -10.804  19.198  67.294  1.00  0.00    -0.529 C  
HETATM   25  C   UNL     1      -9.699  20.059  66.711  1.00  0.00    -0.563 C  
ENDBRANCH  23  24
ENDBRANCH  22  23
ENDBRANCH  21  22
ENDBRANCH  18  21
ENDBRANCH  17  18
ENDBRANCH  16  17
ENDBRANCH   5  16
BRANCH  13  26
HETATM   26  O   UNL     1      -9.175   5.611  70.119  1.00  0.00    -0.138 OA 
BRANCH  26  27
HETATM   27  C   UNL     1      -9.767   4.328  70.282  1.00  0.00    -0.210 C  
HETATM   28  C   UNL     1      -9.253   3.333  69.257  1.00  0.00    -0.149 C  
HETATM   29  O   UNL     1      -8.299   3.838  68.446  1.00  0.00    -0.084 OA 
HETATM   30  O   UNL     1      -9.651   2.180  69.174  1.00  0.00    -0.103 OA 
ENDBRANCH  26  27
ENDBRANCH  13  26
TORSDOF 9
ENDMDL
MODEL      140
REMARK 921   NORMALIZED FREE ENERGY PREDICTED BY IDOCK:   -3.65 KCAL/MOL
REMARK 922        TOTAL FREE ENERGY PREDICTED BY IDOCK:   -7.65 KCAL/MOL
REMARK 923 INTER-LIGAND FREE ENERGY PREDICTED BY IDOCK:   -6.48 KCAL/MOL
REMARK 924 INTRA-LIGAND FREE ENERGY PREDICTED BY IDOCK:   -1.17 KCAL/MOL
REMARK 927      BINDING AFFINITY PREDICTED BY RF-SCORE:    0.00 PKD
ROOT
HETATM    1  C   UNL     1     -10.512   6.709  69.734  1.00  0.00    -0.248 C  
HETATM    2  C   UNL     1     -11.859   6.612  70.450  1.00  0.00    -0.407 C  
HETATM    3  C   UNL     1     -11.818   7.781  71.438  1.00  0.00    -0.297 C  
HETATM    4  O   UNL     1     -12.360   7.387  72.691  1.00  0.00    -0.521 OA 
HETATM    5  C   UNL     1     -10.325   8.166  71.618  1.00  0.00    -0.284 C  
HETATM    6  H   UNL     1     -12.334   8.112  73.305  1.00  0.00     0.000 HD 
HETATM    7  C   UNL     1      -8.542   3.477  71.778  1.00  0.00    -0.113 A  
HETATM    8  C   UNL     1      -9.552   7.059  70.858  1.00  0.00    -0.167 C  
HETATM    9  C   UNL     1      -8.375   2.222  71.213  1.00  0.00    -0.078 A  
HETATM   10  C   UNL     1      -9.273   5.848  71.761  1.00  0.00    -0.157 C  
HETATM   11  C   UNL     1      -8.804   1.998  69.909  1.00  0.00    -0.130 A  
HETATM   12  C   UNL     1      -9.120   4.525  71.043  1.00  0.00    -0.185 A  
HETATM   13  C   UNL     1      -9.418   3.011  69.156  1.00  0.00    -0.096 A  
HETATM   14  C   UNL     1      -9.586   4.302  69.718  1.00  0.00    -0.279 A  
HETATM   15  C   UNL     1     -10.109   5.481  68.938  1.00  0.00    -0.266 C  
ENDROOT
BRANCH   5  16
HETATM   16  C   UNL     1      -9.982   9.545  71.013  1.00  0.00    -0.269 C  
BRANCH  16  17
HETATM   17  C   UNL     1     -11.167  10.329  70.446  1.00  0.00    -0.407 C  
BRANCH  17  18
HETATM   18  C   UNL     1     -10.984  10.877  69.025  1.00  0.00    -0.235 C  
HETATM   19  O   UNL     1     -11.464   9.920  68.082  1.00  0.00    -0.532 OA 
HETATM   20  H   UNL     1     -11.351  10.260  67.202  1.00  0.00     0.000 HD 
BRANCH  18  21
HETATM   21  C   UNL     1     -11.778  12.174  68.808  1.00  0.00    -0.374 C  
BRANCH  21  22
HETATM   22  C   UNL     1     -11.860  13.034  70.069  1.00  0.00    -0.355 C  
BRANCH  22  23
HETATM   23  C   UNL     1     -10.836  14.166  70.069  1.00  0.00     0.179 C  
BRANCH  23  24
HETATM   24  C   UNL     1     -10.686  14.733  68.658  1.00  0.00    -0.253 C  
HETATM   25  C   UNL     1     -11.405  16.060  68.507  1.00  0.00    -0.382 C  
ENDBRANCH  23  24
ENDBRANCH  22  23
ENDBRANCH  21  22
ENDBRANCH  18  21
ENDBRANCH  17  18
ENDBRANCH  16  17
ENDBRANCH   5  16
BRANCH  13  26
HETATM   26  O   UNL     1      -9.731   2.568  67.890  1.00  0.00    -0.106 OA 
BRANCH  26  27
HETATM   27  C   UNL     1      -8.669   2.343  66.971  1.00  0.00    -0.124 C  
HETATM   28  C   UNL     1      -8.851   3.138  65.690  1.00  0.00    -0.137 C  
HETATM   29  O   UNL     1      -9.936   3.941  65.703  1.00  0.00    -0.173 OA 
HETATM   30  O   UNL     1      -8.088   3.071  64.736  1.00  0.00    -0.085 OA 
ENDBRANCH  26  27
ENDBRANCH  13  26
TORSDOF 9
ENDMDL
MODEL      141
REMARK 921   NORMALIZED FREE ENERGY PREDICTED BY IDOCK:   -3.63 KCAL/MOL
REMARK 922        TOTAL FREE ENERGY PREDICTED BY IDOCK:   -7.64 KCAL/MOL
REMARK 923 INTER-LIGAND FREE ENERGY PREDICTED BY IDOCK:   -6.04 KCAL/MOL
REMARK 924 INTRA-LIGAND FREE ENERGY PREDICTED BY IDOCK:   -1.60 KCAL/MOL
REMARK 927      BINDING AFFINITY PREDICTED BY RF-SCORE:    0.00 PKD
ROOT
HETATM    1  C   UNL     1      -7.537  11.029  67.657  1.00  0.00    -0.104 C  
HETATM    2  C   UNL     1      -6.602  11.608  68.718  1.00  0.00    -0.072 C  
HETATM    3  C   UNL     1      -5.914  10.369  69.298  1.00  0.00    -0.037 C  
HETATM    4  O   UNL     1      -5.806  10.480  70.710  1.00  0.00    -0.105 OA 
HETATM    5  C   UNL     1      -6.807   9.151  68.942  1.00  0.00    -0.056 C  
HETATM    6  H   UNL     1      -5.379   9.711  71.070  1.00  0.00     0.000 HD 
HETATM    7  C   UNL     1     -11.208  11.379  69.871  1.00  0.00    -0.221 A  
HETATM    8  C   UNL     1      -8.084   9.780  68.328  1.00  0.00    -0.104 C  
HETATM    9  C   UNL     1     -12.126  12.393  69.647  1.00  0.00    -0.271 A  
HETATM   10  C   UNL     1      -9.115  10.128  69.413  1.00  0.00    -0.217 C  
HETATM   11  C   UNL     1     -11.895  13.310  68.628  1.00  0.00    -0.380 A  
HETATM   12  C   UNL     1     -10.061  11.258  69.070  1.00  0.00    -0.147 A  
HETATM   13  C   UNL     1     -10.742  13.242  67.829  1.00  0.00    -0.244 A  
HETATM   14  C   UNL     1      -9.800  12.204  68.041  1.00  0.00    -0.202 A  
HETATM   15  C   UNL     1      -8.608  11.975  67.147  1.00  0.00    -0.182 C  
ENDROOT
BRANCH   5  16
HETATM   16  C   UNL     1      -6.152   8.204  67.912  1.00  0.00    -0.047 C  
BRANCH  16  17
HETATM   17  C   UNL     1      -7.068   7.717  66.788  1.00  0.00    -0.083 C  
BRANCH  17  18
HETATM   18  C   UNL     1      -7.151   6.196  66.609  1.00  0.00    -0.072 C  
HETATM   19  O   UNL     1      -6.755   5.553  67.820  1.00  0.00    -0.052 OA 
HETATM   20  H   UNL     1      -6.806   4.612  67.709  1.00  0.00     0.000 HD 
BRANCH  18  21
HETATM   21  C   UNL     1      -8.582   5.737  66.293  1.00  0.00    -0.130 C  
BRANCH  21  22
HETATM   22  C   UNL     1      -9.628   6.808  66.603  1.00  0.00    -0.211 C  
BRANCH  22  23
HETATM   23  C   UNL     1     -10.999   6.211  66.909  1.00  0.00    -0.384 C  
BRANCH  23  24
HETATM   24  C   UNL     1     -11.200   6.114  68.421  1.00  0.00    -0.215 C  
HETATM   25  C   UNL     1     -10.063   6.774  69.180  1.00  0.00    -0.180 C  
ENDBRANCH  23  24
ENDBRANCH  22  23
ENDBRANCH  21  22
ENDBRANCH  18  21
ENDBRANCH  17  18
ENDBRANCH  16  17
ENDBRANCH   5  16
BRANCH  13  26
HETATM   26  O   UNL     1     -10.742  14.232  66.872  1.00  0.00    -0.285 OA 
BRANCH  26  27
HETATM   27  C   UNL     1     -11.927  14.439  66.113  1.00  0.00    -0.369 C  
HETATM   28  C   UNL     1     -11.728  14.098  64.647  1.00  0.00    -0.417 C  
HETATM   29  O   UNL     1     -10.500  13.609  64.369  1.00  0.00    -0.432 OA 
HETATM   30  O   UNL     1     -12.593  14.239  63.794  1.00  0.00    -0.821 OA 
ENDBRANCH  26  27
ENDBRANCH  13  26
TORSDOF 9
ENDMDL
MODEL      142
REMARK 921   NORMALIZED FREE ENERGY PREDICTED BY IDOCK:   -3.59 KCAL/MOL
REMARK 922        TOTAL FREE ENERGY PREDICTED BY IDOCK:   -7.57 KCAL/MOL
REMARK 923 INTER-LIGAND FREE ENERGY PREDICTED BY IDOCK:   -6.70 KCAL/MOL
REMARK 924 INTRA-LIGAND FREE ENERGY PREDICTED BY IDOCK:   -0.87 KCAL/MOL
REMARK 927      BINDING AFFINITY PREDICTED BY RF-SCORE:    0.00 PKD
ROOT
HETATM    1  C   UNL     1      -9.322  13.148  66.920  1.00  0.00    -0.246 C  
HETATM    2  C   UNL     1     -10.500  13.425  65.986  1.00  0.00    -0.294 C  
HETATM    3  C   UNL     1     -11.218  14.597  66.662  1.00  0.00    -0.349 C  
HETATM    4  O   UNL     1     -12.625  14.414  66.601  1.00  0.00    -0.534 OA 
HETATM    5  C   UNL     1     -10.761  14.609  68.145  1.00  0.00    -0.242 C  
HETATM    6  H   UNL     1     -13.071  15.141  67.020  1.00  0.00     0.000 HD 
HETATM    7  C   UNL     1     -10.916   9.639  68.832  1.00  0.00    -0.153 A  
HETATM    8  C   UNL     1      -9.935  13.307  68.300  1.00  0.00    -0.236 C  
HETATM    9  C   UNL     1     -10.520   8.354  68.495  1.00  0.00    -0.201 A  
HETATM   10  C   UNL     1     -10.832  12.114  68.662  1.00  0.00    -0.268 C  
HETATM   11  C   UNL     1      -9.523   8.176  67.542  1.00  0.00    -0.184 A  
HETATM   12  C   UNL     1     -10.311  10.758  68.237  1.00  0.00    -0.195 A  
HETATM   13  C   UNL     1      -8.919   9.270  66.899  1.00  0.00    -0.130 A  
HETATM   14  C   UNL     1      -9.308  10.589  67.243  1.00  0.00    -0.164 A  
HETATM   15  C   UNL     1      -8.621  11.819  66.706  1.00  0.00    -0.185 C  
ENDROOT
BRANCH   5  16
HETATM   16  C   UNL     1      -9.877  15.827  68.492  1.00  0.00    -0.209 C  
BRANCH  16  17
HETATM   17  C   UNL     1      -9.512  16.734  67.315  1.00  0.00    -0.231 C  
BRANCH  17  18
HETATM   18  C   UNL     1      -8.013  16.974  67.099  1.00  0.00    -0.188 C  
HETATM   19  O   UNL     1      -7.350  15.720  66.942  1.00  0.00    -0.210 OA 
HETATM   20  H   UNL     1      -6.422  15.869  66.808  1.00  0.00     0.000 HD 
BRANCH  18  21
HETATM   21  C   UNL     1      -7.745  17.798  65.831  1.00  0.00    -0.133 C  
BRANCH  21  22
HETATM   22  C   UNL     1      -7.780  19.304  66.086  1.00  0.00    -0.304 C  
BRANCH  22  23
HETATM   23  C   UNL     1      -8.318  19.647  67.472  1.00  0.00    -0.337 C  
BRANCH  23  24
HETATM   24  C   UNL     1      -9.500  20.608  67.350  1.00  0.00    -0.516 C  
HETATM   25  C   UNL     1     -10.748  19.901  66.854  1.00  0.00    -0.471 C  
ENDBRANCH  23  24
ENDBRANCH  22  23
ENDBRANCH  21  22
ENDBRANCH  18  21
ENDBRANCH  17  18
ENDBRANCH  16  17
ENDBRANCH   5  16
BRANCH  13  26
HETATM   26  O   UNL     1      -7.945   8.853  66.020  1.00  0.00    -0.103 OA 
BRANCH  26  27
HETATM   27  C   UNL     1      -8.342   8.111  64.873  1.00  0.00    -0.123 C  
HETATM   28  C   UNL     1      -8.047   8.858  63.585  1.00  0.00    -0.167 C  
HETATM   29  O   UNL     1      -7.415  10.036  63.777  1.00  0.00    -0.137 OA 
HETATM   30  O   UNL     1      -8.342   8.437  62.475  1.00  0.00    -0.188 OA 
ENDBRANCH  26  27
ENDBRANCH  13  26
TORSDOF 9
ENDMDL
MODEL      143
REMARK 921   NORMALIZED FREE ENERGY PREDICTED BY IDOCK:   -3.58 KCAL/MOL
REMARK 922        TOTAL FREE ENERGY PREDICTED BY IDOCK:   -7.56 KCAL/MOL
REMARK 923 INTER-LIGAND FREE ENERGY PREDICTED BY IDOCK:   -6.87 KCAL/MOL
REMARK 924 INTRA-LIGAND FREE ENERGY PREDICTED BY IDOCK:   -0.69 KCAL/MOL
REMARK 927      BINDING AFFINITY PREDICTED BY RF-SCORE:    0.00 PKD
ROOT
HETATM    1  C   UNL     1     -11.601   8.163  70.302  1.00  0.00     0.011 C  
HETATM    2  C   UNL     1     -12.665   9.030  70.976  1.00  0.00    -0.140 C  
HETATM    3  C   UNL     1     -12.429  10.416  70.369  1.00  0.00    -0.268 C  
HETATM    4  O   UNL     1     -12.543  11.418  71.369  1.00  0.00    -0.372 OA 
HETATM    5  C   UNL     1     -10.985  10.416  69.799  1.00  0.00    -0.345 C  
HETATM    6  H   UNL     1     -12.397  12.278  70.992  1.00  0.00     0.000 HD 
HETATM    7  C   UNL     1      -8.862   7.937  73.612  1.00  0.00    -0.336 A  
HETATM    8  C   UNL     1     -10.384   9.072  70.281  1.00  0.00    -0.243 C  
HETATM    9  C   UNL     1      -8.769   6.825  74.435  1.00  0.00    -0.195 A  
HETATM   10  C   UNL     1      -9.755   9.207  71.676  1.00  0.00    -0.263 C  
HETATM   11  C   UNL     1      -9.544   5.704  74.158  1.00  0.00    -0.155 A  
HETATM   12  C   UNL     1      -9.714   7.936  72.496  1.00  0.00    -0.290 A  
HETATM   13  C   UNL     1     -10.433   5.678  73.071  1.00  0.00    -0.216 A  
HETATM   14  C   UNL     1     -10.530   6.806  72.216  1.00  0.00    -0.233 A  
HETATM   15  C   UNL     1     -11.353   6.815  70.953  1.00  0.00    -0.363 C  
ENDROOT
BRANCH   5  16
HETATM   16  C   UNL     1     -10.948  10.475  68.256  1.00  0.00    -0.314 C  
BRANCH  16  17
HETATM   17  C   UNL     1     -10.290  11.721  67.660  1.00  0.00    -0.219 C  
BRANCH  17  18
HETATM   18  C   UNL     1     -10.368  12.991  68.517  1.00  0.00    -0.239 C  
HETATM   19  O   UNL     1      -9.052  13.376  68.913  1.00  0.00    -0.387 OA 
HETATM   20  H   UNL     1      -9.100  14.162  69.444  1.00  0.00     0.000 HD 
BRANCH  18  21
HETATM   21  C   UNL     1     -10.976  14.167  67.739  1.00  0.00    -0.274 C  
BRANCH  21  22
HETATM   22  C   UNL     1     -10.496  15.525  68.250  1.00  0.00    -0.242 C  
BRANCH  22  23
HETATM   23  C   UNL     1     -10.025  16.438  67.122  1.00  0.00    -0.260 C  
BRANCH  23  24
HETATM   24  C   UNL     1     -10.486  17.872  67.385  1.00  0.00    -0.390 C  
HETATM   25  C   UNL     1      -9.946  18.835  66.344  1.00  0.00    -0.426 C  
ENDBRANCH  23  24
ENDBRANCH  22  23
ENDBRANCH  21  22
ENDBRANCH  18  21
ENDBRANCH  17  18
ENDBRANCH  16  17
ENDBRANCH   5  16
BRANCH  13  26
HETATM   26  O   UNL     1     -11.068   4.460  72.978  1.00  0.00    -0.216 OA 
BRANCH  26  27
HETATM   27  C   UNL     1     -10.298   3.280  73.167  1.00  0.00    -0.159 C  
HETATM   28  C   UNL     1      -9.732   2.756  71.859  1.00  0.00    -0.151 C  
HETATM   29  O   UNL     1     -10.013   3.542  70.797  1.00  0.00    -0.115 OA 
HETATM   30  O   UNL     1      -9.075   1.729  71.768  1.00  0.00    -0.073 OA 
ENDBRANCH  26  27
ENDBRANCH  13  26
TORSDOF 9
ENDMDL
MODEL      144
REMARK 921   NORMALIZED FREE ENERGY PREDICTED BY IDOCK:   -3.57 KCAL/MOL
REMARK 922        TOTAL FREE ENERGY PREDICTED BY IDOCK:   -7.54 KCAL/MOL
REMARK 923 INTER-LIGAND FREE ENERGY PREDICTED BY IDOCK:   -6.02 KCAL/MOL
REMARK 924 INTRA-LIGAND FREE ENERGY PREDICTED BY IDOCK:   -1.52 KCAL/MOL
REMARK 927      BINDING AFFINITY PREDICTED BY RF-SCORE:    0.00 PKD
ROOT
HETATM    1  C   UNL     1      -9.194   8.900  67.080  1.00  0.00    -0.171 C  
HETATM    2  C   UNL     1     -10.717   9.028  67.085  1.00  0.00    -0.206 C  
HETATM    3  C   UNL     1     -10.946  10.519  67.349  1.00  0.00    -0.288 C  
HETATM    4  O   UNL     1     -12.021  10.699  68.261  1.00  0.00    -0.793 OA 
HETATM    5  C   UNL     1      -9.638  11.070  67.976  1.00  0.00    -0.175 C  
HETATM    6  H   UNL     1     -12.163  11.624  68.425  1.00  0.00     0.000 HD 
HETATM    7  C   UNL     1      -8.751   7.152  70.986  1.00  0.00    -0.141 A  
HETATM    8  C   UNL     1      -8.771   9.809  68.222  1.00  0.00    -0.119 C  
HETATM    9  C   UNL     1      -8.530   5.797  71.182  1.00  0.00    -0.128 A  
HETATM   10  C   UNL     1      -9.075   9.178  69.589  1.00  0.00    -0.163 C  
HETATM   11  C   UNL     1      -8.384   4.963  70.078  1.00  0.00    -0.073 A  
HETATM   12  C   UNL     1      -8.810   7.691  69.690  1.00  0.00    -0.140 A  
HETATM   13  C   UNL     1      -8.472   5.460  68.767  1.00  0.00    -0.096 A  
HETATM   14  C   UNL     1      -8.688   6.845  68.553  1.00  0.00    -0.125 A  
HETATM   15  C   UNL     1      -8.660   7.483  67.188  1.00  0.00    -0.121 C  
ENDROOT
BRANCH   5  16
HETATM   16  C   UNL     1      -8.884  12.041  67.040  1.00  0.00    -0.197 C  
BRANCH  16  17
HETATM   17  C   UNL     1      -7.897  12.986  67.727  1.00  0.00    -0.157 C  
BRANCH  17  18
HETATM   18  C   UNL     1      -8.046  14.473  67.380  1.00  0.00    -0.200 C  
HETATM   19  O   UNL     1      -8.673  14.600  66.104  1.00  0.00    -0.441 OA 
HETATM   20  H   UNL     1      -8.765  15.520  65.889  1.00  0.00     0.000 HD 
BRANCH  18  21
HETATM   21  C   UNL     1      -8.927  15.210  68.400  1.00  0.00    -0.183 C  
BRANCH  21  22
HETATM   22  C   UNL     1     -10.063  15.993  67.742  1.00  0.00    -0.243 C  
BRANCH  22  23
HETATM   23  C   UNL     1     -11.393  15.808  68.468  1.00  0.00    -0.374 C  
BRANCH  23  24
HETATM   24  C   UNL     1     -11.942  14.407  68.201  1.00  0.00    -0.320 C  
HETATM   25  C   UNL     1     -11.965  14.087  66.718  1.00  0.00    -0.473 C  
ENDBRANCH  23  24
ENDBRANCH  22  23
ENDBRANCH  21  22
ENDBRANCH  18  21
ENDBRANCH  17  18
ENDBRANCH  16  17
ENDBRANCH   5  16
BRANCH  13  26
HETATM   26  O   UNL     1      -8.269   4.460  67.843  1.00  0.00    -0.094 OA 
BRANCH  26  27
HETATM   27  C   UNL     1      -9.397   3.942  67.148  1.00  0.00    -0.191 C  
HETATM   28  C   UNL     1      -9.231   4.046  65.643  1.00  0.00    -0.150 C  
HETATM   29  O   UNL     1      -8.034   4.543  65.265  1.00  0.00    -0.096 OA 
HETATM   30  O   UNL     1     -10.090   3.706  64.841  1.00  0.00    -0.164 OA 
ENDBRANCH  26  27
ENDBRANCH  13  26
TORSDOF 9
ENDMDL
MODEL      145
REMARK 921   NORMALIZED FREE ENERGY PREDICTED BY IDOCK:   -3.56 KCAL/MOL
REMARK 922        TOTAL FREE ENERGY PREDICTED BY IDOCK:   -7.52 KCAL/MOL
REMARK 923 INTER-LIGAND FREE ENERGY PREDICTED BY IDOCK:   -7.11 KCAL/MOL
REMARK 924 INTRA-LIGAND FREE ENERGY PREDICTED BY IDOCK:   -0.41 KCAL/MOL
REMARK 927      BINDING AFFINITY PREDICTED BY RF-SCORE:    0.00 PKD
ROOT
HETATM    1  C   UNL     1     -10.404  10.536  67.412  1.00  0.00    -0.269 C  
HETATM    2  C   UNL     1      -9.479  11.007  68.533  1.00  0.00    -0.188 C  
HETATM    3  C   UNL     1      -9.092  12.424  68.100  1.00  0.00    -0.200 C  
HETATM    4  O   UNL     1      -7.712  12.656  68.348  1.00  0.00    -0.126 OA 
HETATM    5  C   UNL     1      -9.366  12.519  66.575  1.00  0.00    -0.233 C  
HETATM    6  H   UNL     1      -7.472  13.536  68.080  1.00  0.00     0.000 HD 
HETATM    7  C   UNL     1      -7.601   7.971  65.394  1.00  0.00    -0.083 A  
HETATM    8  C   UNL     1      -9.725  11.069  66.162  1.00  0.00    -0.257 C  
HETATM    9  C   UNL     1      -7.613   6.591  65.530  1.00  0.00    -0.088 A  
HETATM   10  C   UNL     1      -8.468  10.258  65.812  1.00  0.00    -0.161 C  
HETATM   11  C   UNL     1      -8.602   5.990  66.301  1.00  0.00    -0.137 A  
HETATM   12  C   UNL     1      -8.585   8.762  66.009  1.00  0.00    -0.166 A  
HETATM   13  C   UNL     1      -9.582   6.751  66.960  1.00  0.00    -0.152 A  
HETATM   14  C   UNL     1      -9.587   8.163  66.820  1.00  0.00    -0.281 A  
HETATM   15  C   UNL     1     -10.676   9.043  67.377  1.00  0.00    -0.231 C  
ENDROOT
BRANCH   5  16
HETATM   16  C   UNL     1     -10.542  13.460  66.233  1.00  0.00    -0.292 C  
BRANCH  16  17
HETATM   17  C   UNL     1     -10.233  14.554  65.209  1.00  0.00    -0.431 C  
BRANCH  17  18
HETATM   18  C   UNL     1     -10.226  15.990  65.750  1.00  0.00    -0.377 C  
HETATM   19  O   UNL     1     -10.965  16.832  64.866  1.00  0.00    -0.659 OA 
HETATM   20  H   UNL     1     -10.961  17.721  65.200  1.00  0.00     0.000 HD 
BRANCH  18  21
HETATM   21  C   UNL     1     -10.890  16.081  67.132  1.00  0.00    -0.239 C  
BRANCH  21  22
HETATM   22  C   UNL     1     -10.145  17.016  68.084  1.00  0.00    -0.308 C  
BRANCH  22  23
HETATM   23  C   UNL     1     -10.544  18.477  67.896  1.00  0.00    -0.385 C  
BRANCH  23  24
HETATM   24  C   UNL     1      -9.294  19.343  67.740  1.00  0.00    -0.389 C  
HETATM   25  C   UNL     1      -8.728  19.262  66.334  1.00  0.00    -0.362 C  
ENDBRANCH  23  24
ENDBRANCH  22  23
ENDBRANCH  21  22
ENDBRANCH  18  21
ENDBRANCH  17  18
ENDBRANCH  16  17
ENDBRANCH   5  16
BRANCH  13  26
HETATM   26  O   UNL     1     -10.467   5.942  67.636  1.00  0.00    -0.189 OA 
BRANCH  26  27
HETATM   27  C   UNL     1     -11.021   6.418  68.857  1.00  0.00    -0.346 C  
HETATM   28  C   UNL     1     -10.266   5.890  70.064  1.00  0.00    -0.224 C  
HETATM   29  O   UNL     1      -9.192   5.138  69.743  1.00  0.00    -0.111 OA 
HETATM   30  O   UNL     1     -10.587   6.128  71.221  1.00  0.00    -0.226 OA 
ENDBRANCH  26  27
ENDBRANCH  13  26
TORSDOF 9
ENDMDL
MODEL      146
REMARK 921   NORMALIZED FREE ENERGY PREDICTED BY IDOCK:   -3.56 KCAL/MOL
REMARK 922        TOTAL FREE ENERGY PREDICTED BY IDOCK:   -7.52 KCAL/MOL
REMARK 923 INTER-LIGAND FREE ENERGY PREDICTED BY IDOCK:   -6.33 KCAL/MOL
REMARK 924 INTRA-LIGAND FREE ENERGY PREDICTED BY IDOCK:   -1.19 KCAL/MOL
REMARK 927      BINDING AFFINITY PREDICTED BY RF-SCORE:    0.00 PKD
ROOT
HETATM    1  C   UNL     1      -9.612   7.912  68.600  1.00  0.00    -0.155 C  
HETATM    2  C   UNL     1      -8.304   8.547  69.070  1.00  0.00    -0.118 C  
HETATM    3  C   UNL     1      -7.345   8.284  67.905  1.00  0.00    -0.096 C  
HETATM    4  O   UNL     1      -6.066   7.907  68.395  1.00  0.00    -0.041 OA 
HETATM    5  C   UNL     1      -7.949   7.115  67.081  1.00  0.00    -0.110 C  
HETATM    6  H   UNL     1      -5.471   7.744  67.672  1.00  0.00     0.000 HD 
HETATM    7  C   UNL     1      -9.417   4.349  71.004  1.00  0.00    -0.232 A  
HETATM    8  C   UNL     1      -9.148   6.628  67.933  1.00  0.00    -0.114 C  
HETATM    9  C   UNL     1     -10.147   4.190  72.172  1.00  0.00    -0.248 A  
HETATM   10  C   UNL     1      -8.713   5.579  68.967  1.00  0.00    -0.102 C  
HETATM   11  C   UNL     1     -11.030   5.190  72.566  1.00  0.00    -0.276 A  
HETATM   12  C   UNL     1      -9.573   5.497  70.210  1.00  0.00    -0.227 A  
HETATM   13  C   UNL     1     -11.186   6.367  71.816  1.00  0.00    -0.277 A  
HETATM   14  C   UNL     1     -10.453   6.538  70.614  1.00  0.00    -0.257 A  
HETATM   15  C   UNL     1     -10.658   7.703  69.680  1.00  0.00    -0.243 C  
ENDROOT
BRANCH   5  16
HETATM   16  C   UNL     1      -8.448   7.556  65.688  1.00  0.00    -0.141 C  
BRANCH  16  17
HETATM   17  C   UNL     1      -7.701   8.735  65.063  1.00  0.00    -0.105 C  
BRANCH  17  18
HETATM   18  C   UNL     1      -8.472  10.060  65.010  1.00  0.00    -0.160 C  
HETATM   19  O   UNL     1      -8.400  10.598  63.690  1.00  0.00    -0.289 OA 
HETATM   20  H   UNL     1      -8.877  11.418  63.657  1.00  0.00     0.000 HD 
BRANCH  18  21
HETATM   21  C   UNL     1      -9.958   9.869  65.347  1.00  0.00    -0.349 C  
BRANCH  21  22
HETATM   22  C   UNL     1     -10.344  10.493  66.688  1.00  0.00    -0.295 C  
BRANCH  22  23
HETATM   23  C   UNL     1      -9.790  11.905  66.854  1.00  0.00    -0.217 C  
BRANCH  23  24
HETATM   24  C   UNL     1     -10.428  12.575  68.071  1.00  0.00    -0.227 C  
HETATM   25  C   UNL     1     -10.856  11.557  69.112  1.00  0.00    -0.241 C  
ENDBRANCH  23  24
ENDBRANCH  22  23
ENDBRANCH  21  22
ENDBRANCH  18  21
ENDBRANCH  17  18
ENDBRANCH  16  17
ENDBRANCH   5  16
BRANCH  13  26
HETATM   26  O   UNL     1     -12.130   7.195  72.382  1.00  0.00    -0.212 OA 
BRANCH  26  27
HETATM   27  C   UNL     1     -12.056   8.589  72.111  1.00  0.00    -0.383 C  
HETATM   28  C   UNL     1     -13.413   9.261  72.227  1.00  0.00    -0.482 C  
HETATM   29  O   UNL     1     -14.396   8.426  72.625  1.00  0.00    -0.400 OA 
HETATM   30  O   UNL     1     -13.604  10.447  71.996  1.00  0.00    -0.328 OA 
ENDBRANCH  26  27
ENDBRANCH  13  26
TORSDOF 9
ENDMDL
MODEL      147
REMARK 921   NORMALIZED FREE ENERGY PREDICTED BY IDOCK:   -3.54 KCAL/MOL
REMARK 922        TOTAL FREE ENERGY PREDICTED BY IDOCK:   -7.49 KCAL/MOL
REMARK 923 INTER-LIGAND FREE ENERGY PREDICTED BY IDOCK:   -5.86 KCAL/MOL
REMARK 924 INTRA-LIGAND FREE ENERGY PREDICTED BY IDOCK:   -1.64 KCAL/MOL
REMARK 927      BINDING AFFINITY PREDICTED BY RF-SCORE:    0.00 PKD
ROOT
HETATM    1  C   UNL     1      -8.873   9.881  68.032  1.00  0.00    -0.125 C  
HETATM    2  C   UNL     1      -7.437   9.933  67.511  1.00  0.00    -0.091 C  
HETATM    3  C   UNL     1      -7.524  10.906  66.331  1.00  0.00    -0.145 C  
HETATM    4  O   UNL     1      -6.742  10.432  65.244  1.00  0.00    -0.136 OA 
HETATM    5  C   UNL     1      -9.017  10.966  65.908  1.00  0.00    -0.206 C  
HETATM    6  H   UNL     1      -6.796  11.036  64.511  1.00  0.00     0.000 HD 
HETATM    7  C   UNL     1      -9.944   6.056  66.380  1.00  0.00    -0.145 A  
HETATM    8  C   UNL     1      -9.698   9.863  66.756  1.00  0.00    -0.244 C  
HETATM    9  C   UNL     1      -9.981   4.895  67.137  1.00  0.00    -0.229 A  
HETATM   10  C   UNL     1      -9.631   8.497  66.058  1.00  0.00    -0.236 C  
HETATM   11  C   UNL     1      -9.721   4.961  68.501  1.00  0.00    -0.218 A  
HETATM   12  C   UNL     1      -9.666   7.295  66.978  1.00  0.00    -0.235 A  
HETATM   13  C   UNL     1      -9.406   6.177  69.129  1.00  0.00    -0.126 A  
HETATM   14  C   UNL     1      -9.374   7.374  68.368  1.00  0.00    -0.144 A  
HETATM   15  C   UNL     1      -9.180   8.737  68.981  1.00  0.00    -0.141 C  
ENDROOT
BRANCH   5  16
HETATM   16  C   UNL     1      -9.673  12.331  66.210  1.00  0.00    -0.254 C  
BRANCH  16  17
HETATM   17  C   UNL     1      -8.940  13.203  67.231  1.00  0.00    -0.216 C  
BRANCH  17  18
HETATM   18  C   UNL     1      -9.701  13.488  68.532  1.00  0.00    -0.168 C  
HETATM   19  O   UNL     1      -9.051  14.544  69.239  1.00  0.00    -0.386 OA 
HETATM   20  H   UNL     1      -9.522  14.721  70.044  1.00  0.00     0.000 HD 
BRANCH  18  21
HETATM   21  C   UNL     1     -11.144  13.938  68.261  1.00  0.00    -0.280 C  
BRANCH  21  22
HETATM   22  C   UNL     1     -12.181  12.959  68.811  1.00  0.00    -0.018 C  
BRANCH  22  23
HETATM   23  C   UNL     1     -11.544  11.690  69.372  1.00  0.00    -0.392 C  
BRANCH  23  24
HETATM   24  C   UNL     1     -12.121  11.385  70.755  1.00  0.00    -0.433 C  
HETATM   25  C   UNL     1     -12.210   9.892  71.008  1.00  0.00    -0.446 C  
ENDBRANCH  23  24
ENDBRANCH  22  23
ENDBRANCH  21  22
ENDBRANCH  18  21
ENDBRANCH  17  18
ENDBRANCH  16  17
ENDBRANCH   5  16
BRANCH  13  26
HETATM   26  O   UNL     1      -9.217   6.004  70.482  1.00  0.00    -0.153 OA 
BRANCH  26  27
HETATM   27  C   UNL     1     -10.277   5.441  71.246  1.00  0.00    -0.223 C  
HETATM   28  C   UNL     1      -9.843   5.120  72.665  1.00  0.00    -0.161 C  
HETATM   29  O   UNL     1      -8.573   5.488  72.937  1.00  0.00    -0.119 OA 
HETATM   30  O   UNL     1     -10.571   4.588  73.492  1.00  0.00    -0.186 OA 
ENDBRANCH  26  27
ENDBRANCH  13  26
TORSDOF 9
ENDMDL
MODEL      148
REMARK 921   NORMALIZED FREE ENERGY PREDICTED BY IDOCK:   -3.50 KCAL/MOL
REMARK 922        TOTAL FREE ENERGY PREDICTED BY IDOCK:   -7.44 KCAL/MOL
REMARK 923 INTER-LIGAND FREE ENERGY PREDICTED BY IDOCK:   -6.69 KCAL/MOL
REMARK 924 INTRA-LIGAND FREE ENERGY PREDICTED BY IDOCK:   -0.75 KCAL/MOL
REMARK 927      BINDING AFFINITY PREDICTED BY RF-SCORE:    0.00 PKD
ROOT
HETATM    1  C   UNL     1      -9.256   7.891  72.074  1.00  0.00    -0.207 C  
HETATM    2  C   UNL     1      -9.155   7.504  73.549  1.00  0.00    -0.286 C  
HETATM    3  C   UNL     1      -8.410   6.167  73.514  1.00  0.00    -0.118 C  
HETATM    4  O   UNL     1      -8.984   5.258  74.444  1.00  0.00    -0.117 OA 
HETATM    5  C   UNL     1      -8.566   5.603  72.076  1.00  0.00    -0.130 C  
HETATM    6  H   UNL     1      -8.522   4.428  74.422  1.00  0.00     0.000 HD 
HETATM    7  C   UNL     1     -13.391   6.857  71.491  1.00  0.00    -0.303 A  
HETATM    8  C   UNL     1      -9.569   6.568  71.395  1.00  0.00    -0.174 C  
HETATM    9  C   UNL     1     -14.405   7.802  71.464  1.00  0.00    -0.574 A  
HETATM   10  C   UNL     1     -11.022   6.135  71.645  1.00  0.00    -0.320 C  
HETATM   11  C   UNL     1     -14.083   9.151  71.569  1.00  0.00    -0.253 A  
HETATM   12  C   UNL     1     -12.047   7.247  71.605  1.00  0.00    -0.359 A  
HETATM   13  C   UNL     1     -12.753   9.578  71.718  1.00  0.00    -0.404 A  
HETATM   14  C   UNL     1     -11.706   8.621  71.738  1.00  0.00    -0.400 A  
HETATM   15  C   UNL     1     -10.246   8.996  71.758  1.00  0.00    -0.389 C  
ENDROOT
BRANCH   5  16
HETATM   16  C   UNL     1      -7.239   5.594  71.286  1.00  0.00    -0.074 C  
BRANCH  16  17
HETATM   17  C   UNL     1      -6.706   6.969  70.879  1.00  0.00    -0.053 C  
BRANCH  17  18
HETATM   18  C   UNL     1      -6.218   7.092  69.430  1.00  0.00    -0.034 C  
HETATM   19  O   UNL     1      -6.641   5.948  68.689  1.00  0.00    -0.053 OA 
HETATM   20  H   UNL     1      -6.339   6.024  67.792  1.00  0.00     0.000 HD 
BRANCH  18  21
HETATM   21  C   UNL     1      -6.802   8.331  68.735  1.00  0.00    -0.062 C  
BRANCH  21  22
HETATM   22  C   UNL     1      -6.463   8.388  67.245  1.00  0.00    -0.058 C  
BRANCH  22  23
HETATM   23  C   UNL     1      -7.708   8.480  66.368  1.00  0.00    -0.098 C  
BRANCH  23  24
HETATM   24  C   UNL     1      -8.927   8.814  67.227  1.00  0.00    -0.144 C  
HETATM   25  C   UNL     1     -10.015   9.494  66.417  1.00  0.00    -0.339 C  
ENDBRANCH  23  24
ENDBRANCH  22  23
ENDBRANCH  21  22
ENDBRANCH  18  21
ENDBRANCH  17  18
ENDBRANCH  16  17
ENDBRANCH   5  16
BRANCH  13  26
HETATM   26  O   UNL     1     -12.676  10.951  71.773  1.00  0.00    -0.398 OA 
BRANCH  26  27
HETATM   27  C   UNL     1     -12.279  11.654  70.601  1.00  0.00    -0.366 C  
HETATM   28  C   UNL     1     -12.505  13.149  70.734  1.00  0.00    -0.308 C  
HETATM   29  O   UNL     1     -12.970  13.519  71.946  1.00  0.00    -0.350 OA 
HETATM   30  O   UNL     1     -12.280  13.950  69.837  1.00  0.00    -0.320 OA 
ENDBRANCH  26  27
ENDBRANCH  13  26
TORSDOF 9
ENDMDL
MODEL      149
REMARK 921   NORMALIZED FREE ENERGY PREDICTED BY IDOCK:   -3.50 KCAL/MOL
REMARK 922        TOTAL FREE ENERGY PREDICTED BY IDOCK:   -7.44 KCAL/MOL
REMARK 923 INTER-LIGAND FREE ENERGY PREDICTED BY IDOCK:   -6.66 KCAL/MOL
REMARK 924 INTRA-LIGAND FREE ENERGY PREDICTED BY IDOCK:   -0.78 KCAL/MOL
REMARK 927      BINDING AFFINITY PREDICTED BY RF-SCORE:    0.00 PKD
ROOT
HETATM    1  C   UNL     1      -8.325  10.104  66.680  1.00  0.00    -0.123 C  
HETATM    2  C   UNL     1      -8.166   9.591  65.250  1.00  0.00    -0.131 C  
HETATM    3  C   UNL     1      -9.088  10.507  64.440  1.00  0.00    -0.225 C  
HETATM    4  O   UNL     1      -9.800   9.756  63.467  1.00  0.00    -0.467 OA 
HETATM    5  C   UNL     1     -10.091  11.135  65.445  1.00  0.00    -0.317 C  
HETATM    6  H   UNL     1     -10.373  10.325  62.965  1.00  0.00     0.000 HD 
HETATM    7  C   UNL     1     -10.892   6.972  68.131  1.00  0.00    -0.214 A  
HETATM    8  C   UNL     1      -9.814  10.392  66.776  1.00  0.00    -0.242 C  
HETATM    9  C   UNL     1     -10.431   5.924  68.914  1.00  0.00    -0.325 A  
HETATM   10  C   UNL     1     -10.635   9.098  66.877  1.00  0.00    -0.237 C  
HETATM   11  C   UNL     1      -9.096   5.901  69.304  1.00  0.00    -0.128 A  
HETATM   12  C   UNL     1     -10.034   8.015  67.747  1.00  0.00    -0.224 A  
HETATM   13  C   UNL     1      -8.199   6.908  68.910  1.00  0.00    -0.121 A  
HETATM   14  C   UNL     1      -8.661   7.990  68.118  1.00  0.00    -0.126 A  
HETATM   15  C   UNL     1      -7.805   9.179  67.765  1.00  0.00    -0.100 C  
ENDROOT
BRANCH   5  16
HETATM   16  C   UNL     1      -9.874  12.652  65.644  1.00  0.00    -0.213 C  
BRANCH  16  17
HETATM   17  C   UNL     1     -10.595  13.558  64.645  1.00  0.00    -0.441 C  
BRANCH  17  18
HETATM   18  C   UNL     1     -10.467  15.065  64.899  1.00  0.00    -0.337 C  
HETATM   19  O   UNL     1     -11.376  15.767  64.052  1.00  0.00    -0.796 OA 
HETATM   20  H   UNL     1     -11.296  16.700  64.209  1.00  0.00     0.000 HD 
BRANCH  18  21
HETATM   21  C   UNL     1     -10.814  15.430  66.349  1.00  0.00    -0.303 C  
BRANCH  21  22
HETATM   22  C   UNL     1      -9.604  15.930  67.139  1.00  0.00    -0.224 C  
BRANCH  22  23
HETATM   23  C   UNL     1      -9.292  17.397  66.858  1.00  0.00    -0.271 C  
BRANCH  23  24
HETATM   24  C   UNL     1     -10.580  18.148  66.518  1.00  0.00    -0.290 C  
HETATM   25  C   UNL     1     -10.423  19.645  66.707  1.00  0.00    -0.605 C  
ENDBRANCH  23  24
ENDBRANCH  22  23
ENDBRANCH  21  22
ENDBRANCH  18  21
ENDBRANCH  17  18
ENDBRANCH  16  17
ENDBRANCH   5  16
BRANCH  13  26
HETATM   26  O   UNL     1      -6.946   6.690  69.437  1.00  0.00    -0.062 OA 
BRANCH  26  27
HETATM   27  C   UNL     1      -6.694   7.101  70.775  1.00  0.00    -0.052 C  
HETATM   28  C   UNL     1      -6.092   5.983  71.607  1.00  0.00    -0.036 C  
HETATM   29  O   UNL     1      -5.856   4.854  70.904  1.00  0.00    -0.015 OA 
HETATM   30  O   UNL     1      -5.832   6.089  72.798  1.00  0.00    -0.035 OA 
ENDBRANCH  26  27
ENDBRANCH  13  26
TORSDOF 9
ENDMDL
MODEL      150
REMARK 921   NORMALIZED FREE ENERGY PREDICTED BY IDOCK:   -3.49 KCAL/MOL
REMARK 922        TOTAL FREE ENERGY PREDICTED BY IDOCK:   -7.42 KCAL/MOL
REMARK 923 INTER-LIGAND FREE ENERGY PREDICTED BY IDOCK:   -6.52 KCAL/MOL
REMARK 924 INTRA-LIGAND FREE ENERGY PREDICTED BY IDOCK:   -0.90 KCAL/MOL
REMARK 927      BINDING AFFINITY PREDICTED BY RF-SCORE:    0.00 PKD
ROOT
HETATM    1  C   UNL     1      -9.225  12.522  66.958  1.00  0.00    -0.214 C  
HETATM    2  C   UNL     1     -10.253  13.013  65.940  1.00  0.00    -0.298 C  
HETATM    3  C   UNL     1     -11.189  13.890  66.777  1.00  0.00    -0.318 C  
HETATM    4  O   UNL     1     -12.540  13.668  66.400  1.00  0.00    -0.364 OA 
HETATM    5  C   UNL     1     -10.989  13.473  68.259  1.00  0.00    -0.280 C  
HETATM    6  H   UNL     1     -13.121  14.212  66.920  1.00  0.00     0.000 HD 
HETATM    7  C   UNL     1     -10.750   8.528  67.433  1.00  0.00    -0.215 A  
HETATM    8  C   UNL     1     -10.072  12.226  68.183  1.00  0.00    -0.211 C  
HETATM    9  C   UNL     1     -10.174   7.426  66.819  1.00  0.00    -0.313 A  
HETATM   10  C   UNL     1     -10.891  10.938  68.007  1.00  0.00    -0.293 C  
HETATM   11  C   UNL     1      -9.019   7.593  66.062  1.00  0.00    -0.178 A  
HETATM   12  C   UNL     1     -10.171   9.802  67.314  1.00  0.00    -0.289 A  
HETATM   13  C   UNL     1      -8.431   8.857  65.891  1.00  0.00    -0.136 A  
HETATM   14  C   UNL     1      -9.005   9.990  66.522  1.00  0.00    -0.162 A  
HETATM   15  C   UNL     1      -8.366  11.355  66.505  1.00  0.00    -0.164 C  
ENDROOT
BRANCH   5  16
HETATM   16  C   UNL     1     -10.304  14.568  69.105  1.00  0.00    -0.197 C  
BRANCH  16  17
HETATM   17  C   UNL     1      -9.803  15.786  68.326  1.00  0.00    -0.213 C  
BRANCH  17  18
HETATM   18  C   UNL     1     -10.335  17.145  68.799  1.00  0.00    -0.353 C  
HETATM   19  O   UNL     1     -10.937  16.996  70.084  1.00  0.00    -0.361 OA 
HETATM   20  H   UNL     1     -11.267  17.837  70.377  1.00  0.00     0.000 HD 
BRANCH  18  21
HETATM   21  C   UNL     1      -9.209  18.180  68.937  1.00  0.00    -0.172 C  
BRANCH  21  22
HETATM   22  C   UNL     1      -9.474  19.452  68.130  1.00  0.00    -0.418 C  
BRANCH  22  23
HETATM   23  C   UNL     1     -10.805  19.402  67.386  1.00  0.00    -0.555 C  
BRANCH  23  24
HETATM   24  C   UNL     1     -10.558  19.214  65.889  1.00  0.00    -0.495 C  
HETATM   25  C   UNL     1     -10.776  17.775  65.460  1.00  0.00    -0.009 C  
ENDBRANCH  23  24
ENDBRANCH  22  23
ENDBRANCH  21  22
ENDBRANCH  18  21
ENDBRANCH  17  18
ENDBRANCH  16  17
ENDBRANCH   5  16
BRANCH  13  26
HETATM   26  O   UNL     1      -7.287   8.773  65.130  1.00  0.00    -0.086 OA 
BRANCH  26  27
HETATM   27  C   UNL     1      -6.826   7.485  64.741  1.00  0.00    -0.047 C  
HETATM   28  C   UNL     1      -6.751   7.342  63.232  1.00  0.00    -0.053 C  
HETATM   29  O   UNL     1      -7.069   8.473  62.566  1.00  0.00    -0.097 OA 
HETATM   30  O   UNL     1      -6.424   6.309  62.664  1.00  0.00    -0.032 OA 
ENDBRANCH  26  27
ENDBRANCH  13  26
TORSDOF 9
ENDMDL
MODEL      151
REMARK 921   NORMALIZED FREE ENERGY PREDICTED BY IDOCK:   -3.49 KCAL/MOL
REMARK 922        TOTAL FREE ENERGY PREDICTED BY IDOCK:   -7.42 KCAL/MOL
REMARK 923 INTER-LIGAND FREE ENERGY PREDICTED BY IDOCK:   -6.76 KCAL/MOL
REMARK 924 INTRA-LIGAND FREE ENERGY PREDICTED BY IDOCK:   -0.65 KCAL/MOL
REMARK 927      BINDING AFFINITY PREDICTED BY RF-SCORE:    0.00 PKD
ROOT
HETATM    1  C   UNL     1     -10.710   7.789  68.310  1.00  0.00    -0.093 C  
HETATM    2  C   UNL     1     -10.862   6.279  68.497  1.00  0.00    -0.394 C  
HETATM    3  C   UNL     1     -11.286   6.145  69.962  1.00  0.00    -0.373 C  
HETATM    4  O   UNL     1     -10.616   5.051  70.572  1.00  0.00    -0.209 OA 
HETATM    5  C   UNL     1     -10.874   7.463  70.672  1.00  0.00    -0.258 C  
HETATM    6  H   UNL     1     -10.880   4.968  71.481  1.00  0.00     0.000 HD 
HETATM    7  C   UNL     1      -6.412   7.951  68.426  1.00  0.00    -0.053 A  
HETATM    8  C   UNL     1     -10.049   8.228  69.606  1.00  0.00    -0.199 C  
HETATM    9  C   UNL     1      -5.634   8.068  67.284  1.00  0.00    -0.037 A  
HETATM   10  C   UNL     1      -8.567   7.827  69.650  1.00  0.00    -0.135 C  
HETATM   11  C   UNL     1      -6.254   8.199  66.046  1.00  0.00    -0.045 A  
HETATM   12  C   UNL     1      -7.814   7.982  68.346  1.00  0.00    -0.122 A  
HETATM   13  C   UNL     1      -7.653   8.199  65.924  1.00  0.00    -0.082 A  
HETATM   14  C   UNL     1      -8.461   8.090  67.085  1.00  0.00    -0.124 A  
HETATM   15  C   UNL     1      -9.962   8.217  67.061  1.00  0.00    -0.325 C  
ENDROOT
BRANCH   5  16
HETATM   16  C   UNL     1     -12.086   8.320  71.100  1.00  0.00    -0.274 C  
BRANCH  16  17
HETATM   17  C   UNL     1     -11.802   9.810  71.299  1.00  0.00    -0.481 C  
BRANCH  17  18
HETATM   18  C   UNL     1     -12.384  10.747  70.233  1.00  0.00    -0.341 C  
HETATM   19  O   UNL     1     -12.730  11.994  70.836  1.00  0.00    -0.294 OA 
HETATM   20  H   UNL     1     -13.090  12.574  70.176  1.00  0.00     0.000 HD 
BRANCH  18  21
HETATM   21  C   UNL     1     -11.369  11.042  69.119  1.00  0.00    -0.348 C  
BRANCH  21  22
HETATM   22  C   UNL     1     -11.829  12.158  68.180  1.00  0.00    -0.362 C  
BRANCH  22  23
HETATM   23  C   UNL     1     -11.338  11.955  66.750  1.00  0.00    -0.393 C  
BRANCH  23  24
HETATM   24  C   UNL     1     -11.877  13.068  65.851  1.00  0.00    -0.468 C  
HETATM   25  C   UNL     1     -12.603  12.510  64.641  1.00  0.00    -0.507 C  
ENDBRANCH  23  24
ENDBRANCH  22  23
ENDBRANCH  21  22
ENDBRANCH  18  21
ENDBRANCH  17  18
ENDBRANCH  16  17
ENDBRANCH   5  16
BRANCH  13  26
HETATM   26  O   UNL     1      -8.037   8.368  64.612  1.00  0.00    -0.142 OA 
BRANCH  26  27
HETATM   27  C   UNL     1      -9.115   9.253  64.331  1.00  0.00    -0.056 C  
HETATM   28  C   UNL     1      -8.684  10.408  63.446  1.00  0.00    -0.200 C  
HETATM   29  O   UNL     1      -7.395  10.333  63.051  1.00  0.00    -0.139 OA 
HETATM   30  O   UNL     1      -9.429  11.318  63.109  1.00  0.00    -0.307 OA 
ENDBRANCH  26  27
ENDBRANCH  13  26
TORSDOF 9
ENDMDL
MODEL      152
REMARK 921   NORMALIZED FREE ENERGY PREDICTED BY IDOCK:   -3.49 KCAL/MOL
REMARK 922        TOTAL FREE ENERGY PREDICTED BY IDOCK:   -7.41 KCAL/MOL
REMARK 923 INTER-LIGAND FREE ENERGY PREDICTED BY IDOCK:   -6.58 KCAL/MOL
REMARK 924 INTRA-LIGAND FREE ENERGY PREDICTED BY IDOCK:   -0.83 KCAL/MOL
REMARK 927      BINDING AFFINITY PREDICTED BY RF-SCORE:    0.00 PKD
ROOT
HETATM    1  C   UNL     1     -10.885   8.939  67.210  1.00  0.00    -0.084 C  
HETATM    2  C   UNL     1     -10.288   9.434  68.527  1.00  0.00    -0.236 C  
HETATM    3  C   UNL     1     -10.245  10.955  68.347  1.00  0.00    -0.178 C  
HETATM    4  O   UNL     1      -9.029  11.478  68.863  1.00  0.00    -0.356 OA 
HETATM    5  C   UNL     1     -10.320  11.228  66.821  1.00  0.00    -0.278 C  
HETATM    6  H   UNL     1      -9.002  12.421  68.751  1.00  0.00     0.000 HD 
HETATM    7  C   UNL     1      -7.238   7.520  65.424  1.00  0.00    -0.069 A  
HETATM    8  C   UNL     1     -10.209   9.823  66.176  1.00  0.00    -0.278 C  
HETATM    9  C   UNL     1      -6.893   6.178  65.386  1.00  0.00    -0.048 A  
HETATM   10  C   UNL     1      -8.744   9.420  65.958  1.00  0.00    -0.171 C  
HETATM   11  C   UNL     1      -7.778   5.232  65.890  1.00  0.00    -0.091 A  
HETATM   12  C   UNL     1      -8.475   7.930  65.946  1.00  0.00    -0.147 A  
HETATM   13  C   UNL     1      -9.010   5.606  66.452  1.00  0.00    -0.134 A  
HETATM   14  C   UNL     1      -9.379   6.975  66.487  1.00  0.00    -0.201 A  
HETATM   15  C   UNL     1     -10.733   7.453  66.945  1.00  0.00    -0.324 C  
ENDROOT
BRANCH   5  16
HETATM   16  C   UNL     1     -11.647  11.891  66.392  1.00  0.00    -0.315 C  
BRANCH  16  17
HETATM   17  C   UNL     1     -11.548  13.361  65.982  1.00  0.00    -0.375 C  
BRANCH  17  18
HETATM   18  C   UNL     1     -10.167  13.827  65.504  1.00  0.00    -0.316 C  
HETATM   19  O   UNL     1     -10.039  13.572  64.106  1.00  0.00    -0.760 OA 
HETATM   20  H   UNL     1      -9.184  13.860  63.809  1.00  0.00     0.000 HD 
BRANCH  18  21
HETATM   21  C   UNL     1      -9.970  15.336  65.715  1.00  0.00    -0.391 C  
BRANCH  21  22
HETATM   22  C   UNL     1      -8.579  15.681  66.249  1.00  0.00    -0.265 C  
BRANCH  22  23
HETATM   23  C   UNL     1      -8.538  17.050  66.923  1.00  0.00    -0.250 C  
BRANCH  23  24
HETATM   24  C   UNL     1      -7.479  17.927  66.257  1.00  0.00    -0.321 C  
HETATM   25  C   UNL     1      -7.957  19.358  66.094  1.00  0.00    -0.320 C  
ENDBRANCH  23  24
ENDBRANCH  22  23
ENDBRANCH  21  22
ENDBRANCH  18  21
ENDBRANCH  17  18
ENDBRANCH  16  17
ENDBRANCH   5  16
BRANCH  13  26
HETATM   26  O   UNL     1      -9.727   4.502  66.856  1.00  0.00    -0.175 OA 
BRANCH  26  27
HETATM   27  C   UNL     1      -9.440   3.938  68.129  1.00  0.00    -0.161 C  
HETATM   28  C   UNL     1      -9.251   2.433  68.052  1.00  0.00    -0.206 C  
HETATM   29  O   UNL     1      -9.327   1.944  66.796  1.00  0.00    -0.041 OA 
HETATM   30  O   UNL     1      -9.040   1.726  69.028  1.00  0.00    -0.091 OA 
ENDBRANCH  26  27
ENDBRANCH  13  26
TORSDOF 9
ENDMDL
MODEL      153
REMARK 921   NORMALIZED FREE ENERGY PREDICTED BY IDOCK:   -3.47 KCAL/MOL
REMARK 922        TOTAL FREE ENERGY PREDICTED BY IDOCK:   -7.38 KCAL/MOL
REMARK 923 INTER-LIGAND FREE ENERGY PREDICTED BY IDOCK:   -6.54 KCAL/MOL
REMARK 924 INTRA-LIGAND FREE ENERGY PREDICTED BY IDOCK:   -0.85 KCAL/MOL
REMARK 927      BINDING AFFINITY PREDICTED BY RF-SCORE:    0.00 PKD
ROOT
HETATM    1  C   UNL     1     -10.450   9.914  68.161  1.00  0.00    -0.256 C  
HETATM    2  C   UNL     1     -11.342  10.867  68.956  1.00  0.00    -0.348 C  
HETATM    3  C   UNL     1     -10.945  12.248  68.425  1.00  0.00    -0.236 C  
HETATM    4  O   UNL     1     -10.862  13.182  69.492  1.00  0.00    -0.454 OA 
HETATM    5  C   UNL     1      -9.549  12.091  67.765  1.00  0.00    -0.193 C  
HETATM    6  H   UNL     1     -10.616  14.038  69.162  1.00  0.00     0.000 HD 
HETATM    7  C   UNL     1      -7.595   9.075  71.269  1.00  0.00    -0.104 A  
HETATM    8  C   UNL     1      -9.119  10.646  68.121  1.00  0.00    -0.148 C  
HETATM    9  C   UNL     1      -7.616   7.904  72.011  1.00  0.00    -0.095 A  
HETATM   10  C   UNL     1      -8.403  10.592  69.478  1.00  0.00    -0.075 C  
HETATM   11  C   UNL     1      -8.556   6.923  71.713  1.00  0.00    -0.119 A  
HETATM   12  C   UNL     1      -8.498   9.271  70.211  1.00  0.00    -0.224 A  
HETATM   13  C   UNL     1      -9.497   7.098  70.685  1.00  0.00    -0.161 A  
HETATM   14  C   UNL     1      -9.480   8.287  69.911  1.00  0.00    -0.167 A  
HETATM   15  C   UNL     1     -10.360   8.500  68.707  1.00  0.00    -0.233 C  
ENDROOT
BRANCH   5  16
HETATM   16  C   UNL     1      -9.587  12.256  66.229  1.00  0.00    -0.248 C  
BRANCH  16  17
HETATM   17  C   UNL     1      -8.899  11.147  65.430  1.00  0.00    -0.110 C  
BRANCH  17  18
HETATM   18  C   UNL     1      -9.456  10.896  64.023  1.00  0.00    -0.262 C  
HETATM   19  O   UNL     1     -10.263   9.719  64.036  1.00  0.00    -0.293 OA 
HETATM   20  H   UNL     1     -10.608   9.564  63.165  1.00  0.00     0.000 HD 
BRANCH  18  21
HETATM   21  C   UNL     1     -10.343  12.056  63.547  1.00  0.00    -0.492 C  
BRANCH  21  22
HETATM   22  C   UNL     1     -11.828  11.814  63.817  1.00  0.00    -0.484 C  
BRANCH  22  23
HETATM   23  C   UNL     1     -12.435  12.876  64.730  1.00  0.00    -0.517 C  
BRANCH  23  24
HETATM   24  C   UNL     1     -12.375  14.243  64.049  1.00  0.00    -0.283 C  
HETATM   25  C   UNL     1     -11.551  15.233  64.851  1.00  0.00    -0.289 C  
ENDBRANCH  23  24
ENDBRANCH  22  23
ENDBRANCH  21  22
ENDBRANCH  18  21
ENDBRANCH  17  18
ENDBRANCH  16  17
ENDBRANCH   5  16
BRANCH  13  26
HETATM   26  O   UNL     1     -10.302   5.989  70.555  1.00  0.00    -0.198 OA 
BRANCH  26  27
HETATM   27  C   UNL     1     -10.541   5.188  71.706  1.00  0.00    -0.168 C  
HETATM   28  C   UNL     1     -10.136   3.742  71.482  1.00  0.00    -0.056 C  
HETATM   29  O   UNL     1      -9.576   3.518  70.275  1.00  0.00    -0.178 OA 
HETATM   30  O   UNL     1     -10.290   2.859  72.315  1.00  0.00    -0.143 OA 
ENDBRANCH  26  27
ENDBRANCH  13  26
TORSDOF 9
ENDMDL
MODEL      154
REMARK 921   NORMALIZED FREE ENERGY PREDICTED BY IDOCK:   -3.44 KCAL/MOL
REMARK 922        TOTAL FREE ENERGY PREDICTED BY IDOCK:   -7.34 KCAL/MOL
REMARK 923 INTER-LIGAND FREE ENERGY PREDICTED BY IDOCK:   -6.61 KCAL/MOL
REMARK 924 INTRA-LIGAND FREE ENERGY PREDICTED BY IDOCK:   -0.73 KCAL/MOL
REMARK 927      BINDING AFFINITY PREDICTED BY RF-SCORE:    0.00 PKD
ROOT
HETATM    1  C   UNL     1     -10.576   7.125  68.099  1.00  0.00    -0.241 C  
HETATM    2  C   UNL     1     -11.100   6.128  69.131  1.00  0.00    -0.448 C  
HETATM    3  C   UNL     1     -11.101   6.934  70.433  1.00  0.00    -0.296 C  
HETATM    4  O   UNL     1     -10.633   6.133  71.509  1.00  0.00    -0.224 OA 
HETATM    5  C   UNL     1     -10.135   8.131  70.221  1.00  0.00    -0.192 C  
HETATM    6  H   UNL     1     -10.633   6.633  72.317  1.00  0.00     0.000 HD 
HETATM    7  C   UNL     1      -6.579   5.568  67.775  1.00  0.00    -0.053 A  
HETATM    8  C   UNL     1      -9.470   7.845  68.851  1.00  0.00    -0.150 C  
HETATM    9  C   UNL     1      -6.167   4.769  66.720  1.00  0.00    -0.032 A  
HETATM   10  C   UNL     1      -8.223   6.961  69.006  1.00  0.00    -0.125 C  
HETATM   11  C   UNL     1      -7.054   4.497  65.684  1.00  0.00    -0.067 A  
HETATM   12  C   UNL     1      -7.870   6.119  67.799  1.00  0.00    -0.105 A  
HETATM   13  C   UNL     1      -8.365   5.002  65.689  1.00  0.00    -0.120 A  
HETATM   14  C   UNL     1      -8.795   5.829  66.758  1.00  0.00    -0.117 A  
HETATM   15  C   UNL     1     -10.133   6.522  66.778  1.00  0.00    -0.239 C  
ENDROOT
BRANCH   5  16
HETATM   16  C   UNL     1     -10.865   9.491  70.168  1.00  0.00    -0.300 C  
BRANCH  16  17
HETATM   17  C   UNL     1     -12.029   9.652  71.147  1.00  0.00    -0.452 C  
BRANCH  17  18
HETATM   18  C   UNL     1     -12.829  10.955  71.022  1.00  0.00    -0.376 C  
HETATM   19  O   UNL     1     -13.441  11.258  72.275  1.00  0.00    -0.604 OA 
HETATM   20  H   UNL     1     -13.936  12.064  72.198  1.00  0.00     0.000 HD 
BRANCH  18  21
HETATM   21  C   UNL     1     -11.929  12.143  70.651  1.00  0.00    -0.233 C  
BRANCH  21  22
HETATM   22  C   UNL     1     -12.671  13.224  69.865  1.00  0.00     0.175 C  
BRANCH  22  23
HETATM   23  C   UNL     1     -11.887  14.531  69.791  1.00  0.00    -0.367 C  
BRANCH  23  24
HETATM   24  C   UNL     1     -12.374  15.493  70.874  1.00  0.00    -0.474 C  
HETATM   25  C   UNL     1     -11.594  15.326  72.165  1.00  0.00    -0.535 C  
ENDBRANCH  23  24
ENDBRANCH  22  23
ENDBRANCH  21  22
ENDBRANCH  18  21
ENDBRANCH  17  18
ENDBRANCH  16  17
ENDBRANCH   5  16
BRANCH  13  26
HETATM   26  O   UNL     1      -9.046   4.627  64.553  1.00  0.00    -0.155 OA 
BRANCH  26  27
HETATM   27  C   UNL     1      -9.834   3.444  64.596  1.00  0.00    -0.146 C  
HETATM   28  C   UNL     1     -10.580   3.213  63.294  1.00  0.00    -0.238 C  
HETATM   29  O   UNL     1     -10.301   4.129  62.342  1.00  0.00    -0.184 OA 
HETATM   30  O   UNL     1     -11.355   2.284  63.113  1.00  0.00    -0.311 OA 
ENDBRANCH  26  27
ENDBRANCH  13  26
TORSDOF 9
ENDMDL
MODEL      155
REMARK 921   NORMALIZED FREE ENERGY PREDICTED BY IDOCK:   -3.37 KCAL/MOL
REMARK 922        TOTAL FREE ENERGY PREDICTED BY IDOCK:   -7.23 KCAL/MOL
REMARK 923 INTER-LIGAND FREE ENERGY PREDICTED BY IDOCK:   -6.45 KCAL/MOL
REMARK 924 INTRA-LIGAND FREE ENERGY PREDICTED BY IDOCK:   -0.78 KCAL/MOL
REMARK 927      BINDING AFFINITY PREDICTED BY RF-SCORE:    0.00 PKD
ROOT
HETATM    1  C   UNL     1      -8.436  10.192  66.758  1.00  0.00    -0.126 C  
HETATM    2  C   UNL     1      -7.202  10.846  67.379  1.00  0.00    -0.094 C  
HETATM    3  C   UNL     1      -6.704   9.791  68.372  1.00  0.00    -0.060 C  
HETATM    4  O   UNL     1      -6.292  10.409  69.583  1.00  0.00    -0.051 OA 
HETATM    5  C   UNL     1      -7.900   8.842  68.656  1.00  0.00    -0.102 C  
HETATM    6  H   UNL     1      -5.984   9.755  70.199  1.00  0.00     0.000 HD 
HETATM    7  C   UNL     1     -11.415  12.415  68.924  1.00  0.00    -0.355 A  
HETATM    8  C   UNL     1      -9.100   9.519  67.948  1.00  0.00    -0.131 C  
HETATM    9  C   UNL     1     -12.110  13.478  68.368  1.00  0.00    -0.293 A  
HETATM   10  C   UNL     1      -9.788  10.541  68.864  1.00  0.00    -0.209 C  
HETATM   11  C   UNL     1     -11.890  13.815  67.037  1.00  0.00    -0.445 A  
HETATM   12  C   UNL     1     -10.508  11.668  68.154  1.00  0.00    -0.217 A  
HETATM   13  C   UNL     1     -10.966  13.114  66.246  1.00  0.00    -0.280 A  
HETATM   14  C   UNL     1     -10.256  12.018  66.799  1.00  0.00    -0.225 A  
HETATM   15  C   UNL     1      -9.350  11.127  65.989  1.00  0.00    -0.228 C  
ENDROOT
BRANCH   5  16
HETATM   16  C   UNL     1      -7.692   7.424  68.081  1.00  0.00    -0.120 C  
BRANCH  16  17
HETATM   17  C   UNL     1      -8.764   6.398  68.454  1.00  0.00    -0.113 C  
BRANCH  17  18
HETATM   18  C   UNL     1      -9.696   5.965  67.315  1.00  0.00    -0.127 C  
HETATM   19  O   UNL     1      -9.375   6.699  66.135  1.00  0.00    -0.289 OA 
HETATM   20  H   UNL     1      -9.953   6.431  65.430  1.00  0.00     0.000 HD 
BRANCH  18  21
HETATM   21  C   UNL     1      -9.539   4.473  66.986  1.00  0.00    -0.210 C  
BRANCH  21  22
HETATM   22  C   UNL     1      -8.654   3.736  67.992  1.00  0.00    -0.114 C  
BRANCH  22  23
HETATM   23  C   UNL     1      -9.268   2.415  68.447  1.00  0.00    -0.253 C  
BRANCH  23  24
HETATM   24  C   UNL     1      -9.765   2.540  69.887  1.00  0.00     0.046 C  
HETATM   25  C   UNL     1      -9.043   3.646  70.635  1.00  0.00    -0.184 C  
ENDBRANCH  23  24
ENDBRANCH  22  23
ENDBRANCH  21  22
ENDBRANCH  18  21
ENDBRANCH  17  18
ENDBRANCH  16  17
ENDBRANCH   5  16
BRANCH  13  26
HETATM   26  O   UNL     1     -10.939  13.606  64.960  1.00  0.00    -0.314 OA 
BRANCH  26  27
HETATM   27  C   UNL     1     -11.763  14.721  64.645  1.00  0.00    -0.422 C  
HETATM   28  C   UNL     1     -11.004  16.032  64.740  1.00  0.00    -0.356 C  
HETATM   29  O   UNL     1      -9.696  15.877  65.037  1.00  0.00    -0.270 OA 
HETATM   30  O   UNL     1     -11.517  17.127  64.557  1.00  0.00    -0.907 OA 
ENDBRANCH  26  27
ENDBRANCH  13  26
TORSDOF 9
ENDMDL
MODEL      156
REMARK 921   NORMALIZED FREE ENERGY PREDICTED BY IDOCK:   -3.34 KCAL/MOL
REMARK 922        TOTAL FREE ENERGY PREDICTED BY IDOCK:   -7.19 KCAL/MOL
REMARK 923 INTER-LIGAND FREE ENERGY PREDICTED BY IDOCK:   -5.47 KCAL/MOL
REMARK 924 INTRA-LIGAND FREE ENERGY PREDICTED BY IDOCK:   -1.72 KCAL/MOL
REMARK 927      BINDING AFFINITY PREDICTED BY RF-SCORE:    0.00 PKD
ROOT
HETATM    1  C   UNL     1      -8.755   8.553  68.957  1.00  0.00    -0.134 C  
HETATM    2  C   UNL     1      -8.123   9.757  69.655  1.00  0.00    -0.158 C  
HETATM    3  C   UNL     1      -7.024  10.193  68.680  1.00  0.00    -0.062 C  
HETATM    4  O   UNL     1      -5.845  10.544  69.391  1.00  0.00    -0.037 OA 
HETATM    5  C   UNL     1      -6.732   8.977  67.760  1.00  0.00    -0.065 C  
HETATM    6  H   UNL     1      -5.164  10.814  68.786  1.00  0.00     0.000 HD 
HETATM    7  C   UNL     1      -6.935   5.479  71.354  1.00  0.00    -0.067 A  
HETATM    8  C   UNL     1      -7.555   7.821  68.382  1.00  0.00    -0.109 C  
HETATM    9  C   UNL     1      -7.610   4.822  72.371  1.00  0.00    -0.086 A  
HETATM   10  C   UNL     1      -6.760   7.092  69.476  1.00  0.00    -0.049 C  
HETATM   11  C   UNL     1      -8.949   5.115  72.602  1.00  0.00    -0.129 A  
HETATM   12  C   UNL     1      -7.594   6.420  70.545  1.00  0.00    -0.096 A  
HETATM   13  C   UNL     1      -9.632   6.075  71.837  1.00  0.00    -0.150 A  
HETATM   14  C   UNL     1      -8.956   6.747  70.787  1.00  0.00    -0.151 A  
HETATM   15  C   UNL     1      -9.645   7.688  69.832  1.00  0.00    -0.160 C  
ENDROOT
BRANCH   5  16
HETATM   16  C   UNL     1      -7.182   9.206  66.301  1.00  0.00    -0.091 C  
BRANCH  16  17
HETATM   17  C   UNL     1      -7.652  10.623  65.970  1.00  0.00    -0.142 C  
BRANCH  17  18
HETATM   18  C   UNL     1      -9.101  10.747  65.480  1.00  0.00    -0.199 C  
HETATM   19  O   UNL     1      -9.837   9.594  65.883  1.00  0.00    -0.258 OA 
HETATM   20  H   UNL     1     -10.734   9.670  65.580  1.00  0.00     0.000 HD 
BRANCH  18  21
HETATM   21  C   UNL     1      -9.803  11.974  66.082  1.00  0.00    -0.255 C  
BRANCH  21  22
HETATM   22  C   UNL     1     -11.280  11.720  66.385  1.00  0.00    -0.382 C  
BRANCH  22  23
HETATM   23  C   UNL     1     -11.803  12.604  67.513  1.00  0.00    -0.396 C  
BRANCH  23  24
HETATM   24  C   UNL     1     -11.188  12.169  68.844  1.00  0.00    -0.320 C  
HETATM   25  C   UNL     1     -11.610  10.761  69.222  1.00  0.00    -0.376 C  
ENDBRANCH  23  24
ENDBRANCH  22  23
ENDBRANCH  21  22
ENDBRANCH  18  21
ENDBRANCH  17  18
ENDBRANCH  16  17
ENDBRANCH   5  16
BRANCH  13  26
HETATM   26  O   UNL     1     -10.949   6.175  72.226  1.00  0.00    -0.234 OA 
BRANCH  26  27
HETATM   27  C   UNL     1     -11.393   7.395  72.806  1.00  0.00    -0.308 C  
HETATM   28  C   UNL     1     -12.587   7.972  72.066  1.00  0.00    -0.312 C  
HETATM   29  O   UNL     1     -13.027   7.189  71.058  1.00  0.00    -0.325 OA 
HETATM   30  O   UNL     1     -13.112   9.038  72.355  1.00  0.00    -0.412 OA 
ENDBRANCH  26  27
ENDBRANCH  13  26
TORSDOF 9
ENDMDL
MODEL      157
REMARK 921   NORMALIZED FREE ENERGY PREDICTED BY IDOCK:   -3.34 KCAL/MOL
REMARK 922        TOTAL FREE ENERGY PREDICTED BY IDOCK:   -7.19 KCAL/MOL
REMARK 923 INTER-LIGAND FREE ENERGY PREDICTED BY IDOCK:   -5.31 KCAL/MOL
REMARK 924 INTRA-LIGAND FREE ENERGY PREDICTED BY IDOCK:   -1.88 KCAL/MOL
REMARK 927      BINDING AFFINITY PREDICTED BY RF-SCORE:    0.00 PKD
ROOT
HETATM    1  C   UNL     1      -7.437  15.709  68.147  1.00  0.00    -0.129 C  
HETATM    2  C   UNL     1      -7.460  15.447  69.652  1.00  0.00    -0.170 C  
HETATM    3  C   UNL     1      -6.218  16.186  70.159  1.00  0.00    -0.051 C  
HETATM    4  O   UNL     1      -5.547  15.407  71.139  1.00  0.00    -0.049 OA 
HETATM    5  C   UNL     1      -5.287  16.391  68.934  1.00  0.00    -0.116 C  
HETATM    6  H   UNL     1      -4.776  15.865  71.453  1.00  0.00     0.000 HD 
HETATM    7  C   UNL     1      -5.989  11.851  66.913  1.00  0.00    -0.115 A  
HETATM    8  C   UNL     1      -5.964  15.581  67.800  1.00  0.00    -0.169 C  
HETATM    9  C   UNL     1      -6.817  10.869  66.392  1.00  0.00    -0.135 A  
HETATM   10  C   UNL     1      -5.507  14.114  67.809  1.00  0.00    -0.028 C  
HETATM   11  C   UNL     1      -8.166  11.147  66.197  1.00  0.00    -0.128 A  
HETATM   12  C   UNL     1      -6.492  13.124  67.228  1.00  0.00     0.065 A  
HETATM   13  C   UNL     1      -8.713  12.397  66.533  1.00  0.00    -0.057 A  
HETATM   14  C   UNL     1      -7.874  13.413  67.058  1.00  0.00     0.076 A  
HETATM   15  C   UNL     1      -8.346  14.820  67.317  1.00  0.00    -0.234 C  
ENDROOT
BRANCH   5  16
HETATM   16  C   UNL     1      -5.167  17.872  68.511  1.00  0.00    -0.149 C  
BRANCH  16  17
HETATM   17  C   UNL     1      -5.299  18.893  69.643  1.00  0.00    -0.205 C  
BRANCH  17  18
HETATM   18  C   UNL     1      -6.331  20.006  69.419  1.00  0.00    -0.339 C  
HETATM   19  O   UNL     1      -5.782  20.992  68.545  1.00  0.00    -0.329 OA 
HETATM   20  H   UNL     1      -6.421  21.681  68.407  1.00  0.00     0.000 HD 
BRANCH  18  21
HETATM   21  C   UNL     1      -7.612  19.472  68.761  1.00  0.00    -0.386 C  
BRANCH  21  22
HETATM   22  C   UNL     1      -8.113  20.369  67.629  1.00  0.00    -0.283 C  
BRANCH  22  23
HETATM   23  C   UNL     1      -8.341  19.597  66.332  1.00  0.00    -0.376 C  
BRANCH  23  24
HETATM   24  C   UNL     1      -7.060  18.865  65.930  1.00  0.00    -0.294 C  
HETATM   25  C   UNL     1      -6.053  19.806  65.293  1.00  0.00    -0.261 C  
ENDBRANCH  23  24
ENDBRANCH  22  23
ENDBRANCH  21  22
ENDBRANCH  18  21
ENDBRANCH  17  18
ENDBRANCH  16  17
ENDBRANCH   5  16
BRANCH  13  26
HETATM   26  O   UNL     1     -10.054  12.450  66.228  1.00  0.00    -0.231 OA 
BRANCH  26  27
HETATM   27  C   UNL     1     -10.893  11.393  66.678  1.00  0.00    -0.289 C  
HETATM   28  C   UNL     1     -11.765  11.819  67.845  1.00  0.00    -0.276 C  
HETATM   29  O   UNL     1     -11.623  13.120  68.178  1.00  0.00    -0.296 OA 
HETATM   30  O   UNL     1     -12.534  11.067  68.427  1.00  0.00    -0.352 OA 
ENDBRANCH  26  27
ENDBRANCH  13  26
TORSDOF 9
ENDMDL
MODEL      158
REMARK 921   NORMALIZED FREE ENERGY PREDICTED BY IDOCK:   -3.33 KCAL/MOL
REMARK 922        TOTAL FREE ENERGY PREDICTED BY IDOCK:   -7.17 KCAL/MOL
REMARK 923 INTER-LIGAND FREE ENERGY PREDICTED BY IDOCK:   -6.15 KCAL/MOL
REMARK 924 INTRA-LIGAND FREE ENERGY PREDICTED BY IDOCK:   -1.01 KCAL/MOL
REMARK 927      BINDING AFFINITY PREDICTED BY RF-SCORE:    0.00 PKD
ROOT
HETATM    1  C   UNL     1      -8.987   9.268  68.450  1.00  0.00    -0.129 C  
HETATM    2  C   UNL     1      -7.496   9.402  68.146  1.00  0.00    -0.079 C  
HETATM    3  C   UNL     1      -7.463  10.350  66.943  1.00  0.00    -0.107 C  
HETATM    4  O   UNL     1      -6.502   9.910  65.994  1.00  0.00    -0.076 OA 
HETATM    5  C   UNL     1      -8.877  10.312  66.303  1.00  0.00    -0.161 C  
HETATM    6  H   UNL     1      -6.482  10.498  65.248  1.00  0.00     0.000 HD 
HETATM    7  C   UNL     1      -9.574   5.361  66.748  1.00  0.00    -0.155 A  
HETATM    8  C   UNL     1      -9.611   9.181  67.068  1.00  0.00    -0.223 C  
HETATM    9  C   UNL     1      -9.654   4.211  67.518  1.00  0.00    -0.219 A  
HETATM   10  C   UNL     1      -9.361   7.812  66.419  1.00  0.00    -0.237 C  
HETATM   11  C   UNL     1      -9.605   4.313  68.904  1.00  0.00    -0.227 A  
HETATM   12  C   UNL     1      -9.462   6.624  67.352  1.00  0.00    -0.143 A  
HETATM   13  C   UNL     1      -9.458   5.555  69.543  1.00  0.00    -0.141 A  
HETATM   14  C   UNL     1      -9.384   6.740  68.767  1.00  0.00    -0.132 A  
HETATM   15  C   UNL     1      -9.363   8.121  69.370  1.00  0.00    -0.155 C  
ENDROOT
BRANCH   5  16
HETATM   16  C   UNL     1      -9.650  11.638  66.473  1.00  0.00    -0.226 C  
BRANCH  16  17
HETATM   17  C   UNL     1      -8.956  12.700  67.328  1.00  0.00    -0.194 C  
BRANCH  17  18
HETATM   18  C   UNL     1      -9.744  13.998  67.547  1.00  0.00    -0.232 C  
HETATM   19  O   UNL     1      -8.851  15.028  67.971  1.00  0.00    -0.159 OA 
HETATM   20  H   UNL     1      -9.339  15.832  68.106  1.00  0.00     0.000 HD 
BRANCH  18  21
HETATM   21  C   UNL     1     -10.420  14.479  66.255  1.00  0.00    -0.303 C  
BRANCH  21  22
HETATM   22  C   UNL     1     -11.905  14.122  66.197  1.00  0.00    -0.420 C  
BRANCH  22  23
HETATM   23  C   UNL     1     -12.468  14.203  64.781  1.00  0.00    -0.395 C  
BRANCH  23  24
HETATM   24  C   UNL     1     -11.662  13.301  63.847  1.00  0.00    -0.486 C  
HETATM   25  C   UNL     1     -12.180  11.874  63.860  1.00  0.00    -0.497 C  
ENDBRANCH  23  24
ENDBRANCH  22  23
ENDBRANCH  21  22
ENDBRANCH  18  21
ENDBRANCH  17  18
ENDBRANCH  16  17
ENDBRANCH   5  16
BRANCH  13  26
HETATM   26  O   UNL     1      -9.463   5.413  70.912  1.00  0.00    -0.158 OA 
BRANCH  26  27
HETATM   27  C   UNL     1     -10.596   5.874  71.637  1.00  0.00    -0.241 C  
HETATM   28  C   UNL     1     -10.213   6.880  72.707  1.00  0.00    -0.192 C  
HETATM   29  O   UNL     1      -8.898   7.184  72.716  1.00  0.00    -0.121 OA 
HETATM   30  O   UNL     1     -11.014   7.381  73.485  1.00  0.00    -0.344 OA 
ENDBRANCH  26  27
ENDBRANCH  13  26
TORSDOF 9
ENDMDL
MODEL      159
REMARK 921   NORMALIZED FREE ENERGY PREDICTED BY IDOCK:   -3.30 KCAL/MOL
REMARK 922        TOTAL FREE ENERGY PREDICTED BY IDOCK:   -7.12 KCAL/MOL
REMARK 923 INTER-LIGAND FREE ENERGY PREDICTED BY IDOCK:   -6.31 KCAL/MOL
REMARK 924 INTRA-LIGAND FREE ENERGY PREDICTED BY IDOCK:   -0.81 KCAL/MOL
REMARK 927      BINDING AFFINITY PREDICTED BY RF-SCORE:    0.00 PKD
ROOT
HETATM    1  C   UNL     1      -8.852  10.810  67.489  1.00  0.00    -0.128 C  
HETATM    2  C   UNL     1      -8.031  10.870  68.777  1.00  0.00    -0.139 C  
HETATM    3  C   UNL     1      -8.356   9.541  69.466  1.00  0.00    -0.145 C  
HETATM    4  O   UNL     1      -8.533   9.740  70.861  1.00  0.00    -0.371 OA 
HETATM    5  C   UNL     1      -9.682   9.025  68.844  1.00  0.00    -0.166 C  
HETATM    6  H   UNL     1      -8.735   8.915  71.289  1.00  0.00     0.000 HD 
HETATM    7  C   UNL     1     -12.011  13.469  68.694  1.00  0.00    -0.378 A  
HETATM    8  C   UNL     1     -10.163  10.194  67.947  1.00  0.00    -0.217 C  
HETATM    9  C   UNL     1     -12.079  14.791  68.281  1.00  0.00    -0.179 A  
HETATM   10  C   UNL     1     -11.011  11.198  68.742  1.00  0.00    -0.268 C  
HETATM   11  C   UNL     1     -11.126  15.277  67.392  1.00  0.00    -0.326 A  
HETATM   12  C   UNL     1     -11.005  12.616  68.212  1.00  0.00    -0.275 A  
HETATM   13  C   UNL     1     -10.086  14.464  66.915  1.00  0.00    -0.259 A  
HETATM   14  C   UNL     1     -10.011  13.107  67.323  1.00  0.00    -0.230 A  
HETATM   15  C   UNL     1      -9.012  12.130  66.757  1.00  0.00    -0.203 C  
ENDROOT
BRANCH   5  16
HETATM   16  C   UNL     1      -9.489   7.758  67.982  1.00  0.00    -0.153 C  
BRANCH  16  17
HETATM   17  C   UNL     1      -9.437   6.438  68.754  1.00  0.00    -0.127 C  
BRANCH  17  18
HETATM   18  C   UNL     1     -10.434   6.305  69.913  1.00  0.00    -0.227 C  
HETATM   19  O   UNL     1     -11.731   6.701  69.471  1.00  0.00    -0.634 OA 
HETATM   20  H   UNL     1     -12.348   6.619  70.188  1.00  0.00     0.000 HD 
BRANCH  18  21
HETATM   21  C   UNL     1     -10.541   4.855  70.408  1.00  0.00    -0.034 C  
BRANCH  21  22
HETATM   22  C   UNL     1     -10.086   4.690  71.858  1.00  0.00    -0.266 C  
BRANCH  22  23
HETATM   23  C   UNL     1      -9.139   5.802  72.301  1.00  0.00    -0.145 C  
BRANCH  23  24
HETATM   24  C   UNL     1      -7.689   5.340  72.155  1.00  0.00    -0.100 C  
HETATM   25  C   UNL     1      -7.578   3.827  72.172  1.00  0.00    -0.062 C  
ENDBRANCH  23  24
ENDBRANCH  22  23
ENDBRANCH  21  22
ENDBRANCH  18  21
ENDBRANCH  17  18
ENDBRANCH  16  17
ENDBRANCH   5  16
BRANCH  13  26
HETATM   26  O   UNL     1      -9.285  15.150  66.030  1.00  0.00    -0.301 OA 
BRANCH  26  27
HETATM   27  C   UNL     1      -9.450  16.558  65.920  1.00  0.00    -0.219 C  
HETATM   28  C   UNL     1      -8.187  17.308  66.304  1.00  0.00    -0.267 C  
HETATM   29  O   UNL     1      -7.149  16.498  66.606  1.00  0.00    -0.218 OA 
HETATM   30  O   UNL     1      -8.104  18.528  66.330  1.00  0.00    -0.272 OA 
ENDBRANCH  26  27
ENDBRANCH  13  26
TORSDOF 9
ENDMDL
MODEL      160
REMARK 921   NORMALIZED FREE ENERGY PREDICTED BY IDOCK:   -3.26 KCAL/MOL
REMARK 922        TOTAL FREE ENERGY PREDICTED BY IDOCK:   -7.07 KCAL/MOL
REMARK 923 INTER-LIGAND FREE ENERGY PREDICTED BY IDOCK:   -6.24 KCAL/MOL
REMARK 924 INTRA-LIGAND FREE ENERGY PREDICTED BY IDOCK:   -0.83 KCAL/MOL
REMARK 927      BINDING AFFINITY PREDICTED BY RF-SCORE:    0.00 PKD
ROOT
HETATM    1  C   UNL     1      -9.679  10.072  67.502  1.00  0.00    -0.189 C  
HETATM    2  C   UNL     1     -10.286   9.967  66.103  1.00  0.00    -0.277 C  
HETATM    3  C   UNL     1      -9.139   9.398  65.262  1.00  0.00    -0.232 C  
HETATM    4  O   UNL     1      -9.084  10.048  64.000  1.00  0.00    -0.220 OA 
HETATM    5  C   UNL     1      -7.827   9.676  66.045  1.00  0.00    -0.102 C  
HETATM    6  H   UNL     1      -8.372   9.696  63.478  1.00  0.00     0.000 HD 
HETATM    7  C   UNL     1      -9.017  14.323  67.525  1.00  0.00    -0.197 A  
HETATM    8  C   UNL     1      -8.271  10.574  67.227  1.00  0.00    -0.119 C  
HETATM    9  C   UNL     1      -9.854  15.209  68.185  1.00  0.00    -0.218 A  
HETATM   10  C   UNL     1      -8.267  12.059  66.837  1.00  0.00    -0.146 C  
HETATM   11  C   UNL     1     -10.924  14.716  68.924  1.00  0.00    -0.264 A  
HETATM   12  C   UNL     1      -9.227  12.936  67.611  1.00  0.00    -0.193 A  
HETATM   13  C   UNL     1     -11.186  13.339  69.005  1.00  0.00    -0.270 A  
HETATM   14  C   UNL     1     -10.332  12.420  68.343  1.00  0.00    -0.236 A  
HETATM   15  C   UNL     1     -10.457  10.925  68.487  1.00  0.00    -0.209 C  
ENDROOT
BRANCH   5  16
HETATM   16  C   UNL     1      -7.168   8.390  66.590  1.00  0.00    -0.077 C  
BRANCH  16  17
HETATM   17  C   UNL     1      -7.290   8.177  68.100  1.00  0.00    -0.096 C  
BRANCH  17  18
HETATM   18  C   UNL     1      -8.512   7.373  68.563  1.00  0.00    -0.125 C  
HETATM   19  O   UNL     1      -9.015   6.604  67.471  1.00  0.00    -0.116 OA 
HETATM   20  H   UNL     1      -9.771   6.107  67.757  1.00  0.00     0.000 HD 
BRANCH  18  21
HETATM   21  C   UNL     1      -8.155   6.391  69.689  1.00  0.00    -0.124 C  
BRANCH  21  22
HETATM   22  C   UNL     1      -8.265   7.020  71.078  1.00  0.00    -0.117 C  
BRANCH  22  23
HETATM   23  C   UNL     1      -9.163   8.254  71.089  1.00  0.00    -0.200 C  
BRANCH  23  24
HETATM   24  C   UNL     1     -10.554   7.882  71.600  1.00  0.00    -0.267 C  
HETATM   25  C   UNL     1     -11.448   9.101  71.730  1.00  0.00    -0.452 C  
ENDBRANCH  23  24
ENDBRANCH  22  23
ENDBRANCH  21  22
ENDBRANCH  18  21
ENDBRANCH  17  18
ENDBRANCH  16  17
ENDBRANCH   5  16
BRANCH  13  26
HETATM   26  O   UNL     1     -12.273  13.087  69.812  1.00  0.00    -0.264 OA 
BRANCH  26  27
HETATM   27  C   UNL     1     -12.433  13.863  70.993  1.00  0.00    -0.377 C  
HETATM   28  C   UNL     1     -13.160  13.094  72.081  1.00  0.00    -0.378 C  
HETATM   29  O   UNL     1     -13.449  11.819  71.741  1.00  0.00    -0.312 OA 
HETATM   30  O   UNL     1     -13.452  13.571  73.169  1.00  0.00    -0.468 OA 
ENDBRANCH  26  27
ENDBRANCH  13  26
TORSDOF 9
ENDMDL
MODEL      161
REMARK 921   NORMALIZED FREE ENERGY PREDICTED BY IDOCK:   -3.25 KCAL/MOL
REMARK 922        TOTAL FREE ENERGY PREDICTED BY IDOCK:   -7.05 KCAL/MOL
REMARK 923 INTER-LIGAND FREE ENERGY PREDICTED BY IDOCK:   -5.79 KCAL/MOL
REMARK 924 INTRA-LIGAND FREE ENERGY PREDICTED BY IDOCK:   -1.27 KCAL/MOL
REMARK 927      BINDING AFFINITY PREDICTED BY RF-SCORE:    0.00 PKD
ROOT
HETATM    1  C   UNL     1      -7.620  15.101  67.621  1.00  0.00    -0.194 C  
HETATM    2  C   UNL     1      -8.033  15.931  68.837  1.00  0.00    -0.204 C  
HETATM    3  C   UNL     1      -7.124  17.161  68.750  1.00  0.00    -0.229 C  
HETATM    4  O   UNL     1      -6.647  17.514  70.041  1.00  0.00     0.014 OA 
HETATM    5  C   UNL     1      -5.925  16.771  67.844  1.00  0.00    -0.138 C  
HETATM    6  H   UNL     1      -6.083  18.277  69.987  1.00  0.00     0.000 HD 
HETATM    7  C   UNL     1      -5.280  12.155  69.707  1.00  0.00    -0.077 A  
HETATM    8  C   UNL     1      -6.108  15.251  67.603  1.00  0.00    -0.139 C  
HETATM    9  C   UNL     1      -5.755  10.885  69.995  1.00  0.00    -0.077 A  
HETATM   10  C   UNL     1      -5.445  14.423  68.714  1.00  0.00    -0.088 C  
HETATM   11  C   UNL     1      -7.017  10.511  69.546  1.00  0.00    -0.114 A  
HETATM   12  C   UNL     1      -6.049  13.057  68.954  1.00  0.00    -0.083 A  
HETATM   13  C   UNL     1      -7.830  11.398  68.821  1.00  0.00    -0.128 A  
HETATM   14  C   UNL     1      -7.352  12.696  68.512  1.00  0.00    -0.115 A  
HETATM   15  C   UNL     1      -8.097  13.661  67.625  1.00  0.00    -0.179 C  
ENDROOT
BRANCH   5  16
HETATM   16  C   UNL     1      -5.928  17.513  66.490  1.00  0.00    -0.240 C  
BRANCH  16  17
HETATM   17  C   UNL     1      -5.319  18.917  66.506  1.00  0.00    -0.158 C  
BRANCH  17  18
HETATM   18  C   UNL     1      -6.247  20.051  66.055  1.00  0.00    -0.190 C  
HETATM   19  O   UNL     1      -6.715  19.784  64.734  1.00  0.00    -0.354 OA 
HETATM   20  H   UNL     1      -7.290  20.486  64.455  1.00  0.00     0.000 HD 
BRANCH  18  21
HETATM   21  C   UNL     1      -7.480  20.174  66.963  1.00  0.00    -0.318 C  
BRANCH  21  22
HETATM   22  C   UNL     1      -8.793  19.961  66.209  1.00  0.00    -0.402 C  
BRANCH  22  23
HETATM   23  C   UNL     1      -9.381  18.573  66.446  1.00  0.00    -0.285 C  
BRANCH  23  24
HETATM   24  C   UNL     1     -10.589  18.672  67.378  1.00  0.00    -0.490 C  
HETATM   25  C   UNL     1     -10.333  19.628  68.529  1.00  0.00    -0.459 C  
ENDBRANCH  23  24
ENDBRANCH  22  23
ENDBRANCH  21  22
ENDBRANCH  18  21
ENDBRANCH  17  18
ENDBRANCH  16  17
ENDBRANCH   5  16
BRANCH  13  26
HETATM   26  O   UNL     1      -9.018  10.801  68.462  1.00  0.00    -0.145 OA 
BRANCH  26  27
HETATM   27  C   UNL     1      -9.859  10.294  69.490  1.00  0.00    -0.220 C  
HETATM   28  C   UNL     1     -11.125  11.118  69.644  1.00  0.00    -0.232 C  
HETATM   29  O   UNL     1     -11.232  12.116  68.741  1.00  0.00    -0.228 OA 
HETATM   30  O   UNL     1     -11.977  10.899  70.494  1.00  0.00    -0.313 OA 
ENDBRANCH  26  27
ENDBRANCH  13  26
TORSDOF 9
ENDMDL
MODEL      162
REMARK 921   NORMALIZED FREE ENERGY PREDICTED BY IDOCK:   -3.25 KCAL/MOL
REMARK 922        TOTAL FREE ENERGY PREDICTED BY IDOCK:   -7.05 KCAL/MOL
REMARK 923 INTER-LIGAND FREE ENERGY PREDICTED BY IDOCK:   -6.01 KCAL/MOL
REMARK 924 INTRA-LIGAND FREE ENERGY PREDICTED BY IDOCK:   -1.04 KCAL/MOL
REMARK 927      BINDING AFFINITY PREDICTED BY RF-SCORE:    0.00 PKD
ROOT
HETATM    1  C   UNL     1     -10.349   7.476  70.263  1.00  0.00    -0.215 C  
HETATM    2  C   UNL     1     -11.640   7.700  71.049  1.00  0.00    -0.301 C  
HETATM    3  C   UNL     1     -12.089   9.094  70.600  1.00  0.00    -0.068 C  
HETATM    4  O   UNL     1     -12.573   9.837  71.710  1.00  0.00    -0.373 OA 
HETATM    5  C   UNL     1     -10.839   9.801  70.010  1.00  0.00    -0.319 C  
HETATM    6  H   UNL     1     -12.851  10.702  71.432  1.00  0.00     0.000 HD 
HETATM    7  C   UNL     1      -7.585   8.198  73.480  1.00  0.00    -0.205 A  
HETATM    8  C   UNL     1      -9.670   8.834  70.326  1.00  0.00    -0.198 C  
HETATM    9  C   UNL     1      -6.950   7.176  74.168  1.00  0.00    -0.089 A  
HETATM   10  C   UNL     1      -9.077   9.106  71.716  1.00  0.00     0.040 C  
HETATM   11  C   UNL     1      -7.159   5.858  73.777  1.00  0.00    -0.082 A  
HETATM   12  C   UNL     1      -8.418   7.918  72.384  1.00  0.00    -0.189 A  
HETATM   13  C   UNL     1      -8.012   5.537  72.709  1.00  0.00    -0.102 A  
HETATM   14  C   UNL     1      -8.660   6.574  71.990  1.00  0.00    -0.125 A  
HETATM   15  C   UNL     1      -9.481   6.330  70.750  1.00  0.00    -0.185 C  
ENDROOT
BRANCH   5  16
HETATM   16  C   UNL     1     -10.934  10.016  68.484  1.00  0.00    -0.255 C  
BRANCH  16  17
HETATM   17  C   UNL     1     -11.346  11.421  68.041  1.00  0.00    -0.372 C  
BRANCH  17  18
HETATM   18  C   UNL     1     -10.216  12.308  67.502  1.00  0.00    -0.204 C  
HETATM   19  O   UNL     1      -9.284  12.575  68.549  1.00  0.00    -0.330 OA 
HETATM   20  H   UNL     1      -8.584  13.124  68.216  1.00  0.00     0.000 HD 
BRANCH  18  21
HETATM   21  C   UNL     1      -9.446  11.621  66.365  1.00  0.00    -0.232 C  
BRANCH  21  22
HETATM   22  C   UNL     1     -10.186  11.682  65.029  1.00  0.00    -0.321 C  
BRANCH  22  23
HETATM   23  C   UNL     1     -10.209  13.089  64.439  1.00  0.00    -0.335 C  
BRANCH  23  24
HETATM   24  C   UNL     1     -11.653  13.533  64.205  1.00  0.00    -0.433 C  
HETATM   25  C   UNL     1     -12.493  12.417  63.612  1.00  0.00    -0.610 C  
ENDBRANCH  23  24
ENDBRANCH  22  23
ENDBRANCH  21  22
ENDBRANCH  18  21
ENDBRANCH  17  18
ENDBRANCH  16  17
ENDBRANCH   5  16
BRANCH  13  26
HETATM   26  O   UNL     1      -8.041   4.178  72.488  1.00  0.00    -0.091 OA 
BRANCH  26  27
HETATM   27  C   UNL     1      -8.381   3.323  73.572  1.00  0.00    -0.075 C  
HETATM   28  C   UNL     1      -9.756   2.704  73.396  1.00  0.00    -0.097 C  
HETATM   29  O   UNL     1     -10.349   3.031  72.227  1.00  0.00    -0.140 OA 
HETATM   30  O   UNL     1     -10.280   1.970  74.222  1.00  0.00    -0.103 OA 
ENDBRANCH  26  27
ENDBRANCH  13  26
TORSDOF 9
ENDMDL
MODEL      163
REMARK 921   NORMALIZED FREE ENERGY PREDICTED BY IDOCK:   -3.16 KCAL/MOL
REMARK 922        TOTAL FREE ENERGY PREDICTED BY IDOCK:   -6.91 KCAL/MOL
REMARK 923 INTER-LIGAND FREE ENERGY PREDICTED BY IDOCK:   -5.79 KCAL/MOL
REMARK 924 INTRA-LIGAND FREE ENERGY PREDICTED BY IDOCK:   -1.12 KCAL/MOL
REMARK 927      BINDING AFFINITY PREDICTED BY RF-SCORE:    0.00 PKD
ROOT
HETATM    1  C   UNL     1     -10.317   8.622  68.364  1.00  0.00    -0.239 C  
HETATM    2  C   UNL     1     -10.870   8.129  69.700  1.00  0.00    -0.162 C  
HETATM    3  C   UNL     1     -11.441   9.399  70.337  1.00  0.00    -0.223 C  
HETATM    4  O   UNL     1     -11.134   9.437  71.724  1.00  0.00    -0.370 OA 
HETATM    5  C   UNL     1     -10.766  10.602  69.625  1.00  0.00    -0.290 C  
HETATM    6  H   UNL     1     -11.488  10.225  72.119  1.00  0.00     0.000 HD 
HETATM    7  C   UNL     1      -6.151   8.636  69.438  1.00  0.00    -0.041 A  
HETATM    8  C   UNL     1      -9.681   9.953  68.728  1.00  0.00    -0.164 C  
HETATM    9  C   UNL     1      -5.273   7.635  69.052  1.00  0.00    -0.019 A  
HETATM   10  C   UNL     1      -8.363   9.759  69.493  1.00  0.00    -0.165 C  
HETATM   11  C   UNL     1      -5.727   6.606  68.234  1.00  0.00    -0.016 A  
HETATM   12  C   UNL     1      -7.484   8.631  68.998  1.00  0.00    -0.089 A  
HETATM   13  C   UNL     1      -7.062   6.549  67.802  1.00  0.00    -0.088 A  
HETATM   14  C   UNL     1      -7.969   7.572  68.182  1.00  0.00    -0.123 A  
HETATM   15  C   UNL     1      -9.378   7.663  67.655  1.00  0.00    -0.158 C  
ENDROOT
BRANCH   5  16
HETATM   16  C   UNL     1     -11.747  11.410  68.747  1.00  0.00    -0.404 C  
BRANCH  16  17
HETATM   17  C   UNL     1     -11.187  12.704  68.153  1.00  0.00    -0.311 C  
BRANCH  17  18
HETATM   18  C   UNL     1     -12.197  13.589  67.412  1.00  0.00    -0.235 C  
HETATM   19  O   UNL     1     -12.514  14.723  68.218  1.00  0.00    -0.584 OA 
HETATM   20  H   UNL     1     -13.139  15.271  67.760  1.00  0.00     0.000 HD 
BRANCH  18  21
HETATM   21  C   UNL     1     -11.630  14.113  66.085  1.00  0.00    -0.377 C  
BRANCH  21  22
HETATM   22  C   UNL     1     -10.105  14.218  66.094  1.00  0.00    -0.325 C  
BRANCH  22  23
HETATM   23  C   UNL     1      -9.616  15.611  65.706  1.00  0.00    -0.361 C  
BRANCH  23  24
HETATM   24  C   UNL     1      -9.234  16.398  66.959  1.00  0.00    -0.236 C  
HETATM   25  C   UNL     1     -10.222  17.515  67.242  1.00  0.00    -0.335 C  
ENDBRANCH  23  24
ENDBRANCH  22  23
ENDBRANCH  21  22
ENDBRANCH  18  21
ENDBRANCH  17  18
ENDBRANCH  16  17
ENDBRANCH   5  16
BRANCH  13  26
HETATM   26  O   UNL     1      -7.273   5.463  66.983  1.00  0.00    -0.075 OA 
BRANCH  26  27
HETATM   27  C   UNL     1      -6.831   5.538  65.633  1.00  0.00    -0.064 C  
HETATM   28  C   UNL     1      -7.953   5.246  64.653  1.00  0.00    -0.109 C  
HETATM   29  O   UNL     1      -9.148   5.041  65.246  1.00  0.00    -0.156 OA 
HETATM   30  O   UNL     1      -7.800   5.209  63.439  1.00  0.00    -0.072 OA 
ENDBRANCH  26  27
ENDBRANCH  13  26
TORSDOF 9
ENDMDL
MODEL      164
REMARK 921   NORMALIZED FREE ENERGY PREDICTED BY IDOCK:   -3.12 KCAL/MOL
REMARK 922        TOTAL FREE ENERGY PREDICTED BY IDOCK:   -6.86 KCAL/MOL
REMARK 923 INTER-LIGAND FREE ENERGY PREDICTED BY IDOCK:   -6.14 KCAL/MOL
REMARK 924 INTRA-LIGAND FREE ENERGY PREDICTED BY IDOCK:   -0.72 KCAL/MOL
REMARK 927      BINDING AFFINITY PREDICTED BY RF-SCORE:    0.00 PKD
ROOT
HETATM    1  C   UNL     1      -9.752  12.637  67.540  1.00  0.00    -0.196 C  
HETATM    2  C   UNL     1      -9.065  12.962  66.214  1.00  0.00    -0.019 C  
HETATM    3  C   UNL     1     -10.138  13.734  65.440  1.00  0.00    -0.286 C  
HETATM    4  O   UNL     1     -10.151  13.328  64.079  1.00  0.00    -0.742 OA 
HETATM    5  C   UNL     1     -11.501  13.389  66.097  1.00  0.00    -0.354 C  
HETATM    6  H   UNL     1     -10.817  13.807  63.599  1.00  0.00     0.000 HD 
HETATM    7  C   UNL     1     -10.598   8.494  66.748  1.00  0.00    -0.227 A  
HETATM    8  C   UNL     1     -11.162  12.269  67.113  1.00  0.00    -0.365 C  
HETATM    9  C   UNL     1      -9.839   7.459  67.271  1.00  0.00    -0.230 A  
HETATM   10  C   UNL     1     -11.210  10.881  66.455  1.00  0.00    -0.009 C  
HETATM   11  C   UNL     1      -8.791   7.752  68.137  1.00  0.00    -0.125 A  
HETATM   12  C   UNL     1     -10.333   9.828  67.098  1.00  0.00    -0.311 A  
HETATM   13  C   UNL     1      -8.474   9.076  68.483  1.00  0.00    -0.128 A  
HETATM   14  C   UNL     1      -9.249  10.143  67.962  1.00  0.00    -0.142 A  
HETATM   15  C   UNL     1      -9.067  11.578  68.385  1.00  0.00    -0.185 C  
ENDROOT
BRANCH   5  16
HETATM   16  C   UNL     1     -12.132  14.587  66.839  1.00  0.00    -0.309 C  
BRANCH  16  17
HETATM   17  C   UNL     1     -11.247  15.246  67.899  1.00  0.00    -0.333 C  
BRANCH  17  18
HETATM   18  C   UNL     1     -10.356  16.392  67.404  1.00  0.00    -0.295 C  
HETATM   19  O   UNL     1     -10.962  17.640  67.735  1.00  0.00    -0.309 OA 
HETATM   20  H   UNL     1     -10.411  18.350  67.429  1.00  0.00     0.000 HD 
BRANCH  18  21
HETATM   21  C   UNL     1      -8.971  16.364  68.068  1.00  0.00    -0.185 C  
BRANCH  21  22
HETATM   22  C   UNL     1      -7.828  16.447  67.056  1.00  0.00    -0.247 C  
BRANCH  22  23
HETATM   23  C   UNL     1      -6.830  17.551  67.396  1.00  0.00    -0.184 C  
BRANCH  23  24
HETATM   24  C   UNL     1      -7.560  18.885  67.548  1.00  0.00    -0.246 C  
HETATM   25  C   UNL     1      -6.791  19.848  68.433  1.00  0.00    -0.335 C  
ENDBRANCH  23  24
ENDBRANCH  22  23
ENDBRANCH  21  22
ENDBRANCH  18  21
ENDBRANCH  17  18
ENDBRANCH  16  17
ENDBRANCH   5  16
BRANCH  13  26
HETATM   26  O   UNL     1      -7.423   9.119  69.371  1.00  0.00    -0.073 OA 
BRANCH  26  27
HETATM   27  C   UNL     1      -7.712   9.099  70.763  1.00  0.00    -0.141 C  
HETATM   28  C   UNL     1      -7.024   7.944  71.469  1.00  0.00    -0.060 C  
HETATM   29  O   UNL     1      -6.230   7.213  70.658  1.00  0.00    -0.034 OA 
HETATM   30  O   UNL     1      -7.162   7.699  72.659  1.00  0.00    -0.071 OA 
ENDBRANCH  26  27
ENDBRANCH  13  26
TORSDOF 9
ENDMDL
MODEL      165
REMARK 921   NORMALIZED FREE ENERGY PREDICTED BY IDOCK:   -3.12 KCAL/MOL
REMARK 922        TOTAL FREE ENERGY PREDICTED BY IDOCK:   -6.85 KCAL/MOL
REMARK 923 INTER-LIGAND FREE ENERGY PREDICTED BY IDOCK:   -5.29 KCAL/MOL
REMARK 924 INTRA-LIGAND FREE ENERGY PREDICTED BY IDOCK:   -1.56 KCAL/MOL
REMARK 927      BINDING AFFINITY PREDICTED BY RF-SCORE:    0.00 PKD
ROOT
HETATM    1  C   UNL     1      -8.784   8.093  65.828  1.00  0.00    -0.183 C  
HETATM    2  C   UNL     1     -10.239   8.260  66.265  1.00  0.00     0.022 C  
HETATM    3  C   UNL     1     -10.239   9.615  66.980  1.00  0.00    -0.244 C  
HETATM    4  O   UNL     1     -11.038   9.552  68.154  1.00  0.00    -0.482 OA 
HETATM    5  C   UNL     1      -8.767   9.917  67.371  1.00  0.00    -0.129 C  
HETATM    6  H   UNL     1     -11.038  10.393  68.598  1.00  0.00     0.000 HD 
HETATM    7  C   UNL     1      -7.601   5.262  68.843  1.00  0.00    -0.081 A  
HETATM    8  C   UNL     1      -8.006   8.612  67.024  1.00  0.00    -0.096 C  
HETATM    9  C   UNL     1      -7.484   3.903  68.593  1.00  0.00    -0.054 A  
HETATM   10  C   UNL     1      -8.036   7.617  68.194  1.00  0.00    -0.123 C  
HETATM   11  C   UNL     1      -7.696   3.426  67.304  1.00  0.00    -0.078 A  
HETATM   12  C   UNL     1      -7.913   6.159  67.808  1.00  0.00    -0.106 A  
HETATM   13  C   UNL     1      -8.044   4.288  66.251  1.00  0.00    -0.102 A  
HETATM   14  C   UNL     1      -8.158   5.681  66.492  1.00  0.00    -0.105 A  
HETATM   15  C   UNL     1      -8.392   6.691  65.398  1.00  0.00    -0.130 C  
ENDROOT
BRANCH   5  16
HETATM   16  C   UNL     1      -8.164  11.095  66.577  1.00  0.00    -0.167 C  
BRANCH  16  17
HETATM   17  C   UNL     1      -7.575  12.227  67.421  1.00  0.00    -0.159 C  
BRANCH  17  18
HETATM   18  C   UNL     1      -8.392  13.525  67.457  1.00  0.00    -0.184 C  
HETATM   19  O   UNL     1      -7.739  14.517  66.666  1.00  0.00    -0.216 OA 
HETATM   20  H   UNL     1      -8.245  15.321  66.688  1.00  0.00     0.000 HD 
BRANCH  18  21
HETATM   21  C   UNL     1      -9.800  13.328  66.877  1.00  0.00    -0.247 C  
BRANCH  21  22
HETATM   22  C   UNL     1     -10.143  14.354  65.796  1.00  0.00    -0.361 C  
BRANCH  22  23
HETATM   23  C   UNL     1     -10.504  13.699  64.466  1.00  0.00    -0.411 C  
BRANCH  23  24
HETATM   24  C   UNL     1     -11.231  12.378  64.717  1.00  0.00    -0.353 C  
HETATM   25  C   UNL     1     -10.870  11.333  63.677  1.00  0.00    -0.410 C  
ENDBRANCH  23  24
ENDBRANCH  22  23
ENDBRANCH  21  22
ENDBRANCH  18  21
ENDBRANCH  17  18
ENDBRANCH  16  17
ENDBRANCH   5  16
BRANCH  13  26
HETATM   26  O   UNL     1      -8.176   3.598  65.067  1.00  0.00    -0.096 OA 
BRANCH  26  27
HETATM   27  C   UNL     1      -9.294   2.734  64.908  1.00  0.00    -0.139 C  
HETATM   28  C   UNL     1     -10.176   3.157  63.748  1.00  0.00    -0.200 C  
HETATM   29  O   UNL     1      -9.696   4.217  63.063  1.00  0.00    -0.149 OA 
HETATM   30  O   UNL     1     -11.219   2.592  63.447  1.00  0.00    -0.307 OA 
ENDBRANCH  26  27
ENDBRANCH  13  26
TORSDOF 9
ENDMDL
MODEL      166
REMARK 921   NORMALIZED FREE ENERGY PREDICTED BY IDOCK:   -3.09 KCAL/MOL
REMARK 922        TOTAL FREE ENERGY PREDICTED BY IDOCK:   -6.81 KCAL/MOL
REMARK 923 INTER-LIGAND FREE ENERGY PREDICTED BY IDOCK:   -5.79 KCAL/MOL
REMARK 924 INTRA-LIGAND FREE ENERGY PREDICTED BY IDOCK:   -1.01 KCAL/MOL
REMARK 927      BINDING AFFINITY PREDICTED BY RF-SCORE:    0.00 PKD
ROOT
HETATM    1  C   UNL     1     -11.024   7.646  69.465  1.00  0.00    -0.108 C  
HETATM    2  C   UNL     1     -10.746   7.154  70.885  1.00  0.00    -0.251 C  
HETATM    3  C   UNL     1     -10.617   8.450  71.689  1.00  0.00    -0.258 C  
HETATM    4  O   UNL     1      -9.545   8.351  72.617  1.00  0.00    -0.277 OA 
HETATM    5  C   UNL     1     -10.316   9.583  70.671  1.00  0.00    -0.369 C  
HETATM    6  H   UNL     1      -9.465   9.156  73.116  1.00  0.00     0.000 HD 
HETATM    7  C   UNL     1      -7.098   6.969  67.842  1.00  0.00    -0.086 A  
HETATM    8  C   UNL     1     -10.096   8.840  69.329  1.00  0.00    -0.206 C  
HETATM    9  C   UNL     1      -6.792   5.876  67.045  1.00  0.00    -0.063 A  
HETATM   10  C   UNL     1      -8.632   8.403  69.164  1.00  0.00    -0.134 C  
HETATM   11  C   UNL     1      -7.800   4.983  66.698  1.00  0.00    -0.100 A  
HETATM   12  C   UNL     1      -8.412   7.192  68.284  1.00  0.00    -0.124 A  
HETATM   13  C   UNL     1      -9.119   5.153  67.150  1.00  0.00    -0.112 A  
HETATM   14  C   UNL     1      -9.446   6.272  67.957  1.00  0.00    -0.116 A  
HETATM   15  C   UNL     1     -10.856   6.606  68.371  1.00  0.00    -0.320 C  
ENDROOT
BRANCH   5  16
HETATM   16  C   UNL     1     -11.484  10.584  70.522  1.00  0.00    -0.433 C  
BRANCH  16  17
HETATM   17  C   UNL     1     -11.573  11.296  69.171  1.00  0.00    -0.387 C  
BRANCH  17  18
HETATM   18  C   UNL     1     -11.818  12.809  69.231  1.00  0.00    -0.303 C  
HETATM   19  O   UNL     1     -11.575  13.277  70.557  1.00  0.00    -0.523 OA 
HETATM   20  H   UNL     1     -11.726  14.213  70.594  1.00  0.00     0.000 HD 
BRANCH  18  21
HETATM   21  C   UNL     1     -10.875  13.576  68.293  1.00  0.00    -0.277 C  
BRANCH  21  22
HETATM   22  C   UNL     1      -9.491  13.803  68.901  1.00  0.00     0.081 C  
BRANCH  22  23
HETATM   23  C   UNL     1      -9.150  15.284  69.036  1.00  0.00    -0.225 C  
BRANCH  23  24
HETATM   24  C   UNL     1      -8.356  15.748  67.814  1.00  0.00    -0.163 C  
HETATM   25  C   UNL     1      -7.081  14.945  67.636  1.00  0.00    -0.208 C  
ENDBRANCH  23  24
ENDBRANCH  22  23
ENDBRANCH  21  22
ENDBRANCH  18  21
ENDBRANCH  17  18
ENDBRANCH  16  17
ENDBRANCH   5  16
BRANCH  13  26
HETATM   26  O   UNL     1      -9.943   4.166  66.658  1.00  0.00    -0.221 OA 
BRANCH  26  27
HETATM   27  C   UNL     1     -10.704   4.441  65.488  1.00  0.00    -0.088 C  
HETATM   28  C   UNL     1     -10.365   3.490  64.355  1.00  0.00    -0.151 C  
HETATM   29  O   UNL     1      -9.466   2.542  64.697  1.00  0.00    -0.145 OA 
HETATM   30  O   UNL     1     -10.860   3.562  63.238  1.00  0.00    -0.228 OA 
ENDBRANCH  26  27
ENDBRANCH  13  26
TORSDOF 9
ENDMDL
MODEL      167
REMARK 921   NORMALIZED FREE ENERGY PREDICTED BY IDOCK:   -3.04 KCAL/MOL
REMARK 922        TOTAL FREE ENERGY PREDICTED BY IDOCK:   -6.73 KCAL/MOL
REMARK 923 INTER-LIGAND FREE ENERGY PREDICTED BY IDOCK:   -5.49 KCAL/MOL
REMARK 924 INTRA-LIGAND FREE ENERGY PREDICTED BY IDOCK:   -1.25 KCAL/MOL
REMARK 927      BINDING AFFINITY PREDICTED BY RF-SCORE:    0.00 PKD
ROOT
HETATM    1  C   UNL     1      -8.883   7.348  67.862  1.00  0.00    -0.132 C  
HETATM    2  C   UNL     1      -7.381   7.573  68.037  1.00  0.00    -0.096 C  
HETATM    3  C   UNL     1      -6.852   7.559  66.600  1.00  0.00    -0.066 C  
HETATM    4  O   UNL     1      -5.628   6.840  66.532  1.00  0.00    -0.017 OA 
HETATM    5  C   UNL     1      -7.922   6.840  65.734  1.00  0.00    -0.112 C  
HETATM    6  H   UNL     1      -5.299   6.831  65.641  1.00  0.00     0.000 HD 
HETATM    7  C   UNL     1      -8.983   3.210  69.035  1.00  0.00    -0.181 A  
HETATM    8  C   UNL     1      -8.945   6.299  66.765  1.00  0.00    -0.128 C  
HETATM    9  C   UNL     1      -9.405   2.794  70.288  1.00  0.00    -0.210 A  
HETATM   10  C   UNL     1      -8.539   4.912  67.284  1.00  0.00    -0.104 C  
HETATM   11  C   UNL     1      -9.874   3.737  71.197  1.00  0.00    -0.213 A  
HETATM   12  C   UNL     1      -9.042   4.564  68.668  1.00  0.00    -0.164 A  
HETATM   13  C   UNL     1      -9.916   5.104  70.879  1.00  0.00    -0.210 A  
HETATM   14  C   UNL     1      -9.496   5.541  69.597  1.00  0.00    -0.183 A  
HETATM   15  C   UNL     1      -9.634   6.966  69.124  1.00  0.00    -0.144 C  
ENDROOT
BRANCH   5  16
HETATM   16  C   UNL     1      -8.634   7.790  64.747  1.00  0.00     0.107 C  
BRANCH  16  17
HETATM   17  C   UNL     1      -8.156   9.244  64.770  1.00  0.00    -0.133 C  
BRANCH  17  18
HETATM   18  C   UNL     1      -9.088  10.241  65.469  1.00  0.00    -0.176 C  
HETATM   19  O   UNL     1      -8.364  11.432  65.774  1.00  0.00    -0.362 OA 
HETATM   20  H   UNL     1      -8.941  12.050  66.207  1.00  0.00     0.000 HD 
BRANCH  18  21
HETATM   21  C   UNL     1     -10.271  10.639  64.574  1.00  0.00    -0.399 C  
BRANCH  21  22
HETATM   22  C   UNL     1     -10.645  12.115  64.710  1.00  0.00    -0.335 C  
BRANCH  22  23
HETATM   23  C   UNL     1     -12.018  12.311  65.348  1.00  0.00    -0.395 C  
BRANCH  23  24
HETATM   24  C   UNL     1     -11.858  12.784  66.793  1.00  0.00    -0.452 C  
HETATM   25  C   UNL     1     -11.732  11.617  67.755  1.00  0.00    -0.315 C  
ENDBRANCH  23  24
ENDBRANCH  22  23
ENDBRANCH  21  22
ENDBRANCH  18  21
ENDBRANCH  17  18
ENDBRANCH  16  17
ENDBRANCH   5  16
BRANCH  13  26
HETATM   26  O   UNL     1     -10.442   5.839  71.918  1.00  0.00    -0.207 OA 
BRANCH  26  27
HETATM   27  C   UNL     1      -9.646   6.031  73.081  1.00  0.00    -0.143 C  
HETATM   28  C   UNL     1      -9.321   7.496  73.310  1.00  0.00    -0.219 C  
HETATM   29  O   UNL     1      -9.899   8.324  72.413  1.00  0.00    -0.249 OA 
HETATM   30  O   UNL     1      -8.614   7.899  74.223  1.00  0.00    -0.248 OA 
ENDBRANCH  26  27
ENDBRANCH  13  26
TORSDOF 9
ENDMDL
MODEL      168
REMARK 921   NORMALIZED FREE ENERGY PREDICTED BY IDOCK:   -3.04 KCAL/MOL
REMARK 922        TOTAL FREE ENERGY PREDICTED BY IDOCK:   -6.73 KCAL/MOL
REMARK 923 INTER-LIGAND FREE ENERGY PREDICTED BY IDOCK:   -5.88 KCAL/MOL
REMARK 924 INTRA-LIGAND FREE ENERGY PREDICTED BY IDOCK:   -0.85 KCAL/MOL
REMARK 927      BINDING AFFINITY PREDICTED BY RF-SCORE:    0.00 PKD
ROOT
HETATM    1  C   UNL     1      -8.065   9.998  68.992  1.00  0.00    -0.118 C  
HETATM    2  C   UNL     1      -8.307   9.378  67.616  1.00  0.00    -0.119 C  
HETATM    3  C   UNL     1      -7.766  10.436  66.650  1.00  0.00    -0.117 C  
HETATM    4  O   UNL     1      -8.631  10.572  65.532  1.00  0.00    -0.169 OA 
HETATM    5  C   UNL     1      -7.718  11.776  67.433  1.00  0.00    -0.151 C  
HETATM    6  H   UNL     1      -8.295  11.229  64.933  1.00  0.00     0.000 HD 
HETATM    7  C   UNL     1     -12.112  11.216  69.795  1.00  0.00    -0.414 A  
HETATM    8  C   UNL     1      -8.423  11.459  68.776  1.00  0.00    -0.089 C  
HETATM    9  C   UNL     1     -12.957  10.506  70.633  1.00  0.00    -0.362 A  
HETATM   10  C   UNL     1      -9.943  11.658  68.672  1.00  0.00    -0.192 C  
HETATM   11  C   UNL     1     -12.475   9.384  71.297  1.00  0.00    -0.416 A  
HETATM   12  C   UNL     1     -10.774  10.825  69.624  1.00  0.00    -0.261 A  
HETATM   13  C   UNL     1     -11.153   8.942  71.125  1.00  0.00    -0.285 A  
HETATM   14  C   UNL     1     -10.275   9.665  70.277  1.00  0.00    -0.333 A  
HETATM   15  C   UNL     1      -8.809   9.343  70.141  1.00  0.00    -0.249 C  
ENDROOT
BRANCH   5  16
HETATM   16  C   UNL     1      -6.277  12.261  67.708  1.00  0.00    -0.101 C  
BRANCH  16  17
HETATM   17  C   UNL     1      -6.124  13.248  68.868  1.00  0.00    -0.083 C  
BRANCH  17  18
HETATM   18  C   UNL     1      -6.963  14.528  68.768  1.00  0.00    -0.104 C  
HETATM   19  O   UNL     1      -7.800  14.636  69.918  1.00  0.00    -0.409 OA 
HETATM   20  H   UNL     1      -8.319  15.429  69.857  1.00  0.00     0.000 HD 
BRANCH  18  21
HETATM   21  C   UNL     1      -6.081  15.785  68.722  1.00  0.00    -0.101 C  
BRANCH  21  22
HETATM   22  C   UNL     1      -6.687  16.961  69.487  1.00  0.00    -0.169 C  
BRANCH  22  23
HETATM   23  C   UNL     1      -5.671  18.067  69.755  1.00  0.00    -0.238 C  
BRANCH  23  24
HETATM   24  C   UNL     1      -5.188  18.662  68.432  1.00  0.00    -0.174 C  
HETATM   25  C   UNL     1      -6.233  19.572  67.812  1.00  0.00    -0.229 C  
ENDBRANCH  23  24
ENDBRANCH  22  23
ENDBRANCH  21  22
ENDBRANCH  18  21
ENDBRANCH  17  18
ENDBRANCH  16  17
ENDBRANCH   5  16
BRANCH  13  26
HETATM   26  O   UNL     1     -10.895   7.834  71.900  1.00  0.00    -0.222 OA 
BRANCH  26  27
HETATM   27  C   UNL     1     -11.227   6.552  71.380  1.00  0.00    -0.283 C  
HETATM   28  C   UNL     1     -10.225   5.493  71.802  1.00  0.00    -0.202 C  
HETATM   29  O   UNL     1      -9.265   5.957  72.630  1.00  0.00    -0.138 OA 
HETATM   30  O   UNL     1     -10.279   4.326  71.439  1.00  0.00    -0.152 OA 
ENDBRANCH  26  27
ENDBRANCH  13  26
TORSDOF 9
ENDMDL
MODEL      169
REMARK 921   NORMALIZED FREE ENERGY PREDICTED BY IDOCK:   -3.03 KCAL/MOL
REMARK 922        TOTAL FREE ENERGY PREDICTED BY IDOCK:   -6.72 KCAL/MOL
REMARK 923 INTER-LIGAND FREE ENERGY PREDICTED BY IDOCK:   -5.81 KCAL/MOL
REMARK 924 INTRA-LIGAND FREE ENERGY PREDICTED BY IDOCK:   -0.91 KCAL/MOL
REMARK 927      BINDING AFFINITY PREDICTED BY RF-SCORE:    0.00 PKD
ROOT
HETATM    1  C   UNL     1      -8.644   9.116  67.762  1.00  0.00    -0.121 C  
HETATM    2  C   UNL     1      -8.450   9.723  66.373  1.00  0.00    -0.128 C  
HETATM    3  C   UNL     1      -9.588  10.744  66.271  1.00  0.00    -0.195 C  
HETATM    4  O   UNL     1     -10.169  10.706  64.975  1.00  0.00    -0.305 OA 
HETATM    5  C   UNL     1     -10.651  10.338  67.327  1.00  0.00    -0.324 C  
HETATM    6  H   UNL     1     -10.875  11.339  64.912  1.00  0.00     0.000 HD 
HETATM    7  C   UNL     1     -10.401   5.390  66.521  1.00  0.00    -0.320 A  
HETATM    8  C   UNL     1     -10.153   8.973  67.864  1.00  0.00    -0.246 C  
HETATM    9  C   UNL     1      -9.686   4.204  66.468  1.00  0.00    -0.228 A  
HETATM   10  C   UNL     1     -10.670   7.810  67.005  1.00  0.00    -0.316 C  
HETATM   11  C   UNL     1      -8.360   4.187  66.887  1.00  0.00    -0.100 A  
HETATM   12  C   UNL     1      -9.808   6.566  67.008  1.00  0.00    -0.200 A  
HETATM   13  C   UNL     1      -7.722   5.351  67.347  1.00  0.00    -0.096 A  
HETATM   14  C   UNL     1      -8.445   6.569  67.415  1.00  0.00    -0.119 A  
HETATM   15  C   UNL     1      -7.883   7.829  68.021  1.00  0.00    -0.124 C  
ENDROOT
BRANCH   5  16
HETATM   16  C   UNL     1     -10.755  11.346  68.493  1.00  0.00    -0.235 C  
BRANCH  16  17
HETATM   17  C   UNL     1     -11.910  12.344  68.400  1.00  0.00    -0.361 C  
BRANCH  17  18
HETATM   18  C   UNL     1     -11.556  13.724  67.831  1.00  0.00    -0.341 C  
HETATM   19  O   UNL     1     -12.092  14.739  68.678  1.00  0.00    -0.525 OA 
HETATM   20  H   UNL     1     -11.873  15.592  68.326  1.00  0.00     0.000 HD 
BRANCH  18  21
HETATM   21  C   UNL     1     -10.036  13.938  67.763  1.00  0.00    -0.241 C  
BRANCH  21  22
HETATM   22  C   UNL     1      -9.586  14.564  66.443  1.00  0.00    -0.324 C  
BRANCH  22  23
HETATM   23  C   UNL     1      -8.526  15.644  66.642  1.00  0.00    -0.323 C  
BRANCH  23  24
HETATM   24  C   UNL     1      -9.198  17.004  66.828  1.00  0.00    -0.270 C  
HETATM   25  C   UNL     1     -10.466  17.121  66.003  1.00  0.00    -0.271 C  
ENDBRANCH  23  24
ENDBRANCH  22  23
ENDBRANCH  21  22
ENDBRANCH  18  21
ENDBRANCH  17  18
ENDBRANCH  16  17
ENDBRANCH   5  16
BRANCH  13  26
HETATM   26  O   UNL     1      -6.426   5.087  67.731  1.00  0.00    -0.042 OA 
BRANCH  26  27
HETATM   27  C   UNL     1      -6.116   5.102  69.119  1.00  0.00    -0.021 C  
HETATM   28  C   UNL     1      -5.635   3.747  69.606  1.00  0.00    -0.017 C  
HETATM   29  O   UNL     1      -5.536   2.825  68.625  1.00  0.00    -0.012 OA 
HETATM   30  O   UNL     1      -5.353   3.507  70.772  1.00  0.00    -0.007 OA 
ENDBRANCH  26  27
ENDBRANCH  13  26
TORSDOF 9
ENDMDL
MODEL      170
REMARK 921   NORMALIZED FREE ENERGY PREDICTED BY IDOCK:   -3.03 KCAL/MOL
REMARK 922        TOTAL FREE ENERGY PREDICTED BY IDOCK:   -6.71 KCAL/MOL
REMARK 923 INTER-LIGAND FREE ENERGY PREDICTED BY IDOCK:   -5.53 KCAL/MOL
REMARK 924 INTRA-LIGAND FREE ENERGY PREDICTED BY IDOCK:   -1.18 KCAL/MOL
REMARK 927      BINDING AFFINITY PREDICTED BY RF-SCORE:    0.00 PKD
ROOT
HETATM    1  C   UNL     1      -9.015   7.248  69.729  1.00  0.00    -0.142 C  
HETATM    2  C   UNL     1      -8.055   8.199  69.014  1.00  0.00    -0.115 C  
HETATM    3  C   UNL     1      -8.773   9.549  69.092  1.00  0.00    -0.146 C  
HETATM    4  O   UNL     1      -8.646  10.246  67.860  1.00  0.00    -0.118 OA 
HETATM    5  C   UNL     1     -10.271   9.247  69.363  1.00  0.00    -0.214 C  
HETATM    6  H   UNL     1      -9.092  11.084  67.908  1.00  0.00     0.000 HD 
HETATM    7  C   UNL     1     -10.643   5.341  66.233  1.00  0.00    -0.308 A  
HETATM    8  C   UNL     1     -10.378   7.706  69.239  1.00  0.00    -0.218 C  
HETATM    9  C   UNL     1     -10.242   4.084  65.808  1.00  0.00    -0.059 A  
HETATM   10  C   UNL     1     -10.630   7.277  67.786  1.00  0.00    -0.289 C  
HETATM   11  C   UNL     1      -9.320   3.369  66.565  1.00  0.00    -0.173 A  
HETATM   12  C   UNL     1     -10.142   5.891  67.424  1.00  0.00    -0.201 A  
HETATM   13  C   UNL     1      -8.770   3.901  67.743  1.00  0.00    -0.103 A  
HETATM   14  C   UNL     1      -9.179   5.182  68.194  1.00  0.00    -0.136 A  
HETATM   15  C   UNL     1      -8.746   5.769  69.513  1.00  0.00    -0.111 C  
ENDROOT
BRANCH   5  16
HETATM   16  C   UNL     1     -10.727   9.685  70.772  1.00  0.00    -0.401 C  
BRANCH  16  17
HETATM   17  C   UNL     1     -12.048   9.082  71.254  1.00  0.00    -0.375 C  
BRANCH  17  18
HETATM   18  C   UNL     1     -11.945   8.110  72.437  1.00  0.00    -0.372 C  
HETATM   19  O   UNL     1     -12.446   6.833  72.045  1.00  0.00    -0.442 OA 
HETATM   20  H   UNL     1     -12.383   6.231  72.777  1.00  0.00     0.000 HD 
BRANCH  18  21
HETATM   21  C   UNL     1     -10.491   7.914  72.888  1.00  0.00    -0.422 C  
BRANCH  21  22
HETATM   22  C   UNL     1     -10.349   6.859  73.985  1.00  0.00    -0.355 C  
BRANCH  22  23
HETATM   23  C   UNL     1      -9.803   5.537  73.454  1.00  0.00    -0.172 C  
BRANCH  23  24
HETATM   24  C   UNL     1     -10.291   4.383  74.330  1.00  0.00    -0.296 C  
HETATM   25  C   UNL     1     -11.390   3.588  73.649  1.00  0.00    -0.212 C  
ENDBRANCH  23  24
ENDBRANCH  22  23
ENDBRANCH  21  22
ENDBRANCH  18  21
ENDBRANCH  17  18
ENDBRANCH  16  17
ENDBRANCH   5  16
BRANCH  13  26
HETATM   26  O   UNL     1      -7.906   3.007  68.335  1.00  0.00    -0.058 OA 
BRANCH  26  27
HETATM   27  C   UNL     1      -7.146   2.146  67.496  1.00  0.00    -0.047 C  
HETATM   28  C   UNL     1      -5.911   2.836  66.944  1.00  0.00    -0.024 C  
HETATM   29  O   UNL     1      -5.746   4.094  67.405  1.00  0.00    -0.020 OA 
HETATM   30  O   UNL     1      -5.131   2.308  66.165  1.00  0.00    -0.004 OA 
ENDBRANCH  26  27
ENDBRANCH  13  26
TORSDOF 9
ENDMDL
MODEL      171
REMARK 921   NORMALIZED FREE ENERGY PREDICTED BY IDOCK:   -3.00 KCAL/MOL
REMARK 922        TOTAL FREE ENERGY PREDICTED BY IDOCK:   -6.67 KCAL/MOL
REMARK 923 INTER-LIGAND FREE ENERGY PREDICTED BY IDOCK:   -5.37 KCAL/MOL
REMARK 924 INTRA-LIGAND FREE ENERGY PREDICTED BY IDOCK:   -1.30 KCAL/MOL
REMARK 927      BINDING AFFINITY PREDICTED BY RF-SCORE:    0.00 PKD
ROOT
HETATM    1  C   UNL     1      -8.902   9.002  68.610  1.00  0.00    -0.137 C  
HETATM    2  C   UNL     1      -8.067  10.206  69.043  1.00  0.00    -0.125 C  
HETATM    3  C   UNL     1      -6.653   9.841  68.580  1.00  0.00    -0.051 C  
HETATM    4  O   UNL     1      -5.701  10.206  69.568  1.00  0.00    -0.037 OA 
HETATM    5  C   UNL     1      -6.629   8.301  68.382  1.00  0.00    -0.060 C  
HETATM    6  H   UNL     1      -4.824   9.979  69.281  1.00  0.00     0.000 HD 
HETATM    7  C   UNL     1      -9.298   7.157  72.476  1.00  0.00    -0.161 A  
HETATM    8  C   UNL     1      -7.997   7.825  68.932  1.00  0.00    -0.124 C  
HETATM    9  C   UNL     1     -10.449   7.258  73.243  1.00  0.00    -0.416 A  
HETATM   10  C   UNL     1      -7.932   7.558  70.443  1.00  0.00    -0.102 C  
HETATM   11  C   UNL     1     -11.553   7.931  72.730  1.00  0.00    -0.387 A  
HETATM   12  C   UNL     1      -9.242   7.708  71.186  1.00  0.00    -0.153 A  
HETATM   13  C   UNL     1     -11.523   8.526  71.458  1.00  0.00    -0.287 A  
HETATM   14  C   UNL     1     -10.355   8.421  70.660  1.00  0.00    -0.224 A  
HETATM   15  C   UNL     1     -10.282   8.909  69.236  1.00  0.00    -0.214 C  
ENDROOT
BRANCH   5  16
HETATM   16  C   UNL     1      -6.495   7.887  66.900  1.00  0.00    -0.056 C  
BRANCH  16  17
HETATM   17  C   UNL     1      -6.375   9.040  65.902  1.00  0.00    -0.056 C  
BRANCH  17  18
HETATM   18  C   UNL     1      -7.652   9.385  65.125  1.00  0.00    -0.108 C  
HETATM   19  O   UNL     1      -7.591  10.743  64.692  1.00  0.00    -0.353 OA 
HETATM   20  H   UNL     1      -8.382  10.957  64.211  1.00  0.00     0.000 HD 
BRANCH  18  21
HETATM   21  C   UNL     1      -7.811   8.510  63.873  1.00  0.00    -0.149 C  
BRANCH  21  22
HETATM   22  C   UNL     1      -6.507   7.827  63.460  1.00  0.00    -0.062 C  
BRANCH  22  23
HETATM   23  C   UNL     1      -6.736   6.425  62.902  1.00  0.00    -0.038 C  
BRANCH  23  24
HETATM   24  C   UNL     1      -8.054   5.862  63.434  1.00  0.00    -0.095 C  
HETATM   25  C   UNL     1      -7.835   4.971  64.643  1.00  0.00    -0.093 C  
ENDBRANCH  23  24
ENDBRANCH  22  23
ENDBRANCH  21  22
ENDBRANCH  18  21
ENDBRANCH  17  18
ENDBRANCH  16  17
ENDBRANCH   5  16
BRANCH  13  26
HETATM   26  O   UNL     1     -12.733   9.107  71.154  1.00  0.00    -0.295 OA 
BRANCH  26  27
HETATM   27  C   UNL     1     -13.267  10.070  72.055  1.00  0.00    -0.443 C  
HETATM   28  C   UNL     1     -13.039  11.489  71.568  1.00  0.00    -0.326 C  
HETATM   29  O   UNL     1     -12.442  11.556  70.359  1.00  0.00    -0.290 OA 
HETATM   30  O   UNL     1     -13.371  12.484  72.199  1.00  0.00    -0.525 OA 
ENDBRANCH  26  27
ENDBRANCH  13  26
TORSDOF 9
ENDMDL
MODEL      172
REMARK 921   NORMALIZED FREE ENERGY PREDICTED BY IDOCK:   -3.00 KCAL/MOL
REMARK 922        TOTAL FREE ENERGY PREDICTED BY IDOCK:   -6.66 KCAL/MOL
REMARK 923 INTER-LIGAND FREE ENERGY PREDICTED BY IDOCK:   -5.92 KCAL/MOL
REMARK 924 INTRA-LIGAND FREE ENERGY PREDICTED BY IDOCK:   -0.74 KCAL/MOL
REMARK 927      BINDING AFFINITY PREDICTED BY RF-SCORE:    0.00 PKD
ROOT
HETATM    1  C   UNL     1      -9.700   9.244  69.079  1.00  0.00    -0.162 C  
HETATM    2  C   UNL     1      -8.380   9.715  68.470  1.00  0.00    -0.117 C  
HETATM    3  C   UNL     1      -8.825  10.583  67.289  1.00  0.00    -0.136 C  
HETATM    4  O   UNL     1      -7.999  10.339  66.158  1.00  0.00    -0.120 OA 
HETATM    5  C   UNL     1     -10.287  10.176  66.959  1.00  0.00    -0.303 C  
HETATM    6  H   UNL     1      -8.276  10.877  65.426  1.00  0.00     0.000 HD 
HETATM    7  C   UNL     1      -9.648   5.231  67.531  1.00  0.00    -0.150 A  
HETATM    8  C   UNL     1     -10.551   8.942  67.858  1.00  0.00    -0.244 C  
HETATM    9  C   UNL     1      -9.287   4.134  68.299  1.00  0.00    -0.214 A  
HETATM   10  C   UNL     1     -10.111   7.642  67.169  1.00  0.00    -0.323 C  
HETATM   11  C   UNL     1      -8.983   4.314  69.644  1.00  0.00    -0.158 A  
HETATM   12  C   UNL     1      -9.727   6.512  68.100  1.00  0.00    -0.126 A  
HETATM   13  C   UNL     1      -9.017   5.585  70.240  1.00  0.00    -0.137 A  
HETATM   14  C   UNL     1      -9.394   6.713  69.468  1.00  0.00    -0.145 A  
HETATM   15  C   UNL     1      -9.589   8.087  70.056  1.00  0.00    -0.171 C  
ENDROOT
BRANCH   5  16
HETATM   16  C   UNL     1     -11.309  11.286  67.289  1.00  0.00    -0.329 C  
BRANCH  16  17
HETATM   17  C   UNL     1     -10.819  12.719  67.073  1.00  0.00    -0.282 C  
BRANCH  17  18
HETATM   18  C   UNL     1     -11.237  13.735  68.144  1.00  0.00    -0.271 C  
HETATM   19  O   UNL     1     -12.146  13.117  69.053  1.00  0.00    -0.291 OA 
HETATM   20  H   UNL     1     -12.405  13.746  69.716  1.00  0.00     0.000 HD 
BRANCH  18  21
HETATM   21  C   UNL     1     -10.034  14.228  68.961  1.00  0.00    -0.104 C  
BRANCH  21  22
HETATM   22  C   UNL     1     -10.314  15.542  69.691  1.00  0.00    -0.286 C  
BRANCH  22  23
HETATM   23  C   UNL     1     -10.568  15.337  71.182  1.00  0.00     0.176 C  
BRANCH  23  24
HETATM   24  C   UNL     1     -11.875  16.018  71.586  1.00  0.00    -0.582 C  
HETATM   25  C   UNL     1     -13.075  15.366  70.925  1.00  0.00    -0.528 C  
ENDBRANCH  23  24
ENDBRANCH  22  23
ENDBRANCH  21  22
ENDBRANCH  18  21
ENDBRANCH  17  18
ENDBRANCH  16  17
ENDBRANCH   5  16
BRANCH  13  26
HETATM   26  O   UNL     1      -8.708   5.514  71.580  1.00  0.00    -0.133 OA 
BRANCH  26  27
HETATM   27  C   UNL     1      -9.202   4.412  72.331  1.00  0.00    -0.121 C  
HETATM   28  C   UNL     1     -10.457   4.772  73.106  1.00  0.00    -0.201 C  
HETATM   29  O   UNL     1     -10.888   6.031  72.880  1.00  0.00    -0.232 OA 
HETATM   30  O   UNL     1     -11.035   3.998  73.857  1.00  0.00    -0.235 OA 
ENDBRANCH  26  27
ENDBRANCH  13  26
TORSDOF 9
ENDMDL
MODEL      173
REMARK 921   NORMALIZED FREE ENERGY PREDICTED BY IDOCK:   -2.96 KCAL/MOL
REMARK 922        TOTAL FREE ENERGY PREDICTED BY IDOCK:   -6.61 KCAL/MOL
REMARK 923 INTER-LIGAND FREE ENERGY PREDICTED BY IDOCK:   -5.76 KCAL/MOL
REMARK 924 INTRA-LIGAND FREE ENERGY PREDICTED BY IDOCK:   -0.85 KCAL/MOL
REMARK 927      BINDING AFFINITY PREDICTED BY RF-SCORE:    0.00 PKD
ROOT
HETATM    1  C   UNL     1      -9.709   8.207  67.906  1.00  0.00    -0.191 C  
HETATM    2  C   UNL     1      -8.451   8.732  68.598  1.00  0.00    -0.129 C  
HETATM    3  C   UNL     1      -8.724  10.233  68.734  1.00  0.00    -0.144 C  
HETATM    4  O   UNL     1      -7.549  10.977  68.440  1.00  0.00    -0.095 OA 
HETATM    5  C   UNL     1      -9.830  10.585  67.704  1.00  0.00    -0.192 C  
HETATM    6  H   UNL     1      -7.719  11.908  68.525  1.00  0.00     0.000 HD 
HETATM    7  C   UNL     1      -8.048   7.751  63.964  1.00  0.00    -0.062 A  
HETATM    8  C   UNL     1     -10.009   9.285  66.879  1.00  0.00    -0.298 C  
HETATM    9  C   UNL     1      -7.657   6.524  63.451  1.00  0.00    -0.085 A  
HETATM   10  C   UNL     1      -9.029   9.231  65.698  1.00  0.00    -0.243 C  
HETATM   11  C   UNL     1      -7.858   5.373  64.206  1.00  0.00    -0.104 A  
HETATM   12  C   UNL     1      -8.659   7.841  65.225  1.00  0.00    -0.065 A  
HETATM   13  C   UNL     1      -8.433   5.428  65.486  1.00  0.00    -0.141 A  
HETATM   14  C   UNL     1      -8.846   6.676  66.018  1.00  0.00    -0.151 A  
HETATM   15  C   UNL     1      -9.594   6.811  67.320  1.00  0.00    -0.165 C  
ENDROOT
BRANCH   5  16
HETATM   16  C   UNL     1     -11.172  10.965  68.368  1.00  0.00    -0.347 C  
BRANCH  16  17
HETATM   17  C   UNL     1     -11.946  12.097  67.689  1.00  0.00    -0.190 C  
BRANCH  17  18
HETATM   18  C   UNL     1     -11.330  13.496  67.819  1.00  0.00    -0.296 C  
HETATM   19  O   UNL     1      -9.956  13.446  67.438  1.00  0.00    -0.225 OA 
HETATM   20  H   UNL     1      -9.575  14.312  67.519  1.00  0.00     0.000 HD 
BRANCH  18  21
HETATM   21  C   UNL     1     -12.025  14.512  66.901  1.00  0.00    -0.371 C  
BRANCH  21  22
HETATM   22  C   UNL     1     -11.133  14.974  65.749  1.00  0.00    -0.346 C  
BRANCH  22  23
HETATM   23  C   UNL     1     -11.630  14.481  64.393  1.00  0.00    -0.325 C  
BRANCH  23  24
HETATM   24  C   UNL     1     -11.198  13.031  64.177  1.00  0.00    -0.439 C  
HETATM   25  C   UNL     1     -12.349  12.170  63.686  1.00  0.00    -0.673 C  
ENDBRANCH  23  24
ENDBRANCH  22  23
ENDBRANCH  21  22
ENDBRANCH  18  21
ENDBRANCH  17  18
ENDBRANCH  16  17
ENDBRANCH   5  16
BRANCH  13  26
HETATM   26  O   UNL     1      -8.557   4.169  66.029  1.00  0.00    -0.112 OA 
BRANCH  26  27
HETATM   27  C   UNL     1      -7.637   3.775  67.040  1.00  0.00    -0.080 C  
HETATM   28  C   UNL     1      -8.280   2.856  68.063  1.00  0.00    -0.077 C  
HETATM   29  O   UNL     1      -9.563   2.546  67.779  1.00  0.00    -0.168 OA 
HETATM   30  O   UNL     1      -7.697   2.425  69.048  1.00  0.00    -0.043 OA 
ENDBRANCH  26  27
ENDBRANCH  13  26
TORSDOF 9
ENDMDL
MODEL      174
REMARK 921   NORMALIZED FREE ENERGY PREDICTED BY IDOCK:   -2.95 KCAL/MOL
REMARK 922        TOTAL FREE ENERGY PREDICTED BY IDOCK:   -6.60 KCAL/MOL
REMARK 923 INTER-LIGAND FREE ENERGY PREDICTED BY IDOCK:   -6.80 KCAL/MOL
REMARK 924 INTRA-LIGAND FREE ENERGY PREDICTED BY IDOCK:    0.20 KCAL/MOL
REMARK 927      BINDING AFFINITY PREDICTED BY RF-SCORE:    0.00 PKD
ROOT
HETATM    1  C   UNL     1      -9.532  11.552  67.997  1.00  0.00    -0.181 C  
HETATM    2  C   UNL     1      -8.613  11.144  69.148  1.00  0.00     0.045 C  
HETATM    3  C   UNL     1      -9.048   9.708  69.455  1.00  0.00    -0.199 C  
HETATM    4  O   UNL     1      -9.089   9.496  70.860  1.00  0.00    -0.230 OA 
HETATM    5  C   UNL     1     -10.472   9.533  68.863  1.00  0.00    -0.235 C  
HETATM    6  H   UNL     1      -9.359   8.605  71.050  1.00  0.00     0.000 HD 
HETATM    7  C   UNL     1     -12.228  14.023  70.263  1.00  0.00    -0.430 A  
HETATM    8  C   UNL     1     -10.870  10.958  68.402  1.00  0.00    -0.266 C  
HETATM    9  C   UNL     1     -12.161  15.407  70.259  1.00  0.00    -0.402 A  
HETATM   10  C   UNL     1     -11.521  11.755  69.542  1.00  0.00    -0.363 C  
HETATM   11  C   UNL     1     -11.227  16.043  69.448  1.00  0.00    -0.349 A  
HETATM   12  C   UNL     1     -11.378  13.259  69.446  1.00  0.00    -0.280 A  
HETATM   13  C   UNL     1     -10.337  15.312  68.644  1.00  0.00    -0.232 A  
HETATM   14  C   UNL     1     -10.402  13.895  68.631  1.00  0.00    -0.237 A  
HETATM   15  C   UNL     1      -9.581  13.040  67.700  1.00  0.00    -0.206 C  
ENDROOT
BRANCH   5  16
HETATM   16  C   UNL     1     -10.508   8.570  67.656  1.00  0.00    -0.308 C  
BRANCH  16  17
HETATM   17  C   UNL     1     -10.347   7.086  67.993  1.00  0.00    -0.234 C  
BRANCH  17  18
HETATM   18  C   UNL     1     -10.130   6.759  69.476  1.00  0.00    -0.178 C  
HETATM   19  O   UNL     1     -11.389   6.483  70.089  1.00  0.00    -0.341 OA 
HETATM   20  H   UNL     1     -11.255   6.280  71.007  1.00  0.00     0.000 HD 
BRANCH  18  21
HETATM   21  C   UNL     1      -9.247   5.517  69.662  1.00  0.00    -0.163 C  
BRANCH  21  22
HETATM   22  C   UNL     1      -9.691   4.340  68.794  1.00  0.00    -0.184 C  
BRANCH  22  23
HETATM   23  C   UNL     1      -8.838   4.188  67.537  1.00  0.00    -0.126 C  
BRANCH  23  24
HETATM   24  C   UNL     1      -9.709   3.726  66.369  1.00  0.00    -0.142 C  
HETATM   25  C   UNL     1      -9.632   4.687  65.198  1.00  0.00    -0.139 C  
ENDBRANCH  23  24
ENDBRANCH  22  23
ENDBRANCH  21  22
ENDBRANCH  18  21
ENDBRANCH  17  18
ENDBRANCH  16  17
ENDBRANCH   5  16
BRANCH  13  26
HETATM   26  O   UNL     1      -9.527  16.150  67.911  1.00  0.00    -0.212 OA 
BRANCH  26  27
HETATM   27  C   UNL     1     -10.131  17.229  67.208  1.00  0.00    -0.300 C  
HETATM   28  C   UNL     1      -9.977  18.545  67.949  1.00  0.00    -0.346 C  
HETATM   29  O   UNL     1      -9.249  18.445  69.082  1.00  0.00    -0.134 OA 
HETATM   30  O   UNL     1     -10.454  19.602  67.560  1.00  0.00    -0.422 OA 
ENDBRANCH  26  27
ENDBRANCH  13  26
TORSDOF 9
ENDMDL
MODEL      175
REMARK 921   NORMALIZED FREE ENERGY PREDICTED BY IDOCK:   -2.81 KCAL/MOL
REMARK 922        TOTAL FREE ENERGY PREDICTED BY IDOCK:   -6.37 KCAL/MOL
REMARK 923 INTER-LIGAND FREE ENERGY PREDICTED BY IDOCK:   -5.68 KCAL/MOL
REMARK 924 INTRA-LIGAND FREE ENERGY PREDICTED BY IDOCK:   -0.69 KCAL/MOL
REMARK 927      BINDING AFFINITY PREDICTED BY RF-SCORE:    0.00 PKD
ROOT
HETATM    1  C   UNL     1      -9.402  12.313  67.462  1.00  0.00    -0.183 C  
HETATM    2  C   UNL     1     -10.420  12.124  68.587  1.00  0.00    -0.237 C  
HETATM    3  C   UNL     1     -10.451  10.605  68.783  1.00  0.00    -0.194 C  
HETATM    4  O   UNL     1     -11.785  10.160  68.980  1.00  0.00    -0.490 OA 
HETATM    5  C   UNL     1      -9.881   9.972  67.485  1.00  0.00    -0.211 C  
HETATM    6  H   UNL     1     -11.804   9.218  69.102  1.00  0.00     0.000 HD 
HETATM    7  C   UNL     1     -12.197  13.062  64.278  1.00  0.00    -0.464 A  
HETATM    8  C   UNL     1      -9.723  11.170  66.514  1.00  0.00    -0.228 C  
HETATM    9  C   UNL     1     -12.465  14.335  63.799  1.00  0.00     0.072 A  
HETATM   10  C   UNL     1     -11.019  11.432  65.732  1.00  0.00    -0.256 C  
HETATM   11  C   UNL     1     -11.767  15.420  64.316  1.00  0.00    -0.212 A  
HETATM   12  C   UNL     1     -11.218  12.857  65.265  1.00  0.00    -0.319 A  
HETATM   13  C   UNL     1     -10.806  15.259  65.328  1.00  0.00    -0.403 A  
HETATM   14  C   UNL     1     -10.515  13.961  65.820  1.00  0.00    -0.313 A  
HETATM   15  C   UNL     1      -9.408  13.681  66.804  1.00  0.00    -0.269 C  
ENDROOT
BRANCH   5  16
HETATM   16  C   UNL     1      -8.509   9.295  67.698  1.00  0.00    -0.116 C  
BRANCH  16  17
HETATM   17  C   UNL     1      -8.090   8.299  66.615  1.00  0.00    -0.102 C  
BRANCH  17  18
HETATM   18  C   UNL     1      -7.450   6.999  67.117  1.00  0.00    -0.095 C  
HETATM   19  O   UNL     1      -7.564   6.932  68.538  1.00  0.00    -0.106 OA 
HETATM   20  H   UNL     1      -7.168   6.128  68.848  1.00  0.00     0.000 HD 
BRANCH  18  21
HETATM   21  C   UNL     1      -8.150   5.759  66.541  1.00  0.00    -0.102 C  
BRANCH  21  22
HETATM   22  C   UNL     1      -7.221   4.901  65.683  1.00  0.00    -0.072 C  
BRANCH  22  23
HETATM   23  C   UNL     1      -7.981   3.865  64.859  1.00  0.00    -0.090 C  
BRANCH  23  24
HETATM   24  C   UNL     1      -7.853   2.487  65.509  1.00  0.00    -0.078 C  
HETATM   25  C   UNL     1      -8.829   1.491  64.909  1.00  0.00    -0.114 C  
ENDBRANCH  23  24
ENDBRANCH  22  23
ENDBRANCH  21  22
ENDBRANCH  18  21
ENDBRANCH  17  18
ENDBRANCH  16  17
ENDBRANCH   5  16
BRANCH  13  26
HETATM   26  O   UNL     1     -10.228  16.464  65.661  1.00  0.00    -0.432 OA 
BRANCH  26  27
HETATM   27  C   UNL     1     -10.693  17.138  66.823  1.00  0.00    -0.097 C  
HETATM   28  C   UNL     1     -10.936  18.614  66.562  1.00  0.00     0.121 C  
HETATM   29  O   UNL     1     -10.729  18.976  65.278  1.00  0.00    -0.500 OA 
HETATM   30  O   UNL     1     -11.295  19.405  67.424  1.00  0.00    -0.195 OA 
ENDBRANCH  26  27
ENDBRANCH  13  26
TORSDOF 9
ENDMDL
MODEL      176
REMARK 921   NORMALIZED FREE ENERGY PREDICTED BY IDOCK:   -2.78 KCAL/MOL
REMARK 922        TOTAL FREE ENERGY PREDICTED BY IDOCK:   -6.33 KCAL/MOL
REMARK 923 INTER-LIGAND FREE ENERGY PREDICTED BY IDOCK:   -5.42 KCAL/MOL
REMARK 924 INTRA-LIGAND FREE ENERGY PREDICTED BY IDOCK:   -0.91 KCAL/MOL
REMARK 927      BINDING AFFINITY PREDICTED BY RF-SCORE:    0.00 PKD
ROOT
HETATM    1  C   UNL     1      -8.616  11.042  68.187  1.00  0.00    -0.140 C  
HETATM    2  C   UNL     1      -9.790  10.948  69.162  1.00  0.00    -0.164 C  
HETATM    3  C   UNL     1     -10.165   9.464  69.122  1.00  0.00    -0.202 C  
HETATM    4  O   UNL     1     -11.578   9.312  69.115  1.00  0.00    -0.313 OA 
HETATM    5  C   UNL     1      -9.575   8.886  67.807  1.00  0.00    -0.176 C  
HETATM    6  H   UNL     1     -11.810   8.391  69.090  1.00  0.00     0.000 HD 
HETATM    7  C   UNL     1     -10.748  12.798  64.889  1.00  0.00    -0.329 A  
HETATM    8  C   UNL     1      -9.043  10.129  67.050  1.00  0.00    -0.155 C  
HETATM    9  C   UNL     1     -10.677  14.148  64.583  1.00  0.00    -0.408 A  
HETATM   10  C   UNL     1     -10.140  10.774  66.190  1.00  0.00    -0.297 C  
HETATM   11  C   UNL     1      -9.840  14.974  65.326  1.00  0.00    -0.249 A  
HETATM   12  C   UNL     1      -9.973  12.255  65.926  1.00  0.00    -0.272 A  
HETATM   13  C   UNL     1      -9.077  14.473  66.393  1.00  0.00    -0.185 A  
HETATM   14  C   UNL     1      -9.132  13.092  66.710  1.00  0.00    -0.212 A  
HETATM   15  C   UNL     1      -8.248  12.447  67.746  1.00  0.00    -0.163 C  
ENDROOT
BRANCH   5  16
HETATM   16  C   UNL     1      -8.417   7.895  68.052  1.00  0.00    -0.123 C  
BRANCH  16  17
HETATM   17  C   UNL     1      -7.230   8.019  67.095  1.00  0.00    -0.087 C  
BRANCH  17  18
HETATM   18  C   UNL     1      -7.388   7.315  65.742  1.00  0.00    -0.075 C  
HETATM   19  O   UNL     1      -6.353   7.745  64.859  1.00  0.00    -0.044 OA 
HETATM   20  H   UNL     1      -6.451   7.308  64.022  1.00  0.00     0.000 HD 
BRANCH  18  21
HETATM   21  C   UNL     1      -7.272   5.789  65.877  1.00  0.00    -0.075 C  
BRANCH  21  22
HETATM   22  C   UNL     1      -7.131   5.085  64.527  1.00  0.00    -0.054 C  
BRANCH  22  23
HETATM   23  C   UNL     1      -8.441   4.459  64.058  1.00  0.00    -0.116 C  
BRANCH  23  24
HETATM   24  C   UNL     1      -9.378   4.256  65.249  1.00  0.00    -0.165 C  
HETATM   25  C   UNL     1     -10.828   4.157  64.812  1.00  0.00    -0.118 C  
ENDBRANCH  23  24
ENDBRANCH  22  23
ENDBRANCH  21  22
ENDBRANCH  18  21
ENDBRANCH  17  18
ENDBRANCH  16  17
ENDBRANCH   5  16
BRANCH  13  26
HETATM   26  O   UNL     1      -8.307  15.464  66.961  1.00  0.00    -0.199 OA 
BRANCH  26  27
HETATM   27  C   UNL     1      -8.840  16.781  67.024  1.00  0.00    -0.207 C  
HETATM   28  C   UNL     1      -9.409  17.096  68.396  1.00  0.00    -0.273 C  
HETATM   29  O   UNL     1      -9.240  16.101  69.292  1.00  0.00    -0.255 OA 
HETATM   30  O   UNL     1      -9.961  18.152  68.674  1.00  0.00    -0.364 OA 
ENDBRANCH  26  27
ENDBRANCH  13  26
TORSDOF 9
ENDMDL
MODEL      177
REMARK 921   NORMALIZED FREE ENERGY PREDICTED BY IDOCK:   -2.71 KCAL/MOL
REMARK 922        TOTAL FREE ENERGY PREDICTED BY IDOCK:   -6.23 KCAL/MOL
REMARK 923 INTER-LIGAND FREE ENERGY PREDICTED BY IDOCK:   -5.32 KCAL/MOL
REMARK 924 INTRA-LIGAND FREE ENERGY PREDICTED BY IDOCK:   -0.90 KCAL/MOL
REMARK 927      BINDING AFFINITY PREDICTED BY RF-SCORE:    0.00 PKD
ROOT
HETATM    1  C   UNL     1      -6.931   9.493  67.838  1.00  0.00    -0.079 C  
HETATM    2  C   UNL     1      -6.316   9.272  66.456  1.00  0.00    -0.066 C  
HETATM    3  C   UNL     1      -6.441  10.646  65.790  1.00  0.00    -0.107 C  
HETATM    4  O   UNL     1      -6.835  10.501  64.433  1.00  0.00    -0.328 OA 
HETATM    5  C   UNL     1      -7.537  11.424  66.567  1.00  0.00    -0.080 C  
HETATM    6  H   UNL     1      -6.912  11.354  64.020  1.00  0.00     0.000 HD 
HETATM    7  C   UNL     1     -10.707   7.568  67.097  1.00  0.00    -0.379 A  
HETATM    8  C   UNL     1      -8.132  10.374  67.540  1.00  0.00    -0.107 C  
HETATM    9  C   UNL     1     -10.996   6.287  67.540  1.00  0.00    -0.444 A  
HETATM   10  C   UNL     1      -9.268   9.578  66.879  1.00  0.00    -0.174 C  
HETATM   11  C   UNL     1     -10.061   5.603  68.309  1.00  0.00    -0.217 A  
HETATM   12  C   UNL     1      -9.491   8.187  67.431  1.00  0.00    -0.191 A  
HETATM   13  C   UNL     1      -8.819   6.175  68.633  1.00  0.00    -0.114 A  
HETATM   14  C   UNL     1      -8.515   7.489  68.194  1.00  0.00    -0.124 A  
HETATM   15  C   UNL     1      -7.269   8.229  68.608  1.00  0.00    -0.087 C  
ENDROOT
BRANCH   5  16
HETATM   16  C   UNL     1      -6.973  12.614  67.373  1.00  0.00    -0.143 C  
BRANCH  16  17
HETATM   17  C   UNL     1      -7.867  13.128  68.503  1.00  0.00    -0.105 C  
BRANCH  17  18
HETATM   18  C   UNL     1      -9.058  13.992  68.069  1.00  0.00    -0.190 C  
HETATM   19  O   UNL     1     -10.051  13.979  69.094  1.00  0.00    -0.416 OA 
HETATM   20  H   UNL     1     -10.789  14.513  68.825  1.00  0.00     0.000 HD 
BRANCH  18  21
HETATM   21  C   UNL     1      -8.649  15.455  67.845  1.00  0.00    -0.156 C  
BRANCH  21  22
HETATM   22  C   UNL     1      -9.528  16.439  68.617  1.00  0.00    -0.239 C  
BRANCH  22  23
HETATM   23  C   UNL     1     -10.228  17.438  67.700  1.00  0.00    -0.342 C  
BRANCH  23  24
HETATM   24  C   UNL     1     -10.318  18.801  68.387  1.00  0.00    -0.360 C  
HETATM   25  C   UNL     1      -8.968  19.493  68.439  1.00  0.00    -0.397 C  
ENDBRANCH  23  24
ENDBRANCH  22  23
ENDBRANCH  21  22
ENDBRANCH  18  21
ENDBRANCH  17  18
ENDBRANCH  16  17
ENDBRANCH   5  16
BRANCH  13  26
HETATM   26  O   UNL     1      -8.073   5.328  69.421  1.00  0.00    -0.089 OA 
BRANCH  26  27
HETATM   27  C   UNL     1      -8.756   4.463  70.319  1.00  0.00    -0.081 C  
HETATM   28  C   UNL     1      -8.406   4.759  71.767  1.00  0.00    -0.114 C  
HETATM   29  O   UNL     1      -7.578   5.814  71.917  1.00  0.00    -0.093 OA 
HETATM   30  O   UNL     1      -8.837   4.115  72.713  1.00  0.00    -0.102 OA 
ENDBRANCH  26  27
ENDBRANCH  13  26
TORSDOF 9
ENDMDL
MODEL      178
REMARK 921   NORMALIZED FREE ENERGY PREDICTED BY IDOCK:   -2.70 KCAL/MOL
REMARK 922        TOTAL FREE ENERGY PREDICTED BY IDOCK:   -6.22 KCAL/MOL
REMARK 923 INTER-LIGAND FREE ENERGY PREDICTED BY IDOCK:   -5.13 KCAL/MOL
REMARK 924 INTRA-LIGAND FREE ENERGY PREDICTED BY IDOCK:   -1.08 KCAL/MOL
REMARK 927      BINDING AFFINITY PREDICTED BY RF-SCORE:    0.00 PKD
ROOT
HETATM    1  C   UNL     1      -7.613   8.992  67.727  1.00  0.00    -0.093 C  
HETATM    2  C   UNL     1      -6.888   9.154  66.391  1.00  0.00    -0.079 C  
HETATM    3  C   UNL     1      -7.468  10.456  65.830  1.00  0.00    -0.139 C  
HETATM    4  O   UNL     1      -7.712  10.327  64.437  1.00  0.00    -0.174 OA 
HETATM    5  C   UNL     1      -8.810  10.705  66.569  1.00  0.00    -0.160 C  
HETATM    6  H   UNL     1      -8.071  11.135  64.089  1.00  0.00     0.000 HD 
HETATM    7  C   UNL     1     -10.391   5.941  66.507  1.00  0.00    -0.237 A  
HETATM    8  C   UNL     1      -9.034   9.415  67.398  1.00  0.00    -0.134 C  
HETATM    9  C   UNL     1     -10.219   4.601  66.818  1.00  0.00    -0.226 A  
HETATM   10  C   UNL     1      -9.768   8.343  66.579  1.00  0.00    -0.330 C  
HETATM   11  C   UNL     1      -9.140   4.217  67.607  1.00  0.00    -0.164 A  
HETATM   12  C   UNL     1      -9.500   6.912  66.994  1.00  0.00    -0.183 A  
HETATM   13  C   UNL     1      -8.209   5.155  68.083  1.00  0.00    -0.097 A  
HETATM   14  C   UNL     1      -8.379   6.530  67.780  1.00  0.00    -0.119 A  
HETATM   15  C   UNL     1      -7.510   7.616  68.360  1.00  0.00    -0.104 C  
ENDROOT
BRANCH   5  16
HETATM   16  C   UNL     1      -8.759  11.925  67.515  1.00  0.00    -0.163 C  
BRANCH  16  17
HETATM   17  C   UNL     1     -10.116  12.501  67.923  1.00  0.00    -0.214 C  
BRANCH  17  18
HETATM   18  C   UNL     1     -11.314  12.040  67.083  1.00  0.00    -0.333 C  
HETATM   19  O   UNL     1     -12.035  11.036  67.796  1.00  0.00    -0.661 OA 
HETATM   20  H   UNL     1     -12.777  10.751  67.276  1.00  0.00     0.000 HD 
BRANCH  18  21
HETATM   21  C   UNL     1     -12.290  13.193  66.802  1.00  0.00    -0.173 C  
BRANCH  21  22
HETATM   22  C   UNL     1     -12.270  13.641  65.341  1.00  0.00    -0.474 C  
BRANCH  22  23
HETATM   23  C   UNL     1     -11.275  14.771  65.092  1.00  0.00    -0.384 C  
BRANCH  23  24
HETATM   24  C   UNL     1      -9.913  14.191  64.708  1.00  0.00    -0.043 C  
HETATM   25  C   UNL     1     -10.049  12.830  64.051  1.00  0.00    -0.226 C  
ENDBRANCH  23  24
ENDBRANCH  22  23
ENDBRANCH  21  22
ENDBRANCH  18  21
ENDBRANCH  17  18
ENDBRANCH  16  17
ENDBRANCH   5  16
BRANCH  13  26
HETATM   26  O   UNL     1      -7.248   4.549  68.862  1.00  0.00    -0.052 OA 
BRANCH  26  27
HETATM   27  C   UNL     1      -7.316   4.718  70.272  1.00  0.00    -0.051 C  
HETATM   28  C   UNL     1      -7.375   3.387  71.000  1.00  0.00    -0.033 C  
HETATM   29  O   UNL     1      -7.286   2.319  70.179  1.00  0.00    -0.036 OA 
HETATM   30  O   UNL     1      -7.482   3.283  72.214  1.00  0.00    -0.053 OA 
ENDBRANCH  26  27
ENDBRANCH  13  26
TORSDOF 9
ENDMDL
MODEL      179
REMARK 921   NORMALIZED FREE ENERGY PREDICTED BY IDOCK:   -2.70 KCAL/MOL
REMARK 922        TOTAL FREE ENERGY PREDICTED BY IDOCK:   -6.21 KCAL/MOL
REMARK 923 INTER-LIGAND FREE ENERGY PREDICTED BY IDOCK:   -5.39 KCAL/MOL
REMARK 924 INTRA-LIGAND FREE ENERGY PREDICTED BY IDOCK:   -0.83 KCAL/MOL
REMARK 927      BINDING AFFINITY PREDICTED BY RF-SCORE:    0.00 PKD
ROOT
HETATM    1  C   UNL     1     -11.462   8.259  70.525  1.00  0.00    -0.180 C  
HETATM    2  C   UNL     1     -12.321   9.381  71.106  1.00  0.00    -0.386 C  
HETATM    3  C   UNL     1     -12.065  10.553  70.154  1.00  0.00    -0.300 C  
HETATM    4  O   UNL     1     -11.927  11.763  70.886  1.00  0.00    -0.402 OA 
HETATM    5  C   UNL     1     -10.738  10.244  69.409  1.00  0.00    -0.272 C  
HETATM    6  H   UNL     1     -11.768  12.489  70.294  1.00  0.00     0.000 HD 
HETATM    7  C   UNL     1      -8.254   8.452  73.385  1.00  0.00    -0.174 A  
HETATM    8  C   UNL     1     -10.188   8.981  70.117  1.00  0.00    -0.224 C  
HETATM    9  C   UNL     1      -8.127   7.554  74.433  1.00  0.00    -0.232 A  
HETATM   10  C   UNL     1      -9.332   9.350  71.338  1.00  0.00     0.041 C  
HETATM   11  C   UNL     1      -9.033   6.504  74.545  1.00  0.00    -0.197 A  
HETATM   12  C   UNL     1      -9.272   8.303  72.429  1.00  0.00    -0.326 A  
HETATM   13  C   UNL     1     -10.085   6.343  73.629  1.00  0.00    -0.241 A  
HETATM   14  C   UNL     1     -10.220   7.249  72.547  1.00  0.00    -0.236 A  
HETATM   15  C   UNL     1     -11.232   7.073  71.444  1.00  0.00    -0.283 C  
ENDROOT
BRANCH   5  16
HETATM   16  C   UNL     1     -10.946   9.946  67.908  1.00  0.00    -0.281 C  
BRANCH  16  17
HETATM   17  C   UNL     1      -9.674   9.926  67.057  1.00  0.00    -0.230 C  
BRANCH  17  18
HETATM   18  C   UNL     1      -9.092   8.539  66.763  1.00  0.00    -0.151 C  
HETATM   19  O   UNL     1      -9.424   8.159  65.428  1.00  0.00    -0.384 OA 
HETATM   20  H   UNL     1      -9.063   7.300  65.245  1.00  0.00     0.000 HD 
BRANCH  18  21
HETATM   21  C   UNL     1      -7.560   8.528  66.875  1.00  0.00    -0.091 C  
BRANCH  21  22
HETATM   22  C   UNL     1      -6.868   8.490  65.512  1.00  0.00    -0.071 C  
BRANCH  22  23
HETATM   23  C   UNL     1      -6.471   9.880  65.022  1.00  0.00    -0.106 C  
BRANCH  23  24
HETATM   24  C   UNL     1      -5.569   9.761  63.794  1.00  0.00    -0.087 C  
HETATM   25  C   UNL     1      -6.210  10.381  62.565  1.00  0.00    -0.139 C  
ENDBRANCH  23  24
ENDBRANCH  22  23
ENDBRANCH  21  22
ENDBRANCH  18  21
ENDBRANCH  17  18
ENDBRANCH  16  17
ENDBRANCH   5  16
BRANCH  13  26
HETATM   26  O   UNL     1     -10.832   5.224  73.923  1.00  0.00    -0.287 OA 
BRANCH  26  27
HETATM   27  C   UNL     1     -10.163   3.974  74.034  1.00  0.00    -0.167 C  
HETATM   28  C   UNL     1     -11.067   2.812  73.663  1.00  0.00    -0.222 C  
HETATM   29  O   UNL     1     -12.292   3.195  73.242  1.00  0.00     0.341 OA 
HETATM   30  O   UNL     1     -10.724   1.640  73.726  1.00  0.00    -0.098 OA 
ENDBRANCH  26  27
ENDBRANCH  13  26
TORSDOF 9
ENDMDL
MODEL      180
REMARK 921   NORMALIZED FREE ENERGY PREDICTED BY IDOCK:   -2.70 KCAL/MOL
REMARK 922        TOTAL FREE ENERGY PREDICTED BY IDOCK:   -6.21 KCAL/MOL
REMARK 923 INTER-LIGAND FREE ENERGY PREDICTED BY IDOCK:   -5.29 KCAL/MOL
REMARK 924 INTRA-LIGAND FREE ENERGY PREDICTED BY IDOCK:   -0.91 KCAL/MOL
REMARK 927      BINDING AFFINITY PREDICTED BY RF-SCORE:    0.00 PKD
ROOT
HETATM    1  C   UNL     1      -9.875   8.182  69.662  1.00  0.00    -0.184 C  
HETATM    2  C   UNL     1     -11.215   8.889  69.866  1.00  0.00    -0.076 C  
HETATM    3  C   UNL     1     -10.899  10.348  69.524  1.00  0.00    -0.255 C  
HETATM    4  O   UNL     1     -11.541  11.220  70.444  1.00  0.00    -0.412 OA 
HETATM    5  C   UNL     1      -9.360  10.515  69.641  1.00  0.00    -0.010 C  
HETATM    6  H   UNL     1     -11.345  12.126  70.232  1.00  0.00     0.000 HD 
HETATM    7  C   UNL     1      -8.804   7.773  73.809  1.00  0.00    -0.326 A  
HETATM    8  C   UNL     1      -8.876   9.170  70.239  1.00  0.00    -0.238 C  
HETATM    9  C   UNL     1      -8.947   6.584  74.507  1.00  0.00    -0.197 A  
HETATM   10  C   UNL     1      -8.922   9.189  71.774  1.00  0.00     0.089 C  
HETATM   11  C   UNL     1      -9.398   5.450  73.840  1.00  0.00    -0.133 A  
HETATM   12  C   UNL     1      -9.092   7.839  72.436  1.00  0.00    -0.208 A  
HETATM   13  C   UNL     1      -9.729   5.486  72.476  1.00  0.00    -0.152 A  
HETATM   14  C   UNL     1      -9.578   6.693  71.747  1.00  0.00    -0.161 A  
HETATM   15  C   UNL     1      -9.779   6.788  70.256  1.00  0.00    -0.179 C  
ENDROOT
BRANCH   5  16
HETATM   16  C   UNL     1      -8.675  10.751  68.277  1.00  0.00    -0.136 C  
BRANCH  16  17
HETATM   17  C   UNL     1      -8.522   9.512  67.393  1.00  0.00    -0.125 C  
BRANCH  17  18
HETATM   18  C   UNL     1      -9.018   9.659  65.949  1.00  0.00    -0.167 C  
HETATM   19  O   UNL     1     -10.219   8.907  65.781  1.00  0.00    -0.351 OA 
HETATM   20  H   UNL     1     -10.526   8.998  64.887  1.00  0.00     0.000 HD 
BRANCH  18  21
HETATM   21  C   UNL     1      -9.339  11.121  65.603  1.00  0.00    -0.243 C  
BRANCH  21  22
HETATM   22  C   UNL     1     -10.781  11.314  65.136  1.00  0.00    -0.312 C  
BRANCH  22  23
HETATM   23  C   UNL     1     -11.570  12.244  66.054  1.00  0.00    -0.451 C  
BRANCH  23  24
HETATM   24  C   UNL     1     -10.678  13.393  66.523  1.00  0.00    -0.287 C  
HETATM   25  C   UNL     1     -11.297  14.745  66.217  1.00  0.00    -0.334 C  
ENDBRANCH  23  24
ENDBRANCH  22  23
ENDBRANCH  21  22
ENDBRANCH  18  21
ENDBRANCH  17  18
ENDBRANCH  16  17
ENDBRANCH   5  16
BRANCH  13  26
HETATM   26  O   UNL     1     -10.122   4.245  72.028  1.00  0.00    -0.177 OA 
BRANCH  26  27
HETATM   27  C   UNL     1      -9.437   3.100  72.519  1.00  0.00    -0.113 C  
HETATM   28  C   UNL     1      -8.481   2.527  71.488  1.00  0.00    -0.063 C  
HETATM   29  O   UNL     1      -8.422   3.247  70.347  1.00  0.00    -0.055 OA 
HETATM   30  O   UNL     1      -7.816   1.516  71.668  1.00  0.00    -0.039 OA 
ENDBRANCH  26  27
ENDBRANCH  13  26
TORSDOF 9
ENDMDL
MODEL      181
REMARK 921   NORMALIZED FREE ENERGY PREDICTED BY IDOCK:   -2.70 KCAL/MOL
REMARK 922        TOTAL FREE ENERGY PREDICTED BY IDOCK:   -6.21 KCAL/MOL
REMARK 923 INTER-LIGAND FREE ENERGY PREDICTED BY IDOCK:   -4.20 KCAL/MOL
REMARK 924 INTRA-LIGAND FREE ENERGY PREDICTED BY IDOCK:   -2.01 KCAL/MOL
REMARK 927      BINDING AFFINITY PREDICTED BY RF-SCORE:    0.00 PKD
ROOT
HETATM    1  C   UNL     1     -10.263   7.041  67.642  1.00  0.00    -0.245 C  
HETATM    2  C   UNL     1     -11.050   6.140  68.594  1.00  0.00    -0.378 C  
HETATM    3  C   UNL     1     -11.027   6.916  69.915  1.00  0.00    -0.277 C  
HETATM    4  O   UNL     1     -10.811   6.030  71.004  1.00  0.00    -0.257 OA 
HETATM    5  C   UNL     1      -9.848   7.922  69.824  1.00  0.00    -0.179 C  
HETATM    6  H   UNL     1     -10.796   6.511  71.823  1.00  0.00     0.000 HD 
HETATM    7  C   UNL     1      -6.595   4.793  67.628  1.00  0.00    -0.047 A  
HETATM    8  C   UNL     1      -9.120   7.539  68.511  1.00  0.00    -0.134 C  
HETATM    9  C   UNL     1      -6.236   3.946  66.591  1.00  0.00    -0.032 A  
HETATM   10  C   UNL     1      -8.071   6.443  68.749  1.00  0.00    -0.114 C  
HETATM   11  C   UNL     1      -7.058   3.853  65.472  1.00  0.00    -0.063 A  
HETATM   12  C   UNL     1      -7.764   5.567  67.554  1.00  0.00    -0.096 A  
HETATM   13  C   UNL     1      -8.252   4.585  65.377  1.00  0.00    -0.111 A  
HETATM   14  C   UNL     1      -8.625   5.462  66.427  1.00  0.00    -0.119 A  
HETATM   15  C   UNL     1      -9.814   6.385  66.349  1.00  0.00    -0.120 C  
ENDROOT
BRANCH   5  16
HETATM   16  C   UNL     1     -10.315   9.392  69.747  1.00  0.00    -0.240 C  
BRANCH  16  17
HETATM   17  C   UNL     1      -9.426  10.324  68.922  1.00  0.00    -0.190 C  
BRANCH  17  18
HETATM   18  C   UNL     1     -10.052  10.877  67.636  1.00  0.00    -0.179 C  
HETATM   19  O   UNL     1     -10.503  12.212  67.864  1.00  0.00    -0.199 OA 
HETATM   20  H   UNL     1     -10.890  12.555  67.068  1.00  0.00     0.000 HD 
BRANCH  18  21
HETATM   21  C   UNL     1      -9.038  10.926  66.483  1.00  0.00    -0.183 C  
BRANCH  21  22
HETATM   22  C   UNL     1      -7.770  10.125  66.778  1.00  0.00    -0.105 C  
BRANCH  22  23
HETATM   23  C   UNL     1      -6.772  10.171  65.625  1.00  0.00    -0.116 C  
BRANCH  23  24
HETATM   24  C   UNL     1      -7.267   9.299  64.471  1.00  0.00    -0.101 C  
HETATM   25  C   UNL     1      -6.618   7.927  64.486  1.00  0.00    -0.056 C  
ENDBRANCH  23  24
ENDBRANCH  22  23
ENDBRANCH  21  22
ENDBRANCH  18  21
ENDBRANCH  17  18
ENDBRANCH  16  17
ENDBRANCH   5  16
BRANCH  13  26
HETATM   26  O   UNL     1      -8.881   4.355  64.174  1.00  0.00    -0.136 OA 
BRANCH  26  27
HETATM   27  C   UNL     1     -10.049   3.544  64.166  1.00  0.00    -0.204 C  
HETATM   28  C   UNL     1      -9.884   2.321  63.281  1.00  0.00    -0.113 C  
HETATM   29  O   UNL     1      -8.653   2.211  62.736  1.00  0.00    -0.072 OA 
HETATM   30  O   UNL     1     -10.771   1.502  63.084  1.00  0.00    -0.131 OA 
ENDBRANCH  26  27
ENDBRANCH  13  26
TORSDOF 9
ENDMDL
MODEL      182
REMARK 921   NORMALIZED FREE ENERGY PREDICTED BY IDOCK:   -2.68 KCAL/MOL
REMARK 922        TOTAL FREE ENERGY PREDICTED BY IDOCK:   -6.17 KCAL/MOL
REMARK 923 INTER-LIGAND FREE ENERGY PREDICTED BY IDOCK:   -5.39 KCAL/MOL
REMARK 924 INTRA-LIGAND FREE ENERGY PREDICTED BY IDOCK:   -0.78 KCAL/MOL
REMARK 927      BINDING AFFINITY PREDICTED BY RF-SCORE:    0.00 PKD
ROOT
HETATM    1  C   UNL     1      -8.066   9.131  68.910  1.00  0.00    -0.100 C  
HETATM    2  C   UNL     1      -8.734   8.632  67.629  1.00  0.00    -0.136 C  
HETATM    3  C   UNL     1      -8.997   9.920  66.843  1.00  0.00    -0.138 C  
HETATM    4  O   UNL     1     -10.278   9.872  66.231  1.00  0.00    -0.243 OA 
HETATM    5  C   UNL     1      -8.956  11.087  67.867  1.00  0.00    -0.144 C  
HETATM    6  H   UNL     1     -10.441  10.671  65.744  1.00  0.00     0.000 HD 
HETATM    7  C   UNL     1     -11.461   8.728  71.522  1.00  0.00    -0.375 A  
HETATM    8  C   UNL     1      -8.859  10.383  69.244  1.00  0.00    -0.166 C  
HETATM    9  C   UNL     1     -11.608   7.671  72.406  1.00  0.00    -0.386 A  
HETATM   10  C   UNL     1     -10.249  10.041  69.799  1.00  0.00    -0.286 C  
HETATM   11  C   UNL     1     -10.596   6.722  72.508  1.00  0.00    -0.249 A  
HETATM   12  C   UNL     1     -10.298   8.861  70.745  1.00  0.00    -0.283 A  
HETATM   13  C   UNL     1      -9.434   6.802  71.723  1.00  0.00    -0.150 A  
HETATM   14  C   UNL     1      -9.268   7.885  70.822  1.00  0.00    -0.159 A  
HETATM   15  C   UNL     1      -7.999   8.123  70.043  1.00  0.00    -0.105 C  
ENDROOT
BRANCH   5  16
HETATM   16  C   UNL     1      -7.737  12.015  67.673  1.00  0.00    -0.144 C  
BRANCH  16  17
HETATM   17  C   UNL     1      -7.588  13.132  68.708  1.00  0.00    -0.033 C  
BRANCH  17  18
HETATM   18  C   UNL     1      -8.439  14.385  68.464  1.00  0.00    -0.170 C  
HETATM   19  O   UNL     1      -9.736  14.194  69.028  1.00  0.00    -0.388 OA 
HETATM   20  H   UNL     1     -10.262  14.970  68.877  1.00  0.00     0.000 HD 
BRANCH  18  21
HETATM   21  C   UNL     1      -7.827  15.627  69.128  1.00  0.00    -0.220 C  
BRANCH  21  22
HETATM   22  C   UNL     1      -8.369  16.934  68.550  1.00  0.00    -0.257 C  
BRANCH  22  23
HETATM   23  C   UNL     1      -7.265  17.823  67.986  1.00  0.00    -0.218 C  
BRANCH  23  24
HETATM   24  C   UNL     1      -7.168  17.636  66.471  1.00  0.00    -0.287 C  
HETATM   25  C   UNL     1      -5.735  17.741  65.984  1.00  0.00    -0.241 C  
ENDBRANCH  23  24
ENDBRANCH  22  23
ENDBRANCH  21  22
ENDBRANCH  18  21
ENDBRANCH  17  18
ENDBRANCH  16  17
ENDBRANCH   5  16
BRANCH  13  26
HETATM   26  O   UNL     1      -8.566   5.774  72.015  1.00  0.00    -0.129 OA 
BRANCH  26  27
HETATM   27  C   UNL     1      -8.499   4.670  71.121  1.00  0.00    -0.107 C  
HETATM   28  C   UNL     1      -9.010   3.392  71.761  1.00  0.00    -0.105 C  
HETATM   29  O   UNL     1      -9.482   3.566  73.014  1.00  0.00    -0.104 OA 
HETATM   30  O   UNL     1      -9.007   2.305  71.199  1.00  0.00    -0.069 OA 
ENDBRANCH  26  27
ENDBRANCH  13  26
TORSDOF 9
ENDMDL
MODEL      183
REMARK 921   NORMALIZED FREE ENERGY PREDICTED BY IDOCK:   -2.65 KCAL/MOL
REMARK 922        TOTAL FREE ENERGY PREDICTED BY IDOCK:   -6.14 KCAL/MOL
REMARK 923 INTER-LIGAND FREE ENERGY PREDICTED BY IDOCK:   -5.76 KCAL/MOL
REMARK 924 INTRA-LIGAND FREE ENERGY PREDICTED BY IDOCK:   -0.38 KCAL/MOL
REMARK 927      BINDING AFFINITY PREDICTED BY RF-SCORE:    0.00 PKD
ROOT
HETATM    1  C   UNL     1      -9.439  13.163  67.871  1.00  0.00    -0.218 C  
HETATM    2  C   UNL     1      -9.658  12.869  66.387  1.00  0.00    -0.252 C  
HETATM    3  C   UNL     1     -10.929  13.657  66.055  1.00  0.00    -0.286 C  
HETATM    4  O   UNL     1     -11.777  12.892  65.211  1.00  0.00    -0.329 OA 
HETATM    5  C   UNL     1     -11.651  13.934  67.401  1.00  0.00    -0.398 C  
HETATM    6  H   UNL     1     -12.566  13.381  65.004  1.00  0.00     0.000 HD 
HETATM    7  C   UNL     1     -10.855   9.407  69.418  1.00  0.00    -0.208 A  
HETATM    8  C   UNL     1     -10.846  13.114  68.441  1.00  0.00    -0.283 C  
HETATM    9  C   UNL     1     -10.002   8.397  69.834  1.00  0.00    -0.190 A  
HETATM   10  C   UNL     1     -11.365  11.672  68.542  1.00  0.00    -0.332 C  
HETATM   11  C   UNL     1      -8.628   8.612  69.813  1.00  0.00    -0.131 A  
HETATM   12  C   UNL     1     -10.349  10.647  68.994  1.00  0.00    -0.237 A  
HETATM   13  C   UNL     1      -8.083   9.826  69.363  1.00  0.00    -0.129 A  
HETATM   14  C   UNL     1      -8.945  10.871  68.944  1.00  0.00    -0.146 A  
HETATM   15  C   UNL     1      -8.455  12.248  68.577  1.00  0.00    -0.077 C  
ENDROOT
BRANCH   5  16
HETATM   16  C   UNL     1     -11.637  15.427  67.796  1.00  0.00    -0.237 C  
BRANCH  16  17
HETATM   17  C   UNL     1     -10.260  16.007  68.128  1.00  0.00    -0.243 C  
BRANCH  17  18
HETATM   18  C   UNL     1     -10.002  17.436  67.631  1.00  0.00    -0.300 C  
HETATM   19  O   UNL     1     -11.235  18.154  67.594  1.00  0.00    -0.085 OA 
HETATM   20  H   UNL     1     -11.075  19.038  67.287  1.00  0.00     0.000 HD 
BRANCH  18  21
HETATM   21  C   UNL     1      -9.053  18.201  68.565  1.00  0.00    -0.318 C  
BRANCH  21  22
HETATM   22  C   UNL     1      -8.093  19.120  67.809  1.00  0.00    -0.310 C  
BRANCH  22  23
HETATM   23  C   UNL     1      -7.918  18.704  66.351  1.00  0.00    -0.298 C  
BRANCH  23  24
HETATM   24  C   UNL     1      -6.601  17.947  66.181  1.00  0.00    -0.306 C  
HETATM   25  C   UNL     1      -6.647  16.585  66.848  1.00  0.00    -0.212 C  
ENDBRANCH  23  24
ENDBRANCH  22  23
ENDBRANCH  21  22
ENDBRANCH  18  21
ENDBRANCH  17  18
ENDBRANCH  16  17
ENDBRANCH   5  16
BRANCH  13  26
HETATM   26  O   UNL     1      -6.710   9.819  69.459  1.00  0.00    -0.047 OA 
BRANCH  26  27
HETATM   27  C   UNL     1      -6.112   9.153  70.565  1.00  0.00    -0.043 C  
HETATM   28  C   UNL     1      -5.746  10.119  71.677  1.00  0.00     0.131 C  
HETATM   29  O   UNL     1      -6.116  11.394  71.429  1.00  0.00    -0.091 OA 
HETATM   30  O   UNL     1      -5.180   9.783  72.708  1.00  0.00    -0.185 OA 
ENDBRANCH  26  27
ENDBRANCH  13  26
TORSDOF 9
ENDMDL
MODEL      184
REMARK 921   NORMALIZED FREE ENERGY PREDICTED BY IDOCK:   -2.61 KCAL/MOL
REMARK 922        TOTAL FREE ENERGY PREDICTED BY IDOCK:   -6.08 KCAL/MOL
REMARK 923 INTER-LIGAND FREE ENERGY PREDICTED BY IDOCK:   -5.98 KCAL/MOL
REMARK 924 INTRA-LIGAND FREE ENERGY PREDICTED BY IDOCK:   -0.10 KCAL/MOL
REMARK 927      BINDING AFFINITY PREDICTED BY RF-SCORE:    0.00 PKD
ROOT
HETATM    1  C   UNL     1      -9.538   9.398  67.518  1.00  0.00    -0.174 C  
HETATM    2  C   UNL     1     -10.747   9.854  66.700  1.00  0.00    -0.116 C  
HETATM    3  C   UNL     1     -10.613  11.379  66.692  1.00  0.00    -0.258 C  
HETATM    4  O   UNL     1     -11.885  11.987  66.874  1.00  0.00    -0.580 OA 
HETATM    5  C   UNL     1      -9.685  11.756  67.878  1.00  0.00    -0.185 C  
HETATM    6  H   UNL     1     -11.801  12.934  66.869  1.00  0.00     0.000 HD 
HETATM    7  C   UNL     1     -11.622   8.503  71.174  1.00  0.00    -0.325 A  
HETATM    8  C   UNL     1      -9.479  10.422  68.639  1.00  0.00    -0.167 C  
HETATM    9  C   UNL     1     -11.947   7.210  71.556  1.00  0.00    -0.361 A  
HETATM   10  C   UNL     1     -10.588  10.190  69.675  1.00  0.00    -0.286 C  
HETATM   11  C   UNL     1     -11.538   6.142  70.765  1.00  0.00    -0.257 A  
HETATM   12  C   UNL     1     -10.871   8.742  70.011  1.00  0.00    -0.231 A  
HETATM   13  C   UNL     1     -10.816   6.343  69.577  1.00  0.00    -0.321 A  
HETATM   14  C   UNL     1     -10.469   7.660  69.180  1.00  0.00    -0.220 A  
HETATM   15  C   UNL     1      -9.583   7.959  67.998  1.00  0.00    -0.168 C  
ENDROOT
BRANCH   5  16
HETATM   16  C   UNL     1      -8.317  12.307  67.420  1.00  0.00    -0.177 C  
BRANCH  16  17
HETATM   17  C   UNL     1      -7.320  12.610  68.540  1.00  0.00    -0.115 C  
BRANCH  17  18
HETATM   18  C   UNL     1      -6.408  13.821  68.311  1.00  0.00    -0.108 C  
HETATM   19  O   UNL     1      -6.849  14.534  67.156  1.00  0.00    -0.364 OA 
HETATM   20  H   UNL     1      -6.284  15.284  67.014  1.00  0.00     0.000 HD 
BRANCH  18  21
HETATM   21  C   UNL     1      -6.449  14.797  69.496  1.00  0.00    -0.142 C  
BRANCH  21  22
HETATM   22  C   UNL     1      -5.523  15.999  69.304  1.00  0.00    -0.113 C  
BRANCH  22  23
HETATM   23  C   UNL     1      -6.238  17.327  69.535  1.00  0.00    -0.251 C  
BRANCH  23  24
HETATM   24  C   UNL     1      -6.940  17.771  68.252  1.00  0.00    -0.223 C  
HETATM   25  C   UNL     1      -8.446  17.831  68.428  1.00  0.00    -0.295 C  
ENDBRANCH  23  24
ENDBRANCH  22  23
ENDBRANCH  21  22
ENDBRANCH  18  21
ENDBRANCH  17  18
ENDBRANCH  16  17
ENDBRANCH   5  16
BRANCH  13  26
HETATM   26  O   UNL     1     -10.498   5.144  68.980  1.00  0.00    -0.180 OA 
BRANCH  26  27
HETATM   27  C   UNL     1      -9.585   5.153  67.889  1.00  0.00    -0.135 C  
HETATM   28  C   UNL     1      -8.362   4.297  68.169  1.00  0.00    -0.093 C  
HETATM   29  O   UNL     1      -8.413   3.653  69.354  1.00  0.00    -0.062 OA 
HETATM   30  O   UNL     1      -7.421   4.188  67.395  1.00  0.00    -0.068 OA 
ENDBRANCH  26  27
ENDBRANCH  13  26
TORSDOF 9
ENDMDL
MODEL      185
REMARK 921   NORMALIZED FREE ENERGY PREDICTED BY IDOCK:   -2.59 KCAL/MOL
REMARK 922        TOTAL FREE ENERGY PREDICTED BY IDOCK:   -6.04 KCAL/MOL
REMARK 923 INTER-LIGAND FREE ENERGY PREDICTED BY IDOCK:   -5.24 KCAL/MOL
REMARK 924 INTRA-LIGAND FREE ENERGY PREDICTED BY IDOCK:   -0.80 KCAL/MOL
REMARK 927      BINDING AFFINITY PREDICTED BY RF-SCORE:    0.00 PKD
ROOT
HETATM    1  C   UNL     1      -9.638  10.043  67.467  1.00  0.00    -0.178 C  
HETATM    2  C   UNL     1     -10.260  10.020  66.071  1.00  0.00    -0.277 C  
HETATM    3  C   UNL     1      -9.272   9.177  65.258  1.00  0.00    -0.179 C  
HETATM    4  O   UNL     1      -9.080   9.747  63.971  1.00  0.00    -0.237 OA 
HETATM    5  C   UNL     1      -7.928   9.187  66.035  1.00  0.00    -0.103 C  
HETATM    6  H   UNL     1      -8.467   9.225  63.467  1.00  0.00     0.000 HD 
HETATM    7  C   UNL     1      -8.048  14.037  67.322  1.00  0.00    -0.174 A  
HETATM    8  C   UNL     1      -8.156  10.208  67.178  1.00  0.00    -0.120 C  
HETATM    9  C   UNL     1      -8.663  15.114  67.942  1.00  0.00    -0.157 A  
HETATM   10  C   UNL     1      -7.823  11.638  66.729  1.00  0.00    -0.130 C  
HETATM   11  C   UNL     1      -9.812  14.901  68.696  1.00  0.00    -0.225 A  
HETATM   12  C   UNL     1      -8.560  12.737  67.463  1.00  0.00    -0.187 A  
HETATM   13  C   UNL     1     -10.374  13.621  68.831  1.00  0.00    -0.114 A  
HETATM   14  C   UNL     1      -9.748  12.510  68.210  1.00  0.00    -0.220 A  
HETATM   15  C   UNL     1     -10.202  11.087  68.413  1.00  0.00    -0.198 C  
ENDROOT
BRANCH   5  16
HETATM   16  C   UNL     1      -7.569   7.810  66.634  1.00  0.00    -0.097 C  
BRANCH  16  17
HETATM   17  C   UNL     1      -8.493   6.657  66.235  1.00  0.00    -0.130 C  
BRANCH  17  18
HETATM   18  C   UNL     1      -7.825   5.497  65.486  1.00  0.00    -0.099 C  
HETATM   19  O   UNL     1      -6.575   5.935  64.953  1.00  0.00    -0.040 OA 
HETATM   20  H   UNL     1      -6.162   5.217  64.489  1.00  0.00     0.000 HD 
BRANCH  18  21
HETATM   21  C   UNL     1      -7.537   4.309  66.415  1.00  0.00    -0.089 C  
BRANCH  21  22
HETATM   22  C   UNL     1      -8.734   3.369  66.561  1.00  0.00    -0.127 C  
BRANCH  22  23
HETATM   23  C   UNL     1      -9.774   3.577  65.464  1.00  0.00    -0.077 C  
BRANCH  23  24
HETATM   24  C   UNL     1      -9.597   2.521  64.372  1.00  0.00    -0.128 C  
HETATM   25  C   UNL     1     -10.658   2.645  63.295  1.00  0.00    -0.215 C  
ENDBRANCH  23  24
ENDBRANCH  22  23
ENDBRANCH  21  22
ENDBRANCH  18  21
ENDBRANCH  17  18
ENDBRANCH  16  17
ENDBRANCH   5  16
BRANCH  13  26
HETATM   26  O   UNL     1     -11.486  13.650  69.643  1.00  0.00    -0.260 OA 
BRANCH  26  27
HETATM   27  C   UNL     1     -12.240  14.853  69.714  1.00  0.00    -0.287 C  
HETATM   28  C   UNL     1     -12.972  14.985  71.037  1.00  0.00    -0.404 C  
HETATM   29  O   UNL     1     -12.714  13.979  71.900  1.00  0.00    -0.326 OA 
HETATM   30  O   UNL     1     -13.719  15.915  71.309  1.00  0.00    -0.455 OA 
ENDBRANCH  26  27
ENDBRANCH  13  26
TORSDOF 9
ENDMDL
MODEL      186
REMARK 921   NORMALIZED FREE ENERGY PREDICTED BY IDOCK:   -2.57 KCAL/MOL
REMARK 922        TOTAL FREE ENERGY PREDICTED BY IDOCK:   -6.01 KCAL/MOL
REMARK 923 INTER-LIGAND FREE ENERGY PREDICTED BY IDOCK:   -4.39 KCAL/MOL
REMARK 924 INTRA-LIGAND FREE ENERGY PREDICTED BY IDOCK:   -1.62 KCAL/MOL
REMARK 927      BINDING AFFINITY PREDICTED BY RF-SCORE:    0.00 PKD
ROOT
HETATM    1  C   UNL     1      -8.587   7.234  67.404  1.00  0.00    -0.121 C  
HETATM    2  C   UNL     1      -7.066   7.345  67.504  1.00  0.00    -0.088 C  
HETATM    3  C   UNL     1      -6.660   7.898  66.134  1.00  0.00    -0.050 C  
HETATM    4  O   UNL     1      -5.488   7.246  65.667  1.00  0.00    -0.027 OA 
HETATM    5  C   UNL     1      -7.837   7.603  65.165  1.00  0.00    -0.124 C  
HETATM    6  H   UNL     1      -5.236   7.588  64.817  1.00  0.00     0.000 HD 
HETATM    7  C   UNL     1      -8.815   2.975  66.843  1.00  0.00    -0.158 A  
HETATM    8  C   UNL     1      -8.799   6.713  65.992  1.00  0.00    -0.151 C  
HETATM    9  C   UNL     1      -9.153   2.100  67.864  1.00  0.00    -0.218 A  
HETATM   10  C   UNL     1      -8.427   5.227  65.876  1.00  0.00    -0.124 C  
HETATM   11  C   UNL     1      -9.492   2.608  69.113  1.00  0.00    -0.148 A  
HETATM   12  C   UNL     1      -8.831   4.364  67.052  1.00  0.00    -0.116 A  
HETATM   13  C   UNL     1      -9.485   3.989  69.370  1.00  0.00    -0.189 A  
HETATM   14  C   UNL     1      -9.151   4.895  68.331  1.00  0.00    -0.141 A  
HETATM   15  C   UNL     1      -9.250   6.392  68.478  1.00  0.00    -0.124 C  
ENDROOT
BRANCH   5  16
HETATM   16  C   UNL     1      -8.576   8.881  64.711  1.00  0.00    -0.184 C  
BRANCH  16  17
HETATM   17  C   UNL     1      -7.908  10.202  65.098  1.00  0.00    -0.140 C  
BRANCH  17  18
HETATM   18  C   UNL     1      -8.268  10.750  66.485  1.00  0.00    -0.148 C  
HETATM   19  O   UNL     1      -7.594  11.990  66.694  1.00  0.00    -0.355 OA 
HETATM   20  H   UNL     1      -7.817  12.329  67.552  1.00  0.00     0.000 HD 
BRANCH  18  21
HETATM   21  C   UNL     1      -9.775  11.018  66.618  1.00  0.00    -0.226 C  
BRANCH  21  22
HETATM   22  C   UNL     1     -10.223  11.164  68.072  1.00  0.00    -0.201 C  
BRANCH  22  23
HETATM   23  C   UNL     1     -10.712   9.846  68.666  1.00  0.00    -0.256 C  
BRANCH  23  24
HETATM   24  C   UNL     1     -10.147   9.668  70.075  1.00  0.00    -0.293 C  
HETATM   25  C   UNL     1      -8.633   9.562  70.063  1.00  0.00    -0.234 C  
ENDBRANCH  23  24
ENDBRANCH  22  23
ENDBRANCH  21  22
ENDBRANCH  18  21
ENDBRANCH  17  18
ENDBRANCH  16  17
ENDBRANCH   5  16
BRANCH  13  26
HETATM   26  O   UNL     1      -9.881   4.256  70.661  1.00  0.00    -0.196 OA 
BRANCH  26  27
HETATM   27  C   UNL     1      -9.148   3.666  71.729  1.00  0.00    -0.111 C  
HETATM   28  C   UNL     1      -7.981   4.535  72.162  1.00  0.00    -0.100 C  
HETATM   29  O   UNL     1      -7.908   5.710  71.501  1.00  0.00    -0.107 OA 
HETATM   30  O   UNL     1      -7.183   4.213  73.032  1.00  0.00    -0.064 OA 
ENDBRANCH  26  27
ENDBRANCH  13  26
TORSDOF 9
ENDMDL
MODEL      187
REMARK 921   NORMALIZED FREE ENERGY PREDICTED BY IDOCK:   -2.52 KCAL/MOL
REMARK 922        TOTAL FREE ENERGY PREDICTED BY IDOCK:   -5.94 KCAL/MOL
REMARK 923 INTER-LIGAND FREE ENERGY PREDICTED BY IDOCK:   -5.75 KCAL/MOL
REMARK 924 INTRA-LIGAND FREE ENERGY PREDICTED BY IDOCK:   -0.18 KCAL/MOL
REMARK 927      BINDING AFFINITY PREDICTED BY RF-SCORE:    0.00 PKD
ROOT
HETATM    1  C   UNL     1      -9.253   9.338  67.346  1.00  0.00    -0.145 C  
HETATM    2  C   UNL     1     -10.781   9.349  67.291  1.00  0.00    -0.258 C  
HETATM    3  C   UNL     1     -11.126  10.840  67.359  1.00  0.00    -0.296 C  
HETATM    4  O   UNL     1     -12.244  11.049  68.210  1.00  0.00    -0.769 OA 
HETATM    5  C   UNL     1      -9.885  11.562  67.948  1.00  0.00    -0.192 C  
HETATM    6  H   UNL     1     -12.458  11.974  68.251  1.00  0.00     0.000 HD 
HETATM    7  C   UNL     1      -8.833   8.124  71.452  1.00  0.00    -0.185 A  
HETATM    8  C   UNL     1      -8.940  10.410  68.375  1.00  0.00    -0.137 C  
HETATM    9  C   UNL     1      -8.524   6.825  71.823  1.00  0.00    -0.120 A  
HETATM   10  C   UNL     1      -9.249   9.931  69.802  1.00  0.00    -0.252 C  
HETATM   11  C   UNL     1      -8.277   5.875  70.838  1.00  0.00    -0.125 A  
HETATM   12  C   UNL     1      -8.882   8.493  70.097  1.00  0.00    -0.138 A  
HETATM   13  C   UNL     1      -8.351   6.197  69.473  1.00  0.00    -0.120 A  
HETATM   14  C   UNL     1      -8.657   7.525  69.080  1.00  0.00    -0.136 A  
HETATM   15  C   UNL     1      -8.623   7.990  67.647  1.00  0.00    -0.130 C  
ENDROOT
BRANCH   5  16
HETATM   16  C   UNL     1      -9.168  12.464  66.919  1.00  0.00    -0.209 C  
BRANCH  16  17
HETATM   17  C   UNL     1      -8.005  13.294  67.467  1.00  0.00    -0.186 C  
BRANCH  17  18
HETATM   18  C   UNL     1      -7.944  14.750  66.991  1.00  0.00    -0.104 C  
HETATM   19  O   UNL     1      -8.941  14.965  65.993  1.00  0.00    -0.484 OA 
HETATM   20  H   UNL     1      -8.903  15.867  65.698  1.00  0.00     0.000 HD 
BRANCH  18  21
HETATM   21  C   UNL     1      -8.221  15.736  68.136  1.00  0.00    -0.141 C  
BRANCH  21  22
HETATM   22  C   UNL     1      -8.261  17.190  67.667  1.00  0.00    -0.194 C  
BRANCH  22  23
HETATM   23  C   UNL     1      -9.360  17.994  68.357  1.00  0.00    -0.306 C  
BRANCH  23  24
HETATM   24  C   UNL     1     -10.629  17.980  67.503  1.00  0.00    -0.402 C  
HETATM   25  C   UNL     1     -10.555  18.991  66.373  1.00  0.00    -0.492 C  
ENDBRANCH  23  24
ENDBRANCH  22  23
ENDBRANCH  21  22
ENDBRANCH  18  21
ENDBRANCH  17  18
ENDBRANCH  16  17
ENDBRANCH   5  16
BRANCH  13  26
HETATM   26  O   UNL     1      -8.041   5.109  68.688  1.00  0.00    -0.085 OA 
BRANCH  26  27
HETATM   27  C   UNL     1      -7.432   5.338  67.424  1.00  0.00    -0.084 C  
HETATM   28  C   UNL     1      -6.098   4.625  67.300  1.00  0.00    -0.031 C  
HETATM   29  O   UNL     1      -5.788   3.869  68.375  1.00  0.00    -0.024 OA 
HETATM   30  O   UNL     1      -5.371   4.711  66.319  1.00  0.00    -0.008 OA 
ENDBRANCH  26  27
ENDBRANCH  13  26
TORSDOF 9
ENDMDL
MODEL      188
REMARK 921   NORMALIZED FREE ENERGY PREDICTED BY IDOCK:   -2.52 KCAL/MOL
REMARK 922        TOTAL FREE ENERGY PREDICTED BY IDOCK:   -5.94 KCAL/MOL
REMARK 923 INTER-LIGAND FREE ENERGY PREDICTED BY IDOCK:   -5.00 KCAL/MOL
REMARK 924 INTRA-LIGAND FREE ENERGY PREDICTED BY IDOCK:   -0.93 KCAL/MOL
REMARK 927      BINDING AFFINITY PREDICTED BY RF-SCORE:    0.00 PKD
ROOT
HETATM    1  C   UNL     1      -8.452   9.655  68.208  1.00  0.00    -0.118 C  
HETATM    2  C   UNL     1      -7.201  10.484  67.917  1.00  0.00    -0.084 C  
HETATM    3  C   UNL     1      -7.599  11.303  66.685  1.00  0.00    -0.140 C  
HETATM    4  O   UNL     1      -6.520  11.360  65.762  1.00  0.00    -0.359 OA 
HETATM    5  C   UNL     1      -8.802  10.573  66.030  1.00  0.00    -0.179 C  
HETATM    6  H   UNL     1      -6.767  11.867  64.998  1.00  0.00     0.000 HD 
HETATM    7  C   UNL     1      -7.037   5.912  66.627  1.00  0.00    -0.069 A  
HETATM    8  C   UNL     1      -8.920   9.246  66.822  1.00  0.00    -0.154 C  
HETATM    9  C   UNL     1      -6.573   4.884  67.433  1.00  0.00    -0.050 A  
HETATM   10  C   UNL     1      -8.023   8.153  66.221  1.00  0.00    -0.101 C  
HETATM   11  C   UNL     1      -6.616   5.028  68.816  1.00  0.00    -0.048 A  
HETATM   12  C   UNL     1      -7.563   7.086  67.191  1.00  0.00    -0.107 A  
HETATM   13  C   UNL     1      -7.103   6.201  69.415  1.00  0.00    -0.069 A  
HETATM   14  C   UNL     1      -7.589   7.257  68.602  1.00  0.00    -0.114 A  
HETATM   15  C   UNL     1      -8.252   8.490  69.160  1.00  0.00    -0.119 C  
ENDROOT
BRANCH   5  16
HETATM   16  C   UNL     1     -10.123  11.365  66.147  1.00  0.00    -0.271 C  
BRANCH  16  17
HETATM   17  C   UNL     1     -11.085  10.883  67.235  1.00  0.00    -0.350 C  
BRANCH  17  18
HETATM   18  C   UNL     1     -11.279  11.834  68.422  1.00  0.00    -0.251 C  
HETATM   19  O   UNL     1     -11.599  13.137  67.938  1.00  0.00    -0.294 OA 
HETATM   20  H   UNL     1     -11.719  13.726  68.673  1.00  0.00     0.000 HD 
BRANCH  18  21
HETATM   21  C   UNL     1     -12.434  11.385  69.330  1.00  0.00     0.025 C  
BRANCH  21  22
HETATM   22  C   UNL     1     -12.093  11.491  70.816  1.00  0.00    -0.410 C  
BRANCH  22  23
HETATM   23  C   UNL     1     -12.775  10.409  71.649  1.00  0.00    -0.560 C  
BRANCH  23  24
HETATM   24  C   UNL     1     -12.267   9.030  71.226  1.00  0.00    -0.373 C  
HETATM   25  C   UNL     1     -10.777   8.882  71.470  1.00  0.00    -0.398 C  
ENDBRANCH  23  24
ENDBRANCH  22  23
ENDBRANCH  21  22
ENDBRANCH  18  21
ENDBRANCH  17  18
ENDBRANCH  16  17
ENDBRANCH   5  16
BRANCH  13  26
HETATM   26  O   UNL     1      -7.074   6.106  70.788  1.00  0.00    -0.065 OA 
BRANCH  26  27
HETATM   27  C   UNL     1      -8.259   5.704  71.464  1.00  0.00    -0.119 C  
HETATM   28  C   UNL     1      -8.020   4.504  72.362  1.00  0.00    -0.094 C  
HETATM   29  O   UNL     1      -6.732   4.101  72.393  1.00  0.00    -0.034 OA 
HETATM   30  O   UNL     1      -8.902   3.954  73.008  1.00  0.00    -0.097 OA 
ENDBRANCH  26  27
ENDBRANCH  13  26
TORSDOF 9
ENDMDL
MODEL      189
REMARK 921   NORMALIZED FREE ENERGY PREDICTED BY IDOCK:   -2.51 KCAL/MOL
REMARK 922        TOTAL FREE ENERGY PREDICTED BY IDOCK:   -5.92 KCAL/MOL
REMARK 923 INTER-LIGAND FREE ENERGY PREDICTED BY IDOCK:   -5.66 KCAL/MOL
REMARK 924 INTRA-LIGAND FREE ENERGY PREDICTED BY IDOCK:   -0.25 KCAL/MOL
REMARK 927      BINDING AFFINITY PREDICTED BY RF-SCORE:    0.00 PKD
ROOT
HETATM    1  C   UNL     1      -8.856  12.727  67.339  1.00  0.00    -0.190 C  
HETATM    2  C   UNL     1      -9.648  12.646  68.643  1.00  0.00    -0.028 C  
HETATM    3  C   UNL     1      -9.770  11.139  68.890  1.00  0.00    -0.150 C  
HETATM    4  O   UNL     1     -11.074  10.819  69.354  1.00  0.00    -0.229 OA 
HETATM    5  C   UNL     1      -9.520  10.439  67.527  1.00  0.00    -0.167 C  
HETATM    6  H   UNL     1     -11.150   9.884  69.507  1.00  0.00     0.000 HD 
HETATM    7  C   UNL     1     -12.142  13.678  64.729  1.00  0.00    -0.435 A  
HETATM    8  C   UNL     1      -9.452  11.603  66.507  1.00  0.00    -0.219 C  
HETATM    9  C   UNL     1     -12.389  14.962  64.270  1.00  0.00    -0.300 A  
HETATM   10  C   UNL     1     -10.847  11.969  65.980  1.00  0.00    -0.329 C  
HETATM   11  C   UNL     1     -11.513  15.988  64.609  1.00  0.00    -0.252 A  
HETATM   12  C   UNL     1     -11.011  13.400  65.515  1.00  0.00    -0.294 A  
HETATM   13  C   UNL     1     -10.391  15.756  65.422  1.00  0.00    -0.389 A  
HETATM   14  C   UNL     1     -10.122  14.444  65.890  1.00  0.00    -0.344 A  
HETATM   15  C   UNL     1      -8.873  14.080  66.650  1.00  0.00    -0.117 C  
ENDROOT
BRANCH   5  16
HETATM   16  C   UNL     1      -8.195   9.645  67.494  1.00  0.00    -0.114 C  
BRANCH  16  17
HETATM   17  C   UNL     1      -7.665   9.306  66.099  1.00  0.00    -0.096 C  
BRANCH  17  18
HETATM   18  C   UNL     1      -6.662   8.148  66.031  1.00  0.00    -0.053 C  
HETATM   19  O   UNL     1      -5.404   8.579  66.549  1.00  0.00    -0.030 OA 
HETATM   20  H   UNL     1      -4.783   7.863  66.507  1.00  0.00     0.000 HD 
BRANCH  18  21
HETATM   21  C   UNL     1      -7.118   6.948  66.874  1.00  0.00    -0.075 C  
BRANCH  21  22
HETATM   22  C   UNL     1      -7.761   5.845  66.033  1.00  0.00    -0.099 C  
BRANCH  22  23
HETATM   23  C   UNL     1      -8.401   6.384  64.757  1.00  0.00    -0.035 C  
BRANCH  23  24
HETATM   24  C   UNL     1      -7.779   5.707  63.536  1.00  0.00    -0.091 C  
HETATM   25  C   UNL     1      -8.758   5.626  62.380  1.00  0.00     0.007 C  
ENDBRANCH  23  24
ENDBRANCH  22  23
ENDBRANCH  21  22
ENDBRANCH  18  21
ENDBRANCH  17  18
ENDBRANCH  16  17
ENDBRANCH   5  16
BRANCH  13  26
HETATM   26  O   UNL     1      -9.659  16.908  65.599  1.00  0.00    -0.534 OA 
BRANCH  26  27
HETATM   27  C   UNL     1      -8.935  17.070  66.812  1.00  0.00    -0.244 C  
HETATM   28  C   UNL     1      -7.862  18.137  66.694  1.00  0.00    -0.242 C  
HETATM   29  O   UNL     1      -7.851  18.760  65.496  1.00  0.00    -0.409 OA 
HETATM   30  O   UNL     1      -7.085  18.420  67.595  1.00  0.00    -0.206 OA 
ENDBRANCH  26  27
ENDBRANCH  13  26
TORSDOF 9
ENDMDL
MODEL      190
REMARK 921   NORMALIZED FREE ENERGY PREDICTED BY IDOCK:   -2.49 KCAL/MOL
REMARK 922        TOTAL FREE ENERGY PREDICTED BY IDOCK:   -5.90 KCAL/MOL
REMARK 923 INTER-LIGAND FREE ENERGY PREDICTED BY IDOCK:   -4.93 KCAL/MOL
REMARK 924 INTRA-LIGAND FREE ENERGY PREDICTED BY IDOCK:   -0.97 KCAL/MOL
REMARK 927      BINDING AFFINITY PREDICTED BY RF-SCORE:    0.00 PKD
ROOT
HETATM    1  C   UNL     1     -10.080   9.139  66.644  1.00  0.00    -0.343 C  
HETATM    2  C   UNL     1     -10.586  10.580  66.602  1.00  0.00    -0.263 C  
HETATM    3  C   UNL     1      -9.804  11.196  65.438  1.00  0.00    -0.242 C  
HETATM    4  O   UNL     1      -9.378  12.510  65.770  1.00  0.00    -0.434 OA 
HETATM    5  C   UNL     1      -8.563  10.293  65.203  1.00  0.00    -0.181 C  
HETATM    6  H   UNL     1      -8.893  12.892  65.048  1.00  0.00     0.000 HD 
HETATM    7  C   UNL     1      -7.477   9.542  70.045  1.00  0.00    -0.126 A  
HETATM    8  C   UNL     1      -8.591   9.292  66.385  1.00  0.00    -0.141 C  
HETATM    9  C   UNL     1      -7.826   9.104  71.314  1.00  0.00    -0.067 A  
HETATM   10  C   UNL     1      -7.859   9.854  67.613  1.00  0.00    -0.098 C  
HETATM   11  C   UNL     1      -9.039   8.452  71.501  1.00  0.00    -0.254 A  
HETATM   12  C   UNL     1      -8.326   9.318  68.949  1.00  0.00    -0.120 A  
HETATM   13  C   UNL     1      -9.930   8.240  70.435  1.00  0.00    -0.188 A  
HETATM   14  C   UNL     1      -9.581   8.674  69.131  1.00  0.00    -0.163 A  
HETATM   15  C   UNL     1     -10.410   8.370  67.910  1.00  0.00    -0.279 C  
ENDROOT
BRANCH   5  16
HETATM   16  C   UNL     1      -8.627   9.519  63.868  1.00  0.00    -0.226 C  
BRANCH  16  17
HETATM   17  C   UNL     1      -8.051   8.102  63.900  1.00  0.00    -0.114 C  
BRANCH  17  18
HETATM   18  C   UNL     1      -7.734   7.480  62.534  1.00  0.00    -0.120 C  
HETATM   19  O   UNL     1      -6.322   7.322  62.402  1.00  0.00    -0.058 OA 
HETATM   20  H   UNL     1      -6.125   6.937  61.557  1.00  0.00     0.000 HD 
BRANCH  18  21
HETATM   21  C   UNL     1      -8.368   6.090  62.380  1.00  0.00    -0.062 C  
BRANCH  21  22
HETATM   22  C   UNL     1      -7.435   4.962  62.822  1.00  0.00    -0.048 C  
BRANCH  22  23
HETATM   23  C   UNL     1      -7.671   4.546  64.271  1.00  0.00    -0.077 C  
BRANCH  23  24
HETATM   24  C   UNL     1      -8.888   3.626  64.357  1.00  0.00    -0.117 C  
HETATM   25  C   UNL     1      -9.715   3.904  65.599  1.00  0.00    -0.170 C  
ENDBRANCH  23  24
ENDBRANCH  22  23
ENDBRANCH  21  22
ENDBRANCH  18  21
ENDBRANCH  17  18
ENDBRANCH  16  17
ENDBRANCH   5  16
BRANCH  13  26
HETATM   26  O   UNL     1     -11.048   7.553  70.851  1.00  0.00    -0.252 OA 
BRANCH  26  27
HETATM   27  C   UNL     1     -10.952   6.750  72.022  1.00  0.00    -0.238 C  
HETATM   28  C   UNL     1     -10.739   5.285  71.688  1.00  0.00    -0.156 C  
HETATM   29  O   UNL     1     -10.618   5.045  70.365  1.00  0.00    -0.215 OA 
HETATM   30  O   UNL     1     -10.672   4.401  72.531  1.00  0.00    -0.173 OA 
ENDBRANCH  26  27
ENDBRANCH  13  26
TORSDOF 9
ENDMDL
MODEL      191
REMARK 921   NORMALIZED FREE ENERGY PREDICTED BY IDOCK:   -2.32 KCAL/MOL
REMARK 922        TOTAL FREE ENERGY PREDICTED BY IDOCK:   -5.63 KCAL/MOL
REMARK 923 INTER-LIGAND FREE ENERGY PREDICTED BY IDOCK:   -5.17 KCAL/MOL
REMARK 924 INTRA-LIGAND FREE ENERGY PREDICTED BY IDOCK:   -0.45 KCAL/MOL
REMARK 927      BINDING AFFINITY PREDICTED BY RF-SCORE:    0.00 PKD
ROOT
HETATM    1  C   UNL     1      -7.419   9.310  67.134  1.00  0.00    -0.091 C  
HETATM    2  C   UNL     1      -7.022   9.190  65.663  1.00  0.00    -0.081 C  
HETATM    3  C   UNL     1      -7.511  10.509  65.057  1.00  0.00    -0.011 C  
HETATM    4  O   UNL     1      -8.100  10.278  63.785  1.00  0.00    -0.157 OA 
HETATM    5  C   UNL     1      -8.580  11.080  66.026  1.00  0.00    -0.173 C  
HETATM    6  H   UNL     1      -8.403  11.096  63.408  1.00  0.00     0.000 HD 
HETATM    7  C   UNL     1     -10.847   6.713  67.016  1.00  0.00    -0.467 A  
HETATM    8  C   UNL     1      -8.795   9.951  67.065  1.00  0.00    -0.144 C  
HETATM    9  C   UNL     1     -10.815   5.406  67.476  1.00  0.00     0.001 A  
HETATM   10  C   UNL     1      -9.862   8.951  66.594  1.00  0.00    -0.332 C  
HETATM   11  C   UNL     1      -9.651   4.915  68.058  1.00  0.00    -0.190 A  
HETATM   12  C   UNL     1      -9.727   7.549  67.148  1.00  0.00    -0.228 A  
HETATM   13  C   UNL     1      -8.499   5.710  68.175  1.00  0.00    -0.098 A  
HETATM   14  C   UNL     1      -8.522   7.053  67.717  1.00  0.00    -0.120 A  
HETATM   15  C   UNL     1      -7.381   8.015  67.926  1.00  0.00    -0.093 C  
ENDROOT
BRANCH   5  16
HETATM   16  C   UNL     1      -8.113  12.364  66.747  1.00  0.00     0.009 C  
BRANCH  16  17
HETATM   17  C   UNL     1      -9.202  13.130  67.500  1.00  0.00    -0.206 C  
BRANCH  17  18
HETATM   18  C   UNL     1      -9.933  14.213  66.696  1.00  0.00    -0.277 C  
HETATM   19  O   UNL     1     -11.287  14.299  67.139  1.00  0.00    -0.309 OA 
HETATM   20  H   UNL     1     -11.739  14.969  66.641  1.00  0.00     0.000 HD 
BRANCH  18  21
HETATM   21  C   UNL     1      -9.296  15.596  66.894  1.00  0.00    -0.252 C  
BRANCH  21  22
HETATM   22  C   UNL     1     -10.311  16.659  67.317  1.00  0.00    -0.298 C  
BRANCH  22  23
HETATM   23  C   UNL     1     -10.218  17.923  66.466  1.00  0.00    -0.379 C  
BRANCH  23  24
HETATM   24  C   UNL     1     -10.858  19.097  67.207  1.00  0.00    -0.529 C  
HETATM   25  C   UNL     1      -9.990  19.573  68.358  1.00  0.00    -0.540 C  
ENDBRANCH  23  24
ENDBRANCH  22  23
ENDBRANCH  21  22
ENDBRANCH  18  21
ENDBRANCH  17  18
ENDBRANCH  16  17
ENDBRANCH   5  16
BRANCH  13  26
HETATM   26  O   UNL     1      -7.485   5.025  68.805  1.00  0.00    -0.067 OA 
BRANCH  26  27
HETATM   27  C   UNL     1      -7.238   3.678  68.421  1.00  0.00    -0.051 C  
HETATM   28  C   UNL     1      -6.483   3.593  67.107  1.00  0.00    -0.037 C  
HETATM   29  O   UNL     1      -6.141   4.798  66.603  1.00  0.00    -0.029 OA 
HETATM   30  O   UNL     1      -6.198   2.539  66.556  1.00  0.00    -0.023 OA 
ENDBRANCH  26  27
ENDBRANCH  13  26
TORSDOF 9
ENDMDL
MODEL      192
REMARK 921   NORMALIZED FREE ENERGY PREDICTED BY IDOCK:   -2.20 KCAL/MOL
REMARK 922        TOTAL FREE ENERGY PREDICTED BY IDOCK:   -5.45 KCAL/MOL
REMARK 923 INTER-LIGAND FREE ENERGY PREDICTED BY IDOCK:   -4.47 KCAL/MOL
REMARK 924 INTRA-LIGAND FREE ENERGY PREDICTED BY IDOCK:   -0.98 KCAL/MOL
REMARK 927      BINDING AFFINITY PREDICTED BY RF-SCORE:    0.00 PKD
ROOT
HETATM    1  C   UNL     1     -11.099   8.203  70.483  1.00  0.00    -0.257 C  
HETATM    2  C   UNL     1     -11.823   9.471  70.935  1.00  0.00    -0.385 C  
HETATM    3  C   UNL     1     -11.570  10.452  69.786  1.00  0.00    -0.269 C  
HETATM    4  O   UNL     1     -11.284  11.746  70.296  1.00  0.00    -0.463 OA 
HETATM    5  C   UNL     1     -10.339   9.919  69.004  1.00  0.00    -0.224 C  
HETATM    6  H   UNL     1     -11.127  12.354  69.583  1.00  0.00     0.000 HD 
HETATM    7  C   UNL     1      -7.646   8.578  73.021  1.00  0.00    -0.042 A  
HETATM    8  C   UNL     1      -9.819   8.742  69.867  1.00  0.00    -0.189 C  
HETATM    9  C   UNL     1      -7.491   7.849  74.190  1.00  0.00    -0.202 A  
HETATM   10  C   UNL     1      -8.835   9.227  70.942  1.00  0.00    -0.252 C  
HETATM   11  C   UNL     1      -8.454   6.910  74.542  1.00  0.00    -0.195 A  
HETATM   12  C   UNL     1      -8.752   8.365  72.183  1.00  0.00    -0.272 A  
HETATM   13  C   UNL     1      -9.592   6.694  73.747  1.00  0.00    -0.203 A  
HETATM   14  C   UNL     1      -9.757   7.426  72.543  1.00  0.00    -0.202 A  
HETATM   15  C   UNL     1     -10.873   7.163  71.564  1.00  0.00    -0.250 C  
ENDROOT
BRANCH   5  16
HETATM   16  C   UNL     1     -10.699   9.406  67.592  1.00  0.00    -0.295 C  
BRANCH  16  17
HETATM   17  C   UNL     1     -10.514  10.415  66.457  1.00  0.00    -0.262 C  
BRANCH  17  18
HETATM   18  C   UNL     1      -9.063  10.765  66.107  1.00  0.00    -0.174 C  
HETATM   19  O   UNL     1      -8.761  10.284  64.798  1.00  0.00    -0.168 OA 
HETATM   20  H   UNL     1      -7.862  10.501  64.582  1.00  0.00     0.000 HD 
BRANCH  18  21
HETATM   21  C   UNL     1      -8.828  12.283  66.103  1.00  0.00     0.062 C  
BRANCH  21  22
HETATM   22  C   UNL     1      -7.777  12.722  67.123  1.00  0.00    -0.072 C  
BRANCH  22  23
HETATM   23  C   UNL     1      -6.353  12.480  66.631  1.00  0.00     0.818 C  
BRANCH  23  24
HETATM   24  C   UNL     1      -5.351  12.948  67.687  1.00  0.00    -0.099 C  
HETATM   25  C   UNL     1      -6.042  13.346  68.978  1.00  0.00    -0.087 C  
ENDBRANCH  23  24
ENDBRANCH  22  23
ENDBRANCH  21  22
ENDBRANCH  18  21
ENDBRANCH  17  18
ENDBRANCH  16  17
ENDBRANCH   5  16
BRANCH  13  26
HETATM   26  O   UNL     1     -10.386   5.702  74.276  1.00  0.00    -0.260 OA 
BRANCH  26  27
HETATM   27  C   UNL     1      -9.831   4.402  74.433  1.00  0.00    -0.155 C  
HETATM   28  C   UNL     1     -10.761   3.322  73.909  1.00  0.00    -0.210 C  
HETATM   29  O   UNL     1     -11.888   3.808  73.345  1.00  0.00    -0.048 OA 
HETATM   30  O   UNL     1     -10.517   2.126  73.978  1.00  0.00    -0.112 OA 
ENDBRANCH  26  27
ENDBRANCH  13  26
TORSDOF 9
ENDMDL
MODEL      193
REMARK 921   NORMALIZED FREE ENERGY PREDICTED BY IDOCK:   -2.15 KCAL/MOL
REMARK 922        TOTAL FREE ENERGY PREDICTED BY IDOCK:   -5.37 KCAL/MOL
REMARK 923 INTER-LIGAND FREE ENERGY PREDICTED BY IDOCK:   -5.24 KCAL/MOL
REMARK 924 INTRA-LIGAND FREE ENERGY PREDICTED BY IDOCK:   -0.13 KCAL/MOL
REMARK 927      BINDING AFFINITY PREDICTED BY RF-SCORE:    0.00 PKD
ROOT
HETATM    1  C   UNL     1     -10.481   6.870  70.135  1.00  0.00    -0.233 C  
HETATM    2  C   UNL     1     -11.427   6.409  71.243  1.00  0.00    -0.371 C  
HETATM    3  C   UNL     1     -11.912   7.723  71.863  1.00  0.00    -0.301 C  
HETATM    4  O   UNL     1     -11.959   7.612  73.279  1.00  0.00    -0.529 OA 
HETATM    5  C   UNL     1     -10.884   8.815  71.464  1.00  0.00    -0.374 C  
HETATM    6  H   UNL     1     -12.260   8.427  73.664  1.00  0.00     0.000 HD 
HETATM    7  C   UNL     1      -6.777   6.011  72.148  1.00  0.00    -0.068 A  
HETATM    8  C   UNL     1      -9.737   8.027  70.780  1.00  0.00    -0.179 C  
HETATM    9  C   UNL     1      -6.016   4.886  71.872  1.00  0.00    -0.017 A  
HETATM   10  C   UNL     1      -8.706   7.535  71.806  1.00  0.00    -0.128 C  
HETATM   11  C   UNL     1      -6.421   4.018  70.863  1.00  0.00    -0.026 A  
HETATM   12  C   UNL     1      -7.939   6.292  71.410  1.00  0.00    -0.109 A  
HETATM   13  C   UNL     1      -7.595   4.248  70.127  1.00  0.00    -0.046 A  
HETATM   14  C   UNL     1      -8.378   5.400  70.393  1.00  0.00    -0.113 A  
HETATM   15  C   UNL     1      -9.574   5.795  69.565  1.00  0.00    -0.181 C  
ENDROOT
BRANCH   5  16
HETATM   16  C   UNL     1     -11.461   9.851  70.474  1.00  0.00    -0.391 C  
BRANCH  16  17
HETATM   17  C   UNL     1     -10.434  10.769  69.808  1.00  0.00    -0.130 C  
BRANCH  17  18
HETATM   18  C   UNL     1     -10.018  10.381  68.383  1.00  0.00    -0.162 C  
HETATM   19  O   UNL     1     -11.105   9.718  67.737  1.00  0.00    -0.467 OA 
HETATM   20  H   UNL     1     -10.848   9.477  66.855  1.00  0.00     0.000 HD 
BRANCH  18  21
HETATM   21  C   UNL     1      -9.664  11.612  67.537  1.00  0.00    -0.185 C  
BRANCH  21  22
HETATM   22  C   UNL     1      -8.723  12.576  68.261  1.00  0.00    -0.171 C  
BRANCH  22  23
HETATM   23  C   UNL     1      -8.052  13.561  67.308  1.00  0.00    -0.141 C  
BRANCH  23  24
HETATM   24  C   UNL     1      -8.878  14.844  67.218  1.00  0.00    -0.216 C  
HETATM   25  C   UNL     1      -9.857  14.800  66.059  1.00  0.00    -0.350 C  
ENDBRANCH  23  24
ENDBRANCH  22  23
ENDBRANCH  21  22
ENDBRANCH  18  21
ENDBRANCH  17  18
ENDBRANCH  16  17
ENDBRANCH   5  16
BRANCH  13  26
HETATM   26  O   UNL     1      -7.778   3.277  69.168  1.00  0.00    -0.051 OA 
BRANCH  26  27
HETATM   27  C   UNL     1      -8.434   3.635  67.959  1.00  0.00    -0.093 C  
HETATM   28  C   UNL     1      -7.993   2.766  66.795  1.00  0.00    -0.076 C  
HETATM   29  O   UNL     1      -7.125   1.793  67.148  1.00  0.00    -0.041 OA 
HETATM   30  O   UNL     1      -8.388   2.917  65.647  1.00  0.00    -0.090 OA 
ENDBRANCH  26  27
ENDBRANCH  13  26
TORSDOF 9
ENDMDL
MODEL      194
REMARK 921   NORMALIZED FREE ENERGY PREDICTED BY IDOCK:   -2.09 KCAL/MOL
REMARK 922        TOTAL FREE ENERGY PREDICTED BY IDOCK:   -5.28 KCAL/MOL
REMARK 923 INTER-LIGAND FREE ENERGY PREDICTED BY IDOCK:   -4.24 KCAL/MOL
REMARK 924 INTRA-LIGAND FREE ENERGY PREDICTED BY IDOCK:   -1.04 KCAL/MOL
REMARK 927      BINDING AFFINITY PREDICTED BY RF-SCORE:    0.00 PKD
ROOT
HETATM    1  C   UNL     1      -7.927   8.514  67.649  1.00  0.00    -0.107 C  
HETATM    2  C   UNL     1      -6.737   8.492  66.690  1.00  0.00    -0.068 C  
HETATM    3  C   UNL     1      -7.216   9.344  65.511  1.00  0.00    -0.088 C  
HETATM    4  O   UNL     1      -6.819   8.753  64.282  1.00  0.00    -0.077 OA 
HETATM    5  C   UNL     1      -8.766   9.387  65.589  1.00  0.00    -0.179 C  
HETATM    6  H   UNL     1      -7.117   9.282  63.551  1.00  0.00     0.000 HD 
HETATM    7  C   UNL     1      -9.410   4.563  66.816  1.00  0.00    -0.159 A  
HETATM    8  C   UNL     1      -9.119   8.384  66.716  1.00  0.00    -0.192 C  
HETATM    9  C   UNL     1      -9.181   3.483  67.655  1.00  0.00    -0.229 A  
HETATM   10  C   UNL     1      -9.258   6.955  66.172  1.00  0.00    -0.118 C  
HETATM   11  C   UNL     1      -8.496   3.679  68.849  1.00  0.00    -0.100 A  
HETATM   12  C   UNL     1      -8.974   5.851  67.168  1.00  0.00    -0.113 A  
HETATM   13  C   UNL     1      -8.015   4.946  69.218  1.00  0.00    -0.075 A  
HETATM   14  C   UNL     1      -8.251   6.061  68.374  1.00  0.00    -0.110 A  
HETATM   15  C   UNL     1      -7.891   7.474  68.754  1.00  0.00    -0.121 C  
ENDROOT
BRANCH   5  16
HETATM   16  C   UNL     1      -9.312  10.786  65.951  1.00  0.00    -0.220 C  
BRANCH  16  17
HETATM   17  C   UNL     1     -10.827  10.870  66.149  1.00  0.00    -0.166 C  
BRANCH  17  18
HETATM   18  C   UNL     1     -11.291  11.392  67.515  1.00  0.00    -0.292 C  
HETATM   19  O   UNL     1     -11.155  10.357  68.488  1.00  0.00    -0.247 OA 
HETATM   20  H   UNL     1     -11.443  10.680  69.334  1.00  0.00     0.000 HD 
BRANCH  18  21
HETATM   21  C   UNL     1     -10.444  12.582  67.989  1.00  0.00    -0.227 C  
BRANCH  21  22
HETATM   22  C   UNL     1     -10.950  13.920  67.448  1.00  0.00    -0.299 C  
BRANCH  22  23
HETATM   23  C   UNL     1      -9.816  14.908  67.188  1.00  0.00    -0.231 C  
BRANCH  23  24
HETATM   24  C   UNL     1     -10.364  16.335  67.166  1.00  0.00    -0.285 C  
HETATM   25  C   UNL     1     -10.931  16.738  68.515  1.00  0.00    -0.312 C  
ENDBRANCH  23  24
ENDBRANCH  22  23
ENDBRANCH  21  22
ENDBRANCH  18  21
ENDBRANCH  17  18
ENDBRANCH  16  17
ENDBRANCH   5  16
BRANCH  13  26
HETATM   26  O   UNL     1      -7.397   4.903  70.448  1.00  0.00    -0.052 OA 
BRANCH  26  27
HETATM   27  C   UNL     1      -6.739   3.703  70.833  1.00  0.00    -0.032 C  
HETATM   28  C   UNL     1      -7.064   3.312  72.263  1.00  0.00    -0.038 C  
HETATM   29  O   UNL     1      -7.954   4.135  72.858  1.00  0.00    -0.083 OA 
HETATM   30  O   UNL     1      -6.579   2.341  72.828  1.00  0.00    -0.017 OA 
ENDBRANCH  26  27
ENDBRANCH  13  26
TORSDOF 9
ENDMDL
MODEL      195
REMARK 921   NORMALIZED FREE ENERGY PREDICTED BY IDOCK:   -2.06 KCAL/MOL
REMARK 922        TOTAL FREE ENERGY PREDICTED BY IDOCK:   -5.23 KCAL/MOL
REMARK 923 INTER-LIGAND FREE ENERGY PREDICTED BY IDOCK:   -4.27 KCAL/MOL
REMARK 924 INTRA-LIGAND FREE ENERGY PREDICTED BY IDOCK:   -0.96 KCAL/MOL
REMARK 927      BINDING AFFINITY PREDICTED BY RF-SCORE:    0.00 PKD
ROOT
HETATM    1  C   UNL     1      -8.339   7.036  67.627  1.00  0.00    -0.117 C  
HETATM    2  C   UNL     1      -6.864   7.174  67.252  1.00  0.00    -0.073 C  
HETATM    3  C   UNL     1      -6.910   7.880  65.893  1.00  0.00    -0.057 C  
HETATM    4  O   UNL     1      -5.953   7.311  65.010  1.00  0.00    -0.036 OA 
HETATM    5  C   UNL     1      -8.336   7.661  65.321  1.00  0.00    -0.121 C  
HETATM    6  H   UNL     1      -5.982   7.749  64.167  1.00  0.00     0.000 HD 
HETATM    7  C   UNL     1      -8.779   2.857  66.706  1.00  0.00    -0.136 A  
HETATM    8  C   UNL     1      -8.994   6.664  66.308  1.00  0.00    -0.168 C  
HETATM    9  C   UNL     1      -8.783   1.870  67.679  1.00  0.00    -0.129 A  
HETATM   10  C   UNL     1      -8.694   5.209  65.918  1.00  0.00    -0.135 C  
HETATM   11  C   UNL     1      -8.702   2.232  69.019  1.00  0.00    -0.129 A  
HETATM   12  C   UNL     1      -8.712   4.215  67.059  1.00  0.00    -0.113 A  
HETATM   13  C   UNL     1      -8.599   3.577  69.409  1.00  0.00    -0.069 A  
HETATM   14  C   UNL     1      -8.604   4.598  68.424  1.00  0.00    -0.106 A  
HETATM   15  C   UNL     1      -8.634   6.067  68.758  1.00  0.00    -0.112 C  
ENDROOT
BRANCH   5  16
HETATM   16  C   UNL     1      -9.168   8.962  65.268  1.00  0.00    -0.158 C  
BRANCH  16  17
HETATM   17  C   UNL     1      -8.404  10.247  65.593  1.00  0.00    -0.159 C  
BRANCH  17  18
HETATM   18  C   UNL     1      -9.232  11.373  66.224  1.00  0.00    -0.208 C  
HETATM   19  O   UNL     1      -8.414  12.532  66.381  1.00  0.00    -0.407 OA 
HETATM   20  H   UNL     1      -8.927  13.229  66.772  1.00  0.00     0.000 HD 
BRANCH  18  21
HETATM   21  C   UNL     1     -10.424  11.768  65.340  1.00  0.00    -0.317 C  
BRANCH  21  22
HETATM   22  C   UNL     1     -10.810  13.240  65.492  1.00  0.00    -0.297 C  
BRANCH  22  23
HETATM   23  C   UNL     1     -12.211  13.417  66.071  1.00  0.00    -0.491 C  
BRANCH  23  24
HETATM   24  C   UNL     1     -12.186  14.464  67.184  1.00  0.00    -0.257 C  
HETATM   25  C   UNL     1     -11.398  13.982  68.389  1.00  0.00    -0.321 C  
ENDBRANCH  23  24
ENDBRANCH  22  23
ENDBRANCH  21  22
ENDBRANCH  18  21
ENDBRANCH  17  18
ENDBRANCH  16  17
ENDBRANCH   5  16
BRANCH  13  26
HETATM   26  O   UNL     1      -8.560   3.695  70.780  1.00  0.00    -0.068 OA 
BRANCH  26  27
HETATM   27  C   UNL     1      -7.574   2.960  71.495  1.00  0.00    -0.041 C  
HETATM   28  C   UNL     1      -6.427   3.845  71.949  1.00  0.00    -0.015 C  
HETATM   29  O   UNL     1      -6.599   5.150  71.646  1.00  0.00    -0.034 OA 
HETATM   30  O   UNL     1      -5.442   3.427  72.541  1.00  0.00     0.000 OA 
ENDBRANCH  26  27
ENDBRANCH  13  26
TORSDOF 9
ENDMDL
MODEL      196
REMARK 921   NORMALIZED FREE ENERGY PREDICTED BY IDOCK:   -1.96 KCAL/MOL
REMARK 922        TOTAL FREE ENERGY PREDICTED BY IDOCK:   -5.08 KCAL/MOL
REMARK 923 INTER-LIGAND FREE ENERGY PREDICTED BY IDOCK:   -4.71 KCAL/MOL
REMARK 924 INTRA-LIGAND FREE ENERGY PREDICTED BY IDOCK:   -0.37 KCAL/MOL
REMARK 927      BINDING AFFINITY PREDICTED BY RF-SCORE:    0.00 PKD
ROOT
HETATM    1  C   UNL     1      -8.441   9.656  68.333  1.00  0.00    -0.118 C  
HETATM    2  C   UNL     1      -7.008  10.154  68.148  1.00  0.00    -0.075 C  
HETATM    3  C   UNL     1      -7.137  11.194  67.030  1.00  0.00    -0.124 C  
HETATM    4  O   UNL     1      -6.052  11.076  66.120  1.00  0.00    -0.132 OA 
HETATM    5  C   UNL     1      -8.468  10.894  66.289  1.00  0.00    -0.166 C  
HETATM    6  H   UNL     1      -6.132  11.721  65.427  1.00  0.00     0.000 HD 
HETATM    7  C   UNL     1      -8.009   5.896  66.287  1.00  0.00    -0.102 A  
HETATM    8  C   UNL     1      -8.956   9.559  66.907  1.00  0.00    -0.148 C  
HETATM    9  C   UNL     1      -7.858   4.690  66.955  1.00  0.00    -0.098 A  
HETATM   10  C   UNL     1      -8.359   8.350  66.171  1.00  0.00    -0.127 C  
HETATM   11  C   UNL     1      -7.905   4.670  68.345  1.00  0.00    -0.080 A  
HETATM   12  C   UNL     1      -8.227   7.088  66.996  1.00  0.00    -0.117 A  
HETATM   13  C   UNL     1      -8.086   5.847  69.089  1.00  0.00    -0.106 A  
HETATM   14  C   UNL     1      -8.251   7.085  68.418  1.00  0.00    -0.124 A  
HETATM   15  C   UNL     1      -8.585   8.372  69.129  1.00  0.00    -0.134 C  
ENDROOT
BRANCH   5  16
HETATM   16  C   UNL     1      -9.538  11.987  66.509  1.00  0.00    -0.234 C  
BRANCH  16  17
HETATM   17  C   UNL     1     -10.623  11.650  67.534  1.00  0.00    -0.245 C  
BRANCH  17  18
HETATM   18  C   UNL     1     -10.841  12.691  68.639  1.00  0.00    -0.249 C  
HETATM   19  O   UNL     1     -10.806  12.045  69.911  1.00  0.00    -0.414 OA 
HETATM   20  H   UNL     1     -10.941  12.689  70.596  1.00  0.00     0.000 HD 
BRANCH  18  21
HETATM   21  C   UNL     1      -9.742  13.763  68.638  1.00  0.00    -0.140 C  
BRANCH  21  22
HETATM   22  C   UNL     1     -10.298  15.180  68.500  1.00  0.00    -0.230 C  
BRANCH  22  23
HETATM   23  C   UNL     1      -9.339  16.113  67.766  1.00  0.00    -0.211 C  
BRANCH  23  24
HETATM   24  C   UNL     1      -8.797  15.424  66.514  1.00  0.00    -0.347 C  
HETATM   25  C   UNL     1      -9.916  14.890  65.639  1.00  0.00    -0.389 C  
ENDBRANCH  23  24
ENDBRANCH  22  23
ENDBRANCH  21  22
ENDBRANCH  18  21
ENDBRANCH  17  18
ENDBRANCH  16  17
ENDBRANCH   5  16
BRANCH  13  26
HETATM   26  O   UNL     1      -8.127   5.579  70.439  1.00  0.00    -0.099 OA 
BRANCH  26  27
HETATM   27  C   UNL     1      -9.395   5.382  71.052  1.00  0.00    -0.150 C  
HETATM   28  C   UNL     1      -9.460   4.068  71.809  1.00  0.00    -0.145 C  
HETATM   29  O   UNL     1      -8.295   3.386  71.808  1.00  0.00    -0.064 OA 
HETATM   30  O   UNL     1     -10.464   3.663  72.378  1.00  0.00    -0.143 OA 
ENDBRANCH  26  27
ENDBRANCH  13  26
TORSDOF 9
ENDMDL
MODEL      197
REMARK 921   NORMALIZED FREE ENERGY PREDICTED BY IDOCK:   -1.90 KCAL/MOL
REMARK 922        TOTAL FREE ENERGY PREDICTED BY IDOCK:   -4.99 KCAL/MOL
REMARK 923 INTER-LIGAND FREE ENERGY PREDICTED BY IDOCK:   -4.57 KCAL/MOL
REMARK 924 INTRA-LIGAND FREE ENERGY PREDICTED BY IDOCK:   -0.43 KCAL/MOL
REMARK 927      BINDING AFFINITY PREDICTED BY RF-SCORE:    0.00 PKD
ROOT
HETATM    1  C   UNL     1      -8.601   8.113  67.545  1.00  0.00    -0.129 C  
HETATM    2  C   UNL     1      -8.521   9.021  66.318  1.00  0.00    -0.132 C  
HETATM    3  C   UNL     1      -9.591  10.082  66.593  1.00  0.00    -0.186 C  
HETATM    4  O   UNL     1     -10.313  10.373  65.405  1.00  0.00    -0.275 OA 
HETATM    5  C   UNL     1     -10.556   9.484  67.652  1.00  0.00    -0.329 C  
HETATM    6  H   UNL     1     -10.977  11.031  65.575  1.00  0.00     0.000 HD 
HETATM    7  C   UNL     1     -10.733   4.857  65.712  1.00  0.00    -0.194 A  
HETATM    8  C   UNL     1     -10.096   8.011  67.797  1.00  0.00    -0.250 C  
HETATM    9  C   UNL     1     -10.111   3.688  65.302  1.00  0.00     0.008 A  
HETATM   10  C   UNL     1     -10.782   7.104  66.765  1.00  0.00    -0.259 C  
HETATM   11  C   UNL     1      -8.751   3.520  65.539  1.00  0.00    -0.122 A  
HETATM   12  C   UNL     1     -10.011   5.861  66.378  1.00  0.00    -0.162 A  
HETATM   13  C   UNL     1      -7.988   4.516  66.171  1.00  0.00    -0.099 A  
HETATM   14  C   UNL     1      -8.615   5.712  66.604  1.00  0.00    -0.117 A  
HETATM   15  C   UNL     1      -7.905   6.771  67.408  1.00  0.00    -0.110 C  
ENDROOT
BRANCH   5  16
HETATM   16  C   UNL     1     -10.462  10.193  69.021  1.00  0.00    -0.239 C  
BRANCH  16  17
HETATM   17  C   UNL     1     -11.763  10.814  69.532  1.00  0.00    -0.384 C  
BRANCH  17  18
HETATM   18  C   UNL     1     -11.777  12.344  69.629  1.00  0.00    -0.307 C  
HETATM   19  O   UNL     1     -12.129  12.731  70.957  1.00  0.00    -0.418 OA 
HETATM   20  H   UNL     1     -12.138  13.679  71.018  1.00  0.00     0.000 HD 
BRANCH  18  21
HETATM   21  C   UNL     1     -10.398  12.948  69.325  1.00  0.00     0.290 C  
BRANCH  21  22
HETATM   22  C   UNL     1     -10.389  13.789  68.049  1.00  0.00    -0.246 C  
BRANCH  22  23
HETATM   23  C   UNL     1      -9.208  14.753  67.996  1.00  0.00    -0.194 C  
BRANCH  23  24
HETATM   24  C   UNL     1      -9.508  15.992  68.839  1.00  0.00    -0.235 C  
HETATM   25  C   UNL     1     -10.857  16.594  68.491  1.00  0.00    -0.356 C  
ENDBRANCH  23  24
ENDBRANCH  22  23
ENDBRANCH  21  22
ENDBRANCH  18  21
ENDBRANCH  17  18
ENDBRANCH  16  17
ENDBRANCH   5  16
BRANCH  13  26
HETATM   26  O   UNL     1      -6.679   4.118  66.322  1.00  0.00    -0.050 OA 
BRANCH  26  27
HETATM   27  C   UNL     1      -6.003   3.574  65.195  1.00  0.00    -0.023 C  
HETATM   28  C   UNL     1      -5.720   4.628  64.141  1.00  0.00    -0.017 C  
HETATM   29  O   UNL     1      -6.102   5.871  64.504  1.00  0.00    -0.024 OA 
HETATM   30  O   UNL     1      -5.189   4.387  63.066  1.00  0.00    -0.008 OA 
ENDBRANCH  26  27
ENDBRANCH  13  26
TORSDOF 9
ENDMDL
MODEL      198
REMARK 921   NORMALIZED FREE ENERGY PREDICTED BY IDOCK:   -1.79 KCAL/MOL
REMARK 922        TOTAL FREE ENERGY PREDICTED BY IDOCK:   -4.82 KCAL/MOL
REMARK 923 INTER-LIGAND FREE ENERGY PREDICTED BY IDOCK:   -4.84 KCAL/MOL
REMARK 924 INTRA-LIGAND FREE ENERGY PREDICTED BY IDOCK:    0.02 KCAL/MOL
REMARK 927      BINDING AFFINITY PREDICTED BY RF-SCORE:    0.00 PKD
ROOT
HETATM    1  C   UNL     1      -8.331   7.704  66.514  1.00  0.00    -0.129 C  
HETATM    2  C   UNL     1      -7.060   8.517  66.754  1.00  0.00    -0.074 C  
HETATM    3  C   UNL     1      -6.551   8.804  65.338  1.00  0.00    -0.067 C  
HETATM    4  O   UNL     1      -5.139   8.658  65.282  1.00  0.00    -0.033 OA 
HETATM    5  C   UNL     1      -7.216   7.759  64.402  1.00  0.00    -0.078 C  
HETATM    6  H   UNL     1      -4.823   8.836  64.404  1.00  0.00     0.000 HD 
HETATM    7  C   UNL     1      -6.730   3.833  67.491  1.00  0.00    -0.043 A  
HETATM    8  C   UNL     1      -7.939   6.787  65.368  1.00  0.00    -0.121 C  
HETATM    9  C   UNL     1      -6.961   3.210  68.708  1.00  0.00    -0.048 A  
HETATM   10  C   UNL     1      -7.004   5.663  65.838  1.00  0.00    -0.066 C  
HETATM   11  C   UNL     1      -7.791   3.822  69.641  1.00  0.00    -0.052 A  
HETATM   12  C   UNL     1      -7.339   5.061  67.185  1.00  0.00    -0.082 A  
HETATM   13  C   UNL     1      -8.389   5.067  69.385  1.00  0.00    -0.085 A  
HETATM   14  C   UNL     1      -8.169   5.710  68.140  1.00  0.00    -0.096 A  
HETATM   15  C   UNL     1      -8.876   6.975  67.729  1.00  0.00    -0.123 C  
ENDROOT
BRANCH   5  16
HETATM   16  C   UNL     1      -8.243   8.386  63.434  1.00  0.00    -0.114 C  
BRANCH  16  17
HETATM   17  C   UNL     1      -8.314   9.914  63.448  1.00  0.00    -0.168 C  
BRANCH  17  18
HETATM   18  C   UNL     1      -9.312  10.525  64.440  1.00  0.00    -0.262 C  
HETATM   19  O   UNL     1      -8.655  11.526  65.217  1.00  0.00    -0.383 OA 
HETATM   20  H   UNL     1      -9.272  11.904  65.831  1.00  0.00     0.000 HD 
BRANCH  18  21
HETATM   21  C   UNL     1     -10.489  11.201  63.722  1.00  0.00    -0.444 C  
BRANCH  21  22
HETATM   22  C   UNL     1     -11.181  12.256  64.585  1.00  0.00    -0.363 C  
BRANCH  22  23
HETATM   23  C   UNL     1     -10.302  13.480  64.825  1.00  0.00    -0.405 C  
BRANCH  23  24
HETATM   24  C   UNL     1     -11.155  14.642  65.333  1.00  0.00    -0.349 C  
HETATM   25  C   UNL     1     -12.446  14.776  64.546  1.00  0.00    -0.272 C  
ENDBRANCH  23  24
ENDBRANCH  22  23
ENDBRANCH  21  22
ENDBRANCH  18  21
ENDBRANCH  17  18
ENDBRANCH  16  17
ENDBRANCH   5  16
BRANCH  13  26
HETATM   26  O   UNL     1      -9.186   5.460  70.437  1.00  0.00    -0.146 OA 
BRANCH  26  27
HETATM   27  C   UNL     1      -8.865   6.669  71.114  1.00  0.00    -0.137 C  
HETATM   28  C   UNL     1     -10.052   7.613  71.180  1.00  0.00    -0.184 C  
HETATM   29  O   UNL     1     -11.182   7.099  70.648  1.00  0.00    -0.261 OA 
HETATM   30  O   UNL     1     -10.003   8.731  71.675  1.00  0.00    -0.254 OA 
ENDBRANCH  26  27
ENDBRANCH  13  26
TORSDOF 9
ENDMDL
MODEL      199
REMARK 921   NORMALIZED FREE ENERGY PREDICTED BY IDOCK:   -1.64 KCAL/MOL
REMARK 922        TOTAL FREE ENERGY PREDICTED BY IDOCK:   -4.59 KCAL/MOL
REMARK 923 INTER-LIGAND FREE ENERGY PREDICTED BY IDOCK:   -3.98 KCAL/MOL
REMARK 924 INTRA-LIGAND FREE ENERGY PREDICTED BY IDOCK:   -0.61 KCAL/MOL
REMARK 927      BINDING AFFINITY PREDICTED BY RF-SCORE:    0.00 PKD
ROOT
HETATM    1  C   UNL     1      -7.896  13.073  68.948  1.00  0.00     0.131 C  
HETATM    2  C   UNL     1      -7.153  11.799  68.549  1.00  0.00    -0.091 C  
HETATM    3  C   UNL     1      -5.758  12.307  68.171  1.00  0.00    -0.056 C  
HETATM    4  O   UNL     1      -5.289  11.639  67.008  1.00  0.00    -0.089 OA 
HETATM    5  C   UNL     1      -5.898  13.825  67.876  1.00  0.00    -0.135 C  
HETATM    6  H   UNL     1      -4.423  11.955  66.774  1.00  0.00     0.000 HD 
HETATM    7  C   UNL     1     -10.233  13.523  65.365  1.00  0.00    -0.316 A  
HETATM    8  C   UNL     1      -7.425  14.082  67.915  1.00  0.00    -0.153 C  
HETATM    9  C   UNL     1     -11.570  13.164  65.290  1.00  0.00    -0.350 A  
HETATM   10  C   UNL     1      -8.071  13.830  66.544  1.00  0.00     0.722 C  
HETATM   11  C   UNL     1     -12.215  12.694  66.429  1.00  0.00    -0.174 A  
HETATM   12  C   UNL     1      -9.531  13.432  66.578  1.00  0.00    -0.252 A  
HETATM   13  C   UNL     1     -11.537  12.556  67.651  1.00  0.00    -0.355 A  
HETATM   14  C   UNL     1     -10.171  12.929  67.743  1.00  0.00    -0.224 A  
HETATM   15  C   UNL     1      -9.406  12.943  69.041  1.00  0.00     0.453 C  
ENDROOT
BRANCH   5  16
HETATM   16  C   UNL     1      -5.198  14.709  68.931  1.00  0.00    -0.088 C  
BRANCH  16  17
HETATM   17  C   UNL     1      -6.117  15.333  69.982  1.00  0.00    -0.150 C  
BRANCH  17  18
HETATM   18  C   UNL     1      -6.165  16.866  70.000  1.00  0.00    -0.056 C  
HETATM   19  O   UNL     1      -5.424  17.351  71.119  1.00  0.00    -0.138 OA 
HETATM   20  H   UNL     1      -5.454  18.300  71.129  1.00  0.00     0.000 HD 
BRANCH  18  21
HETATM   21  C   UNL     1      -5.536  17.470  68.736  1.00  0.00    -0.160 C  
BRANCH  21  22
HETATM   22  C   UNL     1      -5.465  18.997  68.782  1.00  0.00    -0.204 C  
BRANCH  22  23
HETATM   23  C   UNL     1      -6.636  19.656  68.059  1.00  0.00    -0.283 C  
BRANCH  23  24
HETATM   24  C   UNL     1      -7.861  19.689  68.974  1.00  0.00    -0.266 C  
HETATM   25  C   UNL     1      -8.859  18.603  68.615  1.00  0.00    -0.333 C  
ENDBRANCH  23  24
ENDBRANCH  22  23
ENDBRANCH  21  22
ENDBRANCH  18  21
ENDBRANCH  17  18
ENDBRANCH  16  17
ENDBRANCH   5  16
BRANCH  13  26
HETATM   26  O   UNL     1     -12.381  12.101  68.639  1.00  0.00    -0.168 OA 
BRANCH  26  27
HETATM   27  C   UNL     1     -12.134  10.819  69.202  1.00  0.00    -0.156 C  
HETATM   28  C   UNL     1     -12.205  10.843  70.718  1.00  0.00    -0.383 C  
HETATM   29  O   UNL     1     -12.550  12.047  71.223  1.00  0.00    -0.347 OA 
HETATM   30  O   UNL     1     -11.983   9.868  71.423  1.00  0.00    -0.362 OA 
ENDBRANCH  26  27
ENDBRANCH  13  26
TORSDOF 9
ENDMDL
MODEL      200
REMARK 921   NORMALIZED FREE ENERGY PREDICTED BY IDOCK:   -1.58 KCAL/MOL
REMARK 922        TOTAL FREE ENERGY PREDICTED BY IDOCK:   -4.51 KCAL/MOL
REMARK 923 INTER-LIGAND FREE ENERGY PREDICTED BY IDOCK:   -4.29 KCAL/MOL
REMARK 924 INTRA-LIGAND FREE ENERGY PREDICTED BY IDOCK:   -0.21 KCAL/MOL
REMARK 927      BINDING AFFINITY PREDICTED BY RF-SCORE:    0.00 PKD
ROOT
HETATM    1  C   UNL     1     -10.611   6.154  70.351  1.00  0.00    -0.317 C  
HETATM    2  C   UNL     1     -11.231   7.487  70.770  1.00  0.00    -0.287 C  
HETATM    3  C   UNL     1     -11.167   8.324  69.489  1.00  0.00     0.166 C  
HETATM    4  O   UNL     1     -10.781   9.657  69.790  1.00  0.00    -0.220 OA 
HETATM    5  C   UNL     1     -10.096   7.668  68.577  1.00  0.00    -0.205 C  
HETATM    6  H   UNL     1     -10.741  10.177  68.995  1.00  0.00     0.000 HD 
HETATM    7  C   UNL     1      -6.768   6.698  72.207  1.00  0.00    -0.059 A  
HETATM    8  C   UNL     1      -9.450   6.579  69.469  1.00  0.00    -0.150 C  
HETATM    9  C   UNL     1      -6.423   6.100  73.409  1.00  0.00    -0.069 A  
HETATM   10  C   UNL     1      -8.289   7.149  70.298  1.00  0.00    -0.136 C  
HETATM   11  C   UNL     1      -7.324   5.237  74.025  1.00  0.00    -0.083 A  
HETATM   12  C   UNL     1      -8.005   6.428  71.598  1.00  0.00    -0.102 A  
HETATM   13  C   UNL     1      -8.584   4.970  73.465  1.00  0.00    -0.108 A  
HETATM   14  C   UNL     1      -8.945   5.568  72.230  1.00  0.00    -0.143 A  
HETATM   15  C   UNL     1     -10.216   5.234  71.492  1.00  0.00    -0.276 C  
ENDROOT
BRANCH   5  16
HETATM   16  C   UNL     1     -10.700   7.012  67.316  1.00  0.00    -0.412 C  
BRANCH  16  17
HETATM   17  C   UNL     1     -10.416   5.518  67.150  1.00  0.00    -0.321 C  
BRANCH  17  18
HETATM   18  C   UNL     1      -9.451   5.145  66.017  1.00  0.00    -0.160 C  
HETATM   19  O   UNL     1      -8.270   5.938  66.121  1.00  0.00    -0.109 OA 
HETATM   20  H   UNL     1      -7.672   5.707  65.421  1.00  0.00     0.000 HD 
BRANCH  18  21
HETATM   21  C   UNL     1      -9.024   3.672  66.095  1.00  0.00    -0.142 C  
BRANCH  21  22
HETATM   22  C   UNL     1      -9.125   2.955  64.749  1.00  0.00    -0.136 C  
BRANCH  22  23
HETATM   23  C   UNL     1      -8.110   3.475  63.735  1.00  0.00    -0.089 C  
BRANCH  23  24
HETATM   24  C   UNL     1      -8.837   4.083  62.535  1.00  0.00    -0.098 C  
HETATM   25  C   UNL     1      -8.509   5.555  62.369  1.00  0.00    -0.100 C  
ENDBRANCH  23  24
ENDBRANCH  22  23
ENDBRANCH  21  22
ENDBRANCH  18  21
ENDBRANCH  17  18
ENDBRANCH  16  17
ENDBRANCH   5  16
BRANCH  13  26
HETATM   26  O   UNL     1      -9.288   4.070  74.232  1.00  0.00    -0.104 OA 
BRANCH  26  27
HETATM   27  C   UNL     1     -10.690   3.956  74.025  1.00  0.00    -0.220 C  
HETATM   28  C   UNL     1     -11.104   2.526  73.726  1.00  0.00    -0.209 C  
HETATM   29  O   UNL     1     -10.082   1.646  73.780  1.00  0.00    -0.079 OA 
HETATM   30  O   UNL     1     -12.253   2.193  73.469  1.00  0.00    -0.122 OA 
ENDBRANCH  26  27
ENDBRANCH  13  26
TORSDOF 9
ENDMDL
MODEL      201
REMARK 921   NORMALIZED FREE ENERGY PREDICTED BY IDOCK:   -0.41 KCAL/MOL
REMARK 922        TOTAL FREE ENERGY PREDICTED BY IDOCK:   -2.72 KCAL/MOL
REMARK 923 INTER-LIGAND FREE ENERGY PREDICTED BY IDOCK:   -4.03 KCAL/MOL
REMARK 924 INTRA-LIGAND FREE ENERGY PREDICTED BY IDOCK:    1.31 KCAL/MOL
REMARK 927      BINDING AFFINITY PREDICTED BY RF-SCORE:    0.00 PKD
ROOT
HETATM    1  C   UNL     1     -10.159  12.643  65.757  1.00  0.00    -0.284 C  
HETATM    2  C   UNL     1     -11.640  12.542  66.122  1.00  0.00    -0.448 C  
HETATM    3  C   UNL     1     -12.292  12.060  64.823  1.00  0.00    -0.092 C  
HETATM    4  O   UNL     1     -13.517  12.745  64.603  1.00  0.00    -0.471 OA 
HETATM    5  C   UNL     1     -11.301  12.389  63.674  1.00  0.00    -0.556 C  
HETATM    6  H   UNL     1     -13.922  12.446  63.796  1.00  0.00     0.000 HD 
HETATM    7  C   UNL     1      -9.958  16.922  65.360  1.00  0.00     0.149 A  
HETATM    8  C   UNL     1     -10.192  13.230  64.356  1.00  0.00    -0.300 C  
HETATM    9  C   UNL     1      -9.429  17.744  66.344  1.00  0.00    -0.277 A  
HETATM   10  C   UNL     1     -10.552  14.723  64.377  1.00  0.00     0.191 C  
HETATM   11  C   UNL     1      -8.882  17.173  67.488  1.00  0.00    -0.218 A  
HETATM   12  C   UNL     1      -9.930  15.525  65.499  1.00  0.00    -0.377 A  
HETATM   13  C   UNL     1      -8.868  15.781  67.678  1.00  0.00    -0.175 A  
HETATM   14  C   UNL     1      -9.397  14.930  66.675  1.00  0.00    -0.291 A  
HETATM   15  C   UNL     1      -9.301  13.427  66.734  1.00  0.00    -0.260 C  
ENDROOT
BRANCH   5  16
HETATM   16  C   UNL     1     -10.677  11.128  63.038  1.00  0.00     0.037 C  
BRANCH  16  17
HETATM   17  C   UNL     1      -9.190  10.912  63.326  1.00  0.00    -0.293 C  
BRANCH  17  18
HETATM   18  C   UNL     1      -8.853   9.714  64.222  1.00  0.00    -0.228 C  
HETATM   19  O   UNL     1      -9.660   8.599  63.846  1.00  0.00     0.524 OA 
HETATM   20  H   UNL     1      -9.451   7.857  64.401  1.00  0.00     0.000 HD 
BRANCH  18  21
HETATM   21  C   UNL     1      -7.384   9.288  64.075  1.00  0.00    -0.102 C  
BRANCH  21  22
HETATM   22  C   UNL     1      -6.897   8.433  65.245  1.00  0.00    -0.067 C  
BRANCH  22  23
HETATM   23  C   UNL     1      -7.996   7.537  65.808  1.00  0.00    -0.117 C  
BRANCH  23  24
HETATM   24  C   UNL     1      -7.982   7.593  67.335  1.00  0.00    -0.119 C  
HETATM   25  C   UNL     1      -7.105   8.721  67.847  1.00  0.00    -0.079 C  
ENDBRANCH  23  24
ENDBRANCH  22  23
ENDBRANCH  21  22
ENDBRANCH  18  21
ENDBRANCH  17  18
ENDBRANCH  16  17
ENDBRANCH   5  16
BRANCH  13  26
HETATM   26  O   UNL     1      -8.254  15.449  68.865  1.00  0.00    -0.160 OA 
BRANCH  26  27
HETATM   27  C   UNL     1      -8.950  14.602  69.772  1.00  0.00     0.470 C  
HETATM   28  C   UNL     1     -10.289  15.188  70.181  1.00  0.00    -0.121 C  
HETATM   29  O   UNL     1     -10.582  16.351  69.559  1.00  0.00    -0.287 OA 
HETATM   30  O   UNL     1     -11.042  14.660  70.987  1.00  0.00    -0.080 OA 
ENDBRANCH  26  27
ENDBRANCH  13  26
TORSDOF 9
ENDMDL
MODEL      202
REMARK 921   NORMALIZED FREE ENERGY PREDICTED BY IDOCK:   -0.22 KCAL/MOL
REMARK 922        TOTAL FREE ENERGY PREDICTED BY IDOCK:   -2.43 KCAL/MOL
REMARK 923 INTER-LIGAND FREE ENERGY PREDICTED BY IDOCK:   -2.09 KCAL/MOL
REMARK 924 INTRA-LIGAND FREE ENERGY PREDICTED BY IDOCK:   -0.33 KCAL/MOL
REMARK 927      BINDING AFFINITY PREDICTED BY RF-SCORE:    0.00 PKD
ROOT
HETATM    1  C   UNL     1     -10.699  11.630  69.513  1.00  0.00    -0.002 C  
HETATM    2  C   UNL     1     -11.334  12.815  70.239  1.00  0.00     0.336 C  
HETATM    3  C   UNL     1     -12.483  12.175  71.024  1.00  0.00    -0.269 C  
HETATM    4  O   UNL     1     -13.641  12.996  70.962  1.00  0.00     0.194 OA 
HETATM    5  C   UNL     1     -12.782  10.809  70.349  1.00  0.00    -0.346 C  
HETATM    6  H   UNL     1     -14.353  12.599  71.449  1.00  0.00     0.000 HD 
HETATM    7  C   UNL     1     -12.335  12.403  65.610  1.00  0.00    -0.182 A  
HETATM    8  C   UNL     1     -11.903  10.814  69.073  1.00  0.00    -0.325 C  
HETATM    9  C   UNL     1     -11.602  12.992  64.592  1.00  0.00    -0.389 A  
HETATM   10  C   UNL     1     -12.632  11.474  67.893  1.00  0.00     1.819 C  
HETATM   11  C   UNL     1     -10.262  13.297  64.805  1.00  0.00    -0.323 A  
HETATM   12  C   UNL     1     -11.736  12.097  66.843  1.00  0.00    -0.374 A  
HETATM   13  C   UNL     1      -9.638  13.038  66.036  1.00  0.00    -0.165 A  
HETATM   14  C   UNL     1     -10.374  12.427  67.083  1.00  0.00    -0.232 A  
HETATM   15  C   UNL     1      -9.752  11.991  68.384  1.00  0.00    -0.199 C  
ENDROOT
BRANCH   5  16
HETATM   16  C   UNL     1     -12.399   9.603  71.235  1.00  0.00    -0.449 C  
BRANCH  16  17
HETATM   17  C   UNL     1     -10.985   9.057  71.030  1.00  0.00    -0.352 C  
BRANCH  17  18
HETATM   18  C   UNL     1     -10.840   7.533  71.117  1.00  0.00    -0.238 C  
HETATM   19  O   UNL     1     -11.483   7.062  72.301  1.00  0.00    -0.258 OA 
HETATM   20  H   UNL     1     -11.393   6.119  72.355  1.00  0.00     0.000 HD 
BRANCH  18  21
HETATM   21  C   UNL     1     -11.504   6.829  69.924  1.00  0.00    -0.355 C  
BRANCH  21  22
HETATM   22  C   UNL     1     -11.136   7.465  68.583  1.00  0.00     0.118 C  
BRANCH  22  23
HETATM   23  C   UNL     1      -9.632   7.449  68.324  1.00  0.00    -0.153 C  
BRANCH  23  24
HETATM   24  C   UNL     1      -9.202   6.065  67.838  1.00  0.00    -0.111 C  
HETATM   25  C   UNL     1      -8.276   5.385  68.829  1.00  0.00    -0.094 C  
ENDBRANCH  23  24
ENDBRANCH  22  23
ENDBRANCH  21  22
ENDBRANCH  18  21
ENDBRANCH  17  18
ENDBRANCH  16  17
ENDBRANCH   5  16
BRANCH  13  26
HETATM   26  O   UNL     1      -8.309  13.397  66.004  1.00  0.00     0.884 OA 
BRANCH  26  27
HETATM   27  C   UNL     1      -7.654  13.678  67.235  1.00  0.00    -0.055 C  
HETATM   28  C   UNL     1      -7.568  15.170  67.502  1.00  0.00    -0.192 C  
HETATM   29  O   UNL     1      -8.180  15.923  66.563  1.00  0.00    -0.270 OA 
HETATM   30  O   UNL     1      -7.008  15.653  68.477  1.00  0.00    -0.111 OA 
ENDBRANCH  26  27
ENDBRANCH  13  26
TORSDOF 9
ENDMDL
MODEL      203
REMARK 921   NORMALIZED FREE ENERGY PREDICTED BY IDOCK:    1.65 KCAL/MOL
REMARK 922        TOTAL FREE ENERGY PREDICTED BY IDOCK:    0.42 KCAL/MOL
REMARK 923 INTER-LIGAND FREE ENERGY PREDICTED BY IDOCK:   -0.61 KCAL/MOL
REMARK 924 INTRA-LIGAND FREE ENERGY PREDICTED BY IDOCK:    1.03 KCAL/MOL
REMARK 927      BINDING AFFINITY PREDICTED BY RF-SCORE:    0.00 PKD
ROOT
HETATM    1  C   UNL     1     -10.807   7.206  69.156  1.00  0.00    -0.185 C  
HETATM    2  C   UNL     1     -11.795   7.313  70.317  1.00  0.00    -0.109 C  
HETATM    3  C   UNL     1     -12.363   8.728  70.169  1.00  0.00     0.765 C  
HETATM    4  O   UNL     1     -12.484   9.346  71.442  1.00  0.00    -0.317 OA 
HETATM    5  C   UNL     1     -11.355   9.527  69.300  1.00  0.00     0.058 C  
HETATM    6  H   UNL     1     -12.836  10.224  71.350  1.00  0.00     0.000 HD 
HETATM    7  C   UNL     1      -7.191   7.708  71.434  1.00  0.00    -0.066 A  
HETATM    8  C   UNL     1     -10.144   8.572  69.145  1.00  0.00    -0.207 C  
HETATM    9  C   UNL     1      -6.375   6.646  71.790  1.00  0.00    -0.042 A  
HETATM   10  C   UNL     1      -9.154   8.730  70.309  1.00  0.00    -0.185 C  
HETATM   11  C   UNL     1      -6.691   5.365  71.351  1.00  0.00    -0.052 A  
HETATM   12  C   UNL     1      -8.320   7.507  70.622  1.00  0.00    -0.126 A  
HETATM   13  C   UNL     1      -7.830   5.119  70.567  1.00  0.00    -0.082 A  
HETATM   14  C   UNL     1      -8.668   6.198  70.187  1.00  0.00    -0.141 A  
HETATM   15  C   UNL     1      -9.830   6.047  69.239  1.00  0.00    -0.191 C  
ENDROOT
BRANCH   5  16
HETATM   16  C   UNL     1     -11.914   9.883  67.905  1.00  0.00     2.039 C  
BRANCH  16  17
HETATM   17  C   UNL     1     -10.982  10.704  67.011  1.00  0.00    -0.274 C  
BRANCH  17  18
HETATM   18  C   UNL     1     -11.283  12.206  66.936  1.00  0.00    -0.320 C  
HETATM   19  O   UNL     1     -12.051  12.593  68.075  1.00  0.00    -0.305 OA 
HETATM   20  H   UNL     1     -12.238  13.522  68.029  1.00  0.00     0.000 HD 
BRANCH  18  21
HETATM   21  C   UNL     1      -9.998  13.046  66.941  1.00  0.00    -0.243 C  
BRANCH  21  22
HETATM   22  C   UNL     1      -9.313  13.088  65.575  1.00  0.00     0.277 C  
BRANCH  22  23
HETATM   23  C   UNL     1     -10.295  13.365  64.440  1.00  0.00    -0.347 C  
BRANCH  23  24
HETATM   24  C   UNL     1     -10.567  14.866  64.342  1.00  0.00     0.234 C  
HETATM   25  C   UNL     1     -10.015  15.615  65.541  1.00  0.00    -0.364 C  
ENDBRANCH  23  24
ENDBRANCH  22  23
ENDBRANCH  21  22
ENDBRANCH  18  21
ENDBRANCH  17  18
ENDBRANCH  16  17
ENDBRANCH   5  16
BRANCH  13  26
HETATM   26  O   UNL     1      -7.923   3.788  70.230  1.00  0.00    -0.047 OA 
BRANCH  26  27
HETATM   27  C   UNL     1      -7.932   2.824  71.276  1.00  0.00    -0.050 C  
HETATM   28  C   UNL     1      -9.023   3.104  72.294  1.00  0.00    -0.094 C  
HETATM   29  O   UNL     1      -9.801   4.161  71.975  1.00  0.00    -0.158 OA 
HETATM   30  O   UNL     1      -9.195   2.436  73.304  1.00  0.00    -0.082 OA 
ENDBRANCH  26  27
ENDBRANCH  13  26
TORSDOF 9
ENDMDL
MODEL      204
REMARK 921   NORMALIZED FREE ENERGY PREDICTED BY IDOCK:    1.77 KCAL/MOL
REMARK 922        TOTAL FREE ENERGY PREDICTED BY IDOCK:    0.61 KCAL/MOL
REMARK 923 INTER-LIGAND FREE ENERGY PREDICTED BY IDOCK:    0.65 KCAL/MOL
REMARK 924 INTRA-LIGAND FREE ENERGY PREDICTED BY IDOCK:   -0.04 KCAL/MOL
REMARK 927      BINDING AFFINITY PREDICTED BY RF-SCORE:    0.00 PKD
ROOT
HETATM    1  C   UNL     1     -10.557  11.564  69.684  1.00  0.00     0.139 C  
HETATM    2  C   UNL     1     -11.424  12.277  70.721  1.00  0.00     0.957 C  
HETATM    3  C   UNL     1     -12.653  11.369  70.839  1.00  0.00    -0.356 C  
HETATM    4  O   UNL     1     -13.837  12.150  70.917  1.00  0.00     1.252 OA 
HETATM    5  C   UNL     1     -12.691  10.496  69.556  1.00  0.00     0.347 C  
HETATM    6  H   UNL     1     -14.599  11.587  70.990  1.00  0.00     0.000 HD 
HETATM    7  C   UNL     1     -11.416  14.140  66.348  1.00  0.00    -0.362 A  
HETATM    8  C   UNL     1     -11.573  11.086  68.660  1.00  0.00    -0.385 C  
HETATM    9  C   UNL     1     -10.541  15.123  65.914  1.00  0.00    -0.347 A  
HETATM   10  C   UNL     1     -12.096  12.245  67.800  1.00  0.00    -0.033 C  
HETATM   11  C   UNL     1      -9.303  15.258  66.534  1.00  0.00    -0.309 A  
HETATM   12  C   UNL     1     -11.059  13.270  67.391  1.00  0.00    -0.300 A  
HETATM   13  C   UNL     1      -8.926  14.429  67.603  1.00  0.00    -0.192 A  
HETATM   14  C   UNL     1      -9.808  13.413  68.050  1.00  0.00    -0.229 A  
HETATM   15  C   UNL     1      -9.431  12.395  69.096  1.00  0.00     0.558 C  
ENDROOT
BRANCH   5  16
HETATM   16  C   UNL     1     -12.399   9.005  69.834  1.00  0.00     1.000 C  
BRANCH  16  17
HETATM   17  C   UNL     1     -10.919   8.625  69.904  1.00  0.00    -0.169 C  
BRANCH  17  18
HETATM   18  C   UNL     1     -10.551   7.266  69.296  1.00  0.00    -0.221 C  
HETATM   19  O   UNL     1     -11.443   6.268  69.791  1.00  0.00    -0.430 OA 
HETATM   20  H   UNL     1     -11.215   5.427  69.415  1.00  0.00     0.000 HD 
BRANCH  18  21
HETATM   21  C   UNL     1     -10.675   7.274  67.765  1.00  0.00    -0.267 C  
BRANCH  21  22
HETATM   22  C   UNL     1     -10.165   8.572  67.138  1.00  0.00    -0.355 C  
BRANCH  22  23
HETATM   23  C   UNL     1      -8.713   8.866  67.507  1.00  0.00    -0.124 C  
BRANCH  23  24
HETATM   24  C   UNL     1      -7.775   8.031  66.635  1.00  0.00    -0.094 C  
HETATM   25  C   UNL     1      -7.013   7.006  67.454  1.00  0.00    -0.079 C  
ENDBRANCH  23  24
ENDBRANCH  22  23
ENDBRANCH  21  22
ENDBRANCH  18  21
ENDBRANCH  17  18
ENDBRANCH  16  17
ENDBRANCH   5  16
BRANCH  13  26
HETATM   26  O   UNL     1      -7.653  14.727  68.037  1.00  0.00    -0.106 OA 
BRANCH  26  27
HETATM   27  C   UNL     1      -6.565  14.496  67.150  1.00  0.00     0.541 C  
HETATM   28  C   UNL     1      -6.122  13.044  67.163  1.00  0.00     0.286 C  
HETATM   29  O   UNL     1      -6.880  12.255  67.954  1.00  0.00    -0.075 OA 
HETATM   30  O   UNL     1      -5.176  12.619  66.515  1.00  0.00     0.006 OA 
ENDBRANCH  26  27
ENDBRANCH  13  26
TORSDOF 9
ENDMDL
MODEL      205
REMARK 921   NORMALIZED FREE ENERGY PREDICTED BY IDOCK:    3.14 KCAL/MOL
REMARK 922        TOTAL FREE ENERGY PREDICTED BY IDOCK:    2.71 KCAL/MOL
REMARK 923 INTER-LIGAND FREE ENERGY PREDICTED BY IDOCK:   -2.15 KCAL/MOL
REMARK 924 INTRA-LIGAND FREE ENERGY PREDICTED BY IDOCK:    4.86 KCAL/MOL
REMARK 927      BINDING AFFINITY PREDICTED BY RF-SCORE:    0.00 PKD
ROOT
HETATM    1  C   UNL     1      -8.263   7.746  67.950  1.00  0.00    -0.123 C  
HETATM    2  C   UNL     1      -8.429   9.245  68.195  1.00  0.00    -0.121 C  
HETATM    3  C   UNL     1      -7.076   9.825  67.771  1.00  0.00    -0.087 C  
HETATM    4  O   UNL     1      -6.663  10.831  68.685  1.00  0.00    -0.055 OA 
HETATM    5  C   UNL     1      -6.058   8.654  67.796  1.00  0.00    -0.048 C  
HETATM    6  H   UNL     1      -5.823  11.191  68.422  1.00  0.00     0.000 HD 
HETATM    7  C   UNL     1      -7.707   6.551  72.045  1.00  0.00    -0.098 A  
HETATM    8  C   UNL     1      -6.845   7.477  68.426  1.00  0.00    -0.063 C  
HETATM    9  C   UNL     1      -8.715   5.977  72.803  1.00  0.00    -0.124 A  
HETATM   10  C   UNL     1      -6.751   7.496  69.959  1.00  0.00    -0.046 C  
HETATM   11  C   UNL     1      -9.947   5.714  72.213  1.00  0.00    -0.204 A  
HETATM   12  C   UNL     1      -7.910   6.852  70.689  1.00  0.00    -0.101 A  
HETATM   13  C   UNL     1     -10.199   6.033  70.869  1.00  0.00    -0.206 A  
HETATM   14  C   UNL     1      -9.173   6.612  70.080  1.00  0.00    -0.158 A  
HETATM   15  C   UNL     1      -9.310   6.861  68.600  1.00  0.00    -0.135 C  
ENDROOT
BRANCH   5  16
HETATM   16  C   UNL     1      -5.568   8.253  66.387  1.00  0.00    -0.032 C  
BRANCH  16  17
HETATM   17  C   UNL     1      -6.486   8.656  65.231  1.00  0.00    -0.063 C  
BRANCH  17  18
HETATM   18  C   UNL     1      -7.817   7.900  65.143  1.00  0.00    -0.114 C  
HETATM   19  O   UNL     1      -8.838   8.789  64.690  1.00  0.00    -0.376 OA 
HETATM   20  H   UNL     1      -9.662   8.322  64.636  1.00  0.00     0.000 HD 
BRANCH  18  21
HETATM   21  C   UNL     1      -7.747   6.736  64.144  1.00  0.00    -0.113 C  
BRANCH  21  22
HETATM   22  C   UNL     1      -6.431   5.962  64.231  1.00  0.00    -0.033 C  
BRANCH  22  23
HETATM   23  C   UNL     1      -6.467   4.870  65.296  1.00  0.00    -0.036 C  
BRANCH  23  24
HETATM   24  C   UNL     1      -7.903   4.384  65.496  1.00  0.00    -0.094 C  
HETATM   25  C   UNL     1      -8.230   4.187  66.965  1.00  0.00    -0.100 C  
ENDBRANCH  23  24
ENDBRANCH  22  23
ENDBRANCH  21  22
ENDBRANCH  18  21
ENDBRANCH  17  18
ENDBRANCH  16  17
ENDBRANCH   5  16
BRANCH  13  26
HETATM   26  O   UNL     1     -11.471   5.658  70.500  1.00  0.00    -0.049 OA 
BRANCH  26  27
HETATM   27  C   UNL     1     -12.568   6.141  71.265  1.00  0.00     0.616 C  
HETATM   28  C   UNL     1     -12.175   7.320  72.137  1.00  0.00    -0.223 C  
HETATM   29  O   UNL     1     -10.895   7.714  71.966  1.00  0.00    -0.223 OA 
HETATM   30  O   UNL     1     -12.940   7.873  72.914  1.00  0.00     0.256 OA 
ENDBRANCH  26  27
ENDBRANCH  13  26
TORSDOF 9
ENDMDL
