MODEL        1
REMARK 921   NORMALIZED FREE ENERGY PREDICTED BY IDOCK:   -6.37 KCAL/MOL
REMARK 922        TOTAL FREE ENERGY PREDICTED BY IDOCK:   -8.48 KCAL/MOL
REMARK 923 INTER-LIGAND FREE ENERGY PREDICTED BY IDOCK:   -7.86 KCAL/MOL
REMARK 924 INTRA-LIGAND FREE ENERGY PREDICTED BY IDOCK:   -0.62 KCAL/MOL
REMARK 927      BINDING AFFINITY PREDICTED BY RF-SCORE:    0.00 PKD
ROOT
HETATM    1  C   UNL     1     -12.328  12.512  70.624  1.00  0.00    -0.369 C  
HETATM    2  C   UNL     1     -11.793  11.289  69.913  1.00  0.00    -0.436 C  
HETATM    3  C   UNL     1     -11.620  11.294  68.569  1.00  0.00    -0.384 C  
ENDROOT
BRANCH   2   4
HETATM    4  C   UNL     1     -11.460  10.093  70.691  1.00  0.00    -0.432 C  
HETATM    5  C   UNL     1     -11.264   8.848  70.217  1.00  0.00    -0.219 C  
BRANCH   5   6
HETATM    6  C   UNL     1     -10.926   7.681  71.036  1.00  0.00    -0.262 C  
HETATM    7  C   UNL     1      -8.743   8.574  71.972  1.00  0.00    -0.265 C  
HETATM    8  C   UNL     1     -11.889   6.945  71.629  1.00  0.00    -0.363 C  
HETATM    9  C   UNL     1     -11.606   5.742  72.481  1.00  0.00    -0.321 C  
HETATM   10  C   UNL     1     -13.375   7.236  71.553  1.00  0.00    -0.435 C  
HETATM   11  C   UNL     1      -8.746   7.307  69.815  1.00  0.00    -0.142 C  
HETATM   12  C   UNL     1      -9.420   7.406  71.209  1.00  0.00    -0.159 C  
HETATM   13  C   UNL     1      -9.068   6.090  71.962  1.00  0.00    -0.144 C  
HETATM   14  C   UNL     1     -10.162   5.323  72.688  1.00  0.00    -0.227 C  
ENDBRANCH   5   6
ENDBRANCH   2   4
BRANCH   3  15
HETATM   15  C   UNL     1     -11.891  12.449  67.728  1.00  0.00    -0.362 C  
HETATM   16  C   UNL     1     -11.279  12.759  66.576  1.00  0.00    -0.349 C  
BRANCH  16  17
HETATM   17  C   UNL     1     -11.567  13.981  65.810  1.00  0.00    -0.339 C  
HETATM   18  C   UNL     1     -10.669  16.334  65.227  1.00  0.00    -0.332 C  
HETATM   19  O   UNL     1      -9.947  17.219  65.667  1.00  0.00    -0.553 OA 
HETATM   20  C   UNL     1     -10.664  14.983  65.839  1.00  0.00    -0.337 C  
HETATM   21  C   UNL     1     -12.905  14.060  65.114  1.00  0.00    -0.368 C  
HETATM   22  O   UNL     1     -11.448  16.507  64.146  1.00  0.00    -1.059 OA 
ENDBRANCH  16  17
ENDBRANCH   3  15
TORSDOF 4
ENDMDL
MODEL        2
REMARK 921   NORMALIZED FREE ENERGY PREDICTED BY IDOCK:   -6.36 KCAL/MOL
REMARK 922        TOTAL FREE ENERGY PREDICTED BY IDOCK:   -8.47 KCAL/MOL
REMARK 923 INTER-LIGAND FREE ENERGY PREDICTED BY IDOCK:   -7.80 KCAL/MOL
REMARK 924 INTRA-LIGAND FREE ENERGY PREDICTED BY IDOCK:   -0.67 KCAL/MOL
REMARK 927      BINDING AFFINITY PREDICTED BY RF-SCORE:    0.00 PKD
ROOT
HETATM    1  C   UNL     1     -11.995  13.719  66.786  1.00  0.00    -0.465 C  
HETATM    2  C   UNL     1     -11.656  13.499  68.244  1.00  0.00    -0.381 C  
HETATM    3  C   UNL     1     -11.133  14.503  68.989  1.00  0.00    -0.279 C  
ENDROOT
BRANCH   2   4
HETATM    4  C   UNL     1     -11.898  12.187  68.849  1.00  0.00    -0.358 C  
HETATM    5  C   UNL     1     -11.165  11.589  69.806  1.00  0.00    -0.237 C  
BRANCH   5   6
HETATM    6  C   UNL     1     -11.451  10.274  70.385  1.00  0.00    -0.415 C  
HETATM    7  C   UNL     1      -9.084   9.364  70.286  1.00  0.00    -0.283 C  
HETATM    8  C   UNL     1     -12.402  10.121  71.331  1.00  0.00    -0.515 C  
HETATM    9  C   UNL     1     -12.737   8.802  71.963  1.00  0.00    -0.444 C  
HETATM   10  C   UNL     1     -13.235  11.246  71.912  1.00  0.00    -0.491 C  
HETATM   11  C   UNL     1     -10.618   9.058  68.333  1.00  0.00    -0.200 C  
HETATM   12  C   UNL     1     -10.562   9.120  69.883  1.00  0.00    -0.246 C  
HETATM   13  C   UNL     1     -10.958   7.705  70.394  1.00  0.00    -0.256 C  
HETATM   14  C   UNL     1     -11.975   7.568  71.516  1.00  0.00    -0.336 C  
ENDBRANCH   5   6
ENDBRANCH   2   4
BRANCH   3  15
HETATM   15  C   UNL     1     -10.895  15.843  68.478  1.00  0.00    -0.298 C  
HETATM   16  C   UNL     1      -9.712  16.468  68.393  1.00  0.00    -0.236 C  
BRANCH  16  17
HETATM   17  C   UNL     1      -9.558  17.852  67.920  1.00  0.00    -0.286 C  
HETATM   18  C   UNL     1     -10.497  19.603  66.267  1.00  0.00    -0.519 C  
HETATM   19  O   UNL     1     -11.088  19.691  65.198  1.00  0.00    -0.355 OA 
HETATM   20  C   UNL     1     -10.409  18.304  66.975  1.00  0.00    -0.408 C  
HETATM   21  C   UNL     1      -8.393  18.643  68.465  1.00  0.00    -0.369 C  
HETATM   22  O   UNL     1      -9.956  20.667  66.882  1.00  0.00    -0.418 OA 
ENDBRANCH  16  17
ENDBRANCH   3  15
TORSDOF 4
ENDMDL
MODEL        3
REMARK 921   NORMALIZED FREE ENERGY PREDICTED BY IDOCK:   -6.20 KCAL/MOL
REMARK 922        TOTAL FREE ENERGY PREDICTED BY IDOCK:   -8.27 KCAL/MOL
REMARK 923 INTER-LIGAND FREE ENERGY PREDICTED BY IDOCK:   -7.65 KCAL/MOL
REMARK 924 INTRA-LIGAND FREE ENERGY PREDICTED BY IDOCK:   -0.61 KCAL/MOL
REMARK 927      BINDING AFFINITY PREDICTED BY RF-SCORE:    0.00 PKD
ROOT
HETATM    1  C   UNL     1     -12.087  12.552  70.147  1.00  0.00    -0.368 C  
HETATM    2  C   UNL     1     -11.482  11.290  69.573  1.00  0.00    -0.376 C  
HETATM    3  C   UNL     1     -11.314  11.153  68.236  1.00  0.00    -0.365 C  
ENDROOT
BRANCH   2   4
HETATM    4  C   UNL     1     -11.074  10.211  70.477  1.00  0.00    -0.400 C  
HETATM    5  C   UNL     1     -10.624   8.991  70.130  1.00  0.00    -0.250 C  
BRANCH   5   6
HETATM    6  C   UNL     1     -10.223   7.944  71.073  1.00  0.00    -0.217 C  
HETATM    7  C   UNL     1     -11.356   6.005  69.892  1.00  0.00    -0.355 C  
HETATM    8  C   UNL     1      -9.034   7.998  71.710  1.00  0.00    -0.194 C  
HETATM    9  C   UNL     1      -8.568   6.955  72.684  1.00  0.00    -0.131 C  
HETATM   10  C   UNL     1      -7.995   9.085  71.516  1.00  0.00    -0.042 C  
HETATM   11  C   UNL     1     -12.618   7.333  71.596  1.00  0.00    -0.403 C  
HETATM   12  C   UNL     1     -11.216   6.777  71.230  1.00  0.00    -0.319 C  
HETATM   13  C   UNL     1     -10.854   5.740  72.332  1.00  0.00    -0.294 C  
HETATM   14  C   UNL     1      -9.477   5.777  72.976  1.00  0.00    -0.153 C  
ENDBRANCH   5   6
ENDBRANCH   2   4
BRANCH   3  15
HETATM   15  C   UNL     1     -11.656  12.187  67.273  1.00  0.00    -0.404 C  
HETATM   16  C   UNL     1     -10.849  13.161  66.825  1.00  0.00    -0.289 C  
BRANCH  16  17
HETATM   17  C   UNL     1     -11.287  14.211  65.894  1.00  0.00    -0.323 C  
HETATM   18  C   UNL     1     -10.800  16.619  65.091  1.00  0.00    -0.186 C  
HETATM   19  O   UNL     1     -10.306  17.673  65.471  1.00  0.00    -0.627 OA 
HETATM   20  C   UNL     1     -10.598  15.371  65.865  1.00  0.00    -0.349 C  
HETATM   21  C   UNL     1     -12.541  13.946  65.095  1.00  0.00    -0.466 C  
HETATM   22  O   UNL     1     -11.487  16.517  63.942  1.00  0.00    -1.145 OA 
ENDBRANCH  16  17
ENDBRANCH   3  15
TORSDOF 4
ENDMDL
MODEL        4
REMARK 921   NORMALIZED FREE ENERGY PREDICTED BY IDOCK:   -6.20 KCAL/MOL
REMARK 922        TOTAL FREE ENERGY PREDICTED BY IDOCK:   -8.27 KCAL/MOL
REMARK 923 INTER-LIGAND FREE ENERGY PREDICTED BY IDOCK:   -7.64 KCAL/MOL
REMARK 924 INTRA-LIGAND FREE ENERGY PREDICTED BY IDOCK:   -0.63 KCAL/MOL
REMARK 927      BINDING AFFINITY PREDICTED BY RF-SCORE:    0.00 PKD
ROOT
HETATM    1  C   UNL     1      -9.970   9.471  65.932  1.00  0.00    -0.342 C  
HETATM    2  C   UNL     1     -10.453   9.612  67.358  1.00  0.00    -0.319 C  
HETATM    3  C   UNL     1     -11.151  10.708  67.744  1.00  0.00    -0.385 C  
ENDROOT
BRANCH   2   4
HETATM    4  C   UNL     1     -10.161   8.551  68.325  1.00  0.00    -0.225 C  
HETATM    5  C   UNL     1     -11.010   7.607  68.772  1.00  0.00     0.078 C  
BRANCH   5   6
HETATM    6  C   UNL     1     -10.669   6.560  69.739  1.00  0.00    -0.322 C  
HETATM    7  C   UNL     1     -12.640   6.916  71.297  1.00  0.00    -0.394 C  
HETATM    8  C   UNL     1     -10.067   5.418  69.345  1.00  0.00    -0.304 C  
HETATM    9  C   UNL     1      -9.697   4.310  70.288  1.00  0.00    -0.280 C  
HETATM   10  C   UNL     1      -9.712   5.073  67.913  1.00  0.00    -0.196 C  
HETATM   11  C   UNL     1     -10.527   8.207  71.649  1.00  0.00    -0.288 C  
HETATM   12  C   UNL     1     -11.095   6.837  71.194  1.00  0.00    -0.313 C  
HETATM   13  C   UNL     1     -10.610   5.791  72.238  1.00  0.00    -0.264 C  
HETATM   14  C   UNL     1     -10.007   4.478  71.763  1.00  0.00    -0.264 C  
ENDBRANCH   5   6
ENDBRANCH   2   4
BRANCH   3  15
HETATM   15  C   UNL     1     -11.514  11.788  66.842  1.00  0.00    -0.364 C  
HETATM   16  C   UNL     1     -10.975  13.016  66.806  1.00  0.00    -0.299 C  
BRANCH  16  17
HETATM   17  C   UNL     1     -11.439  14.078  65.901  1.00  0.00    -0.330 C  
HETATM   18  C   UNL     1     -10.910  16.455  65.036  1.00  0.00    -0.273 C  
HETATM   19  O   UNL     1     -10.339  17.488  65.362  1.00  0.00    -0.629 OA 
HETATM   20  C   UNL     1     -10.703  15.205  65.805  1.00  0.00    -0.359 C  
HETATM   21  C   UNL     1     -12.765  13.865  65.210  1.00  0.00    -0.485 C  
HETATM   22  O   UNL     1     -11.692  16.376  63.948  1.00  0.00    -1.085 OA 
ENDBRANCH  16  17
ENDBRANCH   3  15
TORSDOF 4
ENDMDL
MODEL        5
REMARK 921   NORMALIZED FREE ENERGY PREDICTED BY IDOCK:   -6.20 KCAL/MOL
REMARK 922        TOTAL FREE ENERGY PREDICTED BY IDOCK:   -8.27 KCAL/MOL
REMARK 923 INTER-LIGAND FREE ENERGY PREDICTED BY IDOCK:   -7.72 KCAL/MOL
REMARK 924 INTRA-LIGAND FREE ENERGY PREDICTED BY IDOCK:   -0.55 KCAL/MOL
REMARK 927      BINDING AFFINITY PREDICTED BY RF-SCORE:    0.00 PKD
ROOT
HETATM    1  C   UNL     1     -11.760  11.439  69.159  1.00  0.00    -0.410 C  
HETATM    2  C   UNL     1     -11.019  10.432  68.308  1.00  0.00    -0.321 C  
HETATM    3  C   UNL     1     -10.830  10.655  66.985  1.00  0.00    -0.298 C  
ENDROOT
BRANCH   2   4
HETATM    4  C   UNL     1     -10.504   9.207  68.926  1.00  0.00    -0.239 C  
HETATM    5  C   UNL     1     -11.035   8.542  69.968  1.00  0.00    -0.197 C  
BRANCH   5   6
HETATM    6  C   UNL     1     -10.484   7.315  70.549  1.00  0.00    -0.229 C  
HETATM    7  C   UNL     1     -11.284   7.705  72.926  1.00  0.00    -0.426 C  
HETATM    8  C   UNL     1     -10.416   6.173  69.832  1.00  0.00    -0.294 C  
HETATM    9  C   UNL     1      -9.866   4.886  70.373  1.00  0.00    -0.302 C  
HETATM   10  C   UNL     1     -10.909   6.014  68.407  1.00  0.00    -0.361 C  
HETATM   11  C   UNL     1      -9.061   8.594  72.199  1.00  0.00    -0.301 C  
HETATM   12  C   UNL     1     -10.054   7.415  72.026  1.00  0.00    -0.212 C  
HETATM   13  C   UNL     1      -9.344   6.154  72.597  1.00  0.00    -0.146 C  
HETATM   14  C   UNL     1      -9.352   4.859  71.800  1.00  0.00    -0.185 C  
ENDBRANCH   5   6
ENDBRANCH   2   4
BRANCH   3  15
HETATM   15  C   UNL     1     -11.275  11.858  66.301  1.00  0.00    -0.392 C  
HETATM   16  C   UNL     1     -10.547  12.959  66.063  1.00  0.00    -0.287 C  
BRANCH  16  17
HETATM   17  C   UNL     1     -11.087  14.164  65.417  1.00  0.00    -0.321 C  
HETATM   18  C   UNL     1     -10.711  16.700  65.093  1.00  0.00    -0.189 C  
HETATM   19  O   UNL     1     -10.196  17.669  65.636  1.00  0.00    -0.593 OA 
HETATM   20  C   UNL     1     -10.419  15.326  65.567  1.00  0.00    -0.396 C  
HETATM   21  C   UNL     1     -12.411  14.028  64.701  1.00  0.00    -0.425 C  
HETATM   22  O   UNL     1     -11.507  16.815  64.017  1.00  0.00    -1.198 OA 
ENDBRANCH  16  17
ENDBRANCH   3  15
TORSDOF 4
ENDMDL
MODEL        6
REMARK 921   NORMALIZED FREE ENERGY PREDICTED BY IDOCK:   -6.18 KCAL/MOL
REMARK 922        TOTAL FREE ENERGY PREDICTED BY IDOCK:   -8.24 KCAL/MOL
REMARK 923 INTER-LIGAND FREE ENERGY PREDICTED BY IDOCK:   -7.62 KCAL/MOL
REMARK 924 INTRA-LIGAND FREE ENERGY PREDICTED BY IDOCK:   -0.62 KCAL/MOL
REMARK 927      BINDING AFFINITY PREDICTED BY RF-SCORE:    0.00 PKD
ROOT
HETATM    1  C   UNL     1     -11.882  13.246  69.952  1.00  0.00    -0.380 C  
HETATM    2  C   UNL     1     -11.763  12.131  68.936  1.00  0.00    -0.381 C  
HETATM    3  C   UNL     1     -11.676  12.411  67.613  1.00  0.00    -0.412 C  
ENDROOT
BRANCH   2   4
HETATM    4  C   UNL     1     -11.742  10.740  69.394  1.00  0.00    -0.378 C  
HETATM    5  C   UNL     1     -11.223  10.275  70.546  1.00  0.00    -0.408 C  
BRANCH   5   6
HETATM    6  C   UNL     1     -11.229   8.870  70.963  1.00  0.00    -0.342 C  
HETATM    7  C   UNL     1      -8.751   8.682  71.476  1.00  0.00    -0.266 C  
HETATM    8  C   UNL     1     -12.293   8.338  71.603  1.00  0.00    -0.349 C  
HETATM    9  C   UNL     1     -12.356   6.909  72.058  1.00  0.00    -0.305 C  
HETATM   10  C   UNL     1     -13.546   9.101  71.984  1.00  0.00    -0.520 C  
HETATM   11  C   UNL     1      -9.583   8.205  69.166  1.00  0.00    -0.157 C  
HETATM   12  C   UNL     1      -9.936   8.085  70.672  1.00  0.00    -0.198 C  
HETATM   13  C   UNL     1      -9.997   6.563  70.989  1.00  0.00    -0.203 C  
HETATM   14  C   UNL     1     -11.169   6.006  71.781  1.00  0.00    -0.333 C  
ENDBRANCH   5   6
ENDBRANCH   2   4
BRANCH   3  15
HETATM   15  C   UNL     1     -11.654  13.762  67.078  1.00  0.00    -0.391 C  
HETATM   16  C   UNL     1     -10.571  14.446  66.679  1.00  0.00    -0.282 C  
BRANCH  16  17
HETATM   17  C   UNL     1     -10.621  15.836  66.203  1.00  0.00    -0.318 C  
HETATM   18  C   UNL     1     -10.470  18.304  66.959  1.00  0.00    -0.385 C  
HETATM   19  O   UNL     1     -10.650  19.018  67.937  1.00  0.00    -0.399 OA 
HETATM   20  C   UNL     1     -10.438  16.828  67.100  1.00  0.00    -0.299 C  
HETATM   21  C   UNL     1     -10.967  16.056  64.749  1.00  0.00    -0.373 C  
HETATM   22  O   UNL     1     -10.233  18.802  65.735  1.00  0.00    -0.541 OA 
ENDBRANCH  16  17
ENDBRANCH   3  15
TORSDOF 4
ENDMDL
MODEL        7
REMARK 921   NORMALIZED FREE ENERGY PREDICTED BY IDOCK:   -6.11 KCAL/MOL
REMARK 922        TOTAL FREE ENERGY PREDICTED BY IDOCK:   -8.16 KCAL/MOL
REMARK 923 INTER-LIGAND FREE ENERGY PREDICTED BY IDOCK:   -7.63 KCAL/MOL
REMARK 924 INTRA-LIGAND FREE ENERGY PREDICTED BY IDOCK:   -0.53 KCAL/MOL
REMARK 927      BINDING AFFINITY PREDICTED BY RF-SCORE:    0.00 PKD
ROOT
HETATM    1  C   UNL     1     -12.511  11.690  71.131  1.00  0.00    -0.412 C  
HETATM    2  C   UNL     1     -11.584  10.564  70.731  1.00  0.00    -0.432 C  
HETATM    3  C   UNL     1     -10.876  10.632  69.577  1.00  0.00    -0.303 C  
ENDROOT
BRANCH   2   4
HETATM    4  C   UNL     1     -11.454   9.394  71.603  1.00  0.00    -0.463 C  
HETATM    5  C   UNL     1     -10.505   8.441  71.542  1.00  0.00    -0.305 C  
BRANCH   5   6
HETATM    6  C   UNL     1     -10.414   7.288  72.442  1.00  0.00    -0.263 C  
HETATM    7  C   UNL     1     -10.823   5.492  70.697  1.00  0.00    -0.257 C  
HETATM    8  C   UNL     1      -9.577   7.297  73.502  1.00  0.00    -0.293 C  
HETATM    9  C   UNL     1      -9.437   6.146  74.456  1.00  0.00    -0.219 C  
HETATM   10  C   UNL     1      -8.644   8.435  73.861  1.00  0.00    -0.097 C  
HETATM   11  C   UNL     1     -12.760   6.526  71.896  1.00  0.00    -0.179 C  
HETATM   12  C   UNL     1     -11.284   6.076  72.058  1.00  0.00    -0.341 C  
HETATM   13  C   UNL     1     -11.290   4.910  73.089  1.00  0.00    -0.395 C  
HETATM   14  C   UNL     1     -10.282   4.907  74.227  1.00  0.00    -0.290 C  
ENDBRANCH   5   6
ENDBRANCH   2   4
BRANCH   3  15
HETATM   15  C   UNL     1     -10.918  11.771  68.674  1.00  0.00    -0.269 C  
HETATM   16  C   UNL     1     -11.513  11.817  67.473  1.00  0.00    -0.373 C  
BRANCH  16  17
HETATM   17  C   UNL     1     -11.461  12.989  66.588  1.00  0.00    -0.382 C  
HETATM   18  C   UNL     1     -12.175  13.883  64.270  1.00  0.00    -0.408 C  
HETATM   19  O   UNL     1     -12.452  13.501  63.141  1.00  0.00    -0.759 OA 
HETATM   20  C   UNL     1     -12.078  12.917  65.390  1.00  0.00    -0.501 C  
HETATM   21  C   UNL     1     -10.637  14.168  67.051  1.00  0.00    -0.276 C  
HETATM   22  O   UNL     1     -12.007  15.180  64.572  1.00  0.00    -0.416 OA 
ENDBRANCH  16  17
ENDBRANCH   3  15
TORSDOF 4
ENDMDL
MODEL        8
REMARK 921   NORMALIZED FREE ENERGY PREDICTED BY IDOCK:   -6.10 KCAL/MOL
REMARK 922        TOTAL FREE ENERGY PREDICTED BY IDOCK:   -8.15 KCAL/MOL
REMARK 923 INTER-LIGAND FREE ENERGY PREDICTED BY IDOCK:   -7.53 KCAL/MOL
REMARK 924 INTRA-LIGAND FREE ENERGY PREDICTED BY IDOCK:   -0.62 KCAL/MOL
REMARK 927      BINDING AFFINITY PREDICTED BY RF-SCORE:    0.00 PKD
ROOT
HETATM    1  C   UNL     1     -14.265   8.269  71.792  1.00  0.00    -0.544 C  
HETATM    2  C   UNL     1     -12.792   8.137  71.474  1.00  0.00    -0.319 C  
HETATM    3  C   UNL     1     -12.009   9.237  71.370  1.00  0.00    -0.424 C  
ENDROOT
BRANCH   2   4
HETATM    4  C   UNL     1     -12.214   6.804  71.277  1.00  0.00    -0.415 C  
HETATM    5  C   UNL     1     -10.933   6.442  71.470  1.00  0.00    -0.310 C  
BRANCH   5   6
HETATM    6  C   UNL     1     -10.402   5.092  71.265  1.00  0.00    -0.276 C  
HETATM    7  C   UNL     1      -8.418   5.750  69.825  1.00  0.00    -0.123 C  
HETATM    8  C   UNL     1     -10.504   4.149  72.226  1.00  0.00    -0.141 C  
HETATM    9  C   UNL     1      -9.977   2.752  72.075  1.00  0.00    -0.226 C  
HETATM   10  C   UNL     1     -11.125   4.367  73.591  1.00  0.00    -0.361 C  
HETATM   11  C   UNL     1     -10.624   5.259  68.754  1.00  0.00    -0.115 C  
HETATM   12  C   UNL     1      -9.684   4.859  69.921  1.00  0.00    -0.276 C  
HETATM   13  C   UNL     1      -9.245   3.391  69.649  1.00  0.00    -0.225 C  
HETATM   14  C   UNL     1      -9.297   2.370  70.774  1.00  0.00    -0.210 C  
ENDBRANCH   5   6
ENDBRANCH   2   4
BRANCH   3  15
HETATM   15  C   UNL     1     -12.493  10.591  71.585  1.00  0.00    -0.443 C  
HETATM   16  C   UNL     1     -12.230  11.665  70.825  1.00  0.00    -0.443 C  
BRANCH  16  17
HETATM   17  C   UNL     1     -12.707  13.018  71.142  1.00  0.00    -0.372 C  
HETATM   18  C   UNL     1     -12.364  15.525  70.615  1.00  0.00    -0.416 C  
HETATM   19  O   UNL     1     -11.512  16.314  70.226  1.00  0.00    -0.341 OA 
HETATM   20  C   UNL     1     -12.147  14.063  70.499  1.00  0.00    -0.424 C  
HETATM   21  C   UNL     1     -13.737  13.147  72.240  1.00  0.00    -0.647 C  
HETATM   22  O   UNL     1     -13.549  15.926  71.103  1.00  0.00    -0.478 OA 
ENDBRANCH  16  17
ENDBRANCH   3  15
TORSDOF 4
ENDMDL
MODEL        9
REMARK 921   NORMALIZED FREE ENERGY PREDICTED BY IDOCK:   -6.05 KCAL/MOL
REMARK 922        TOTAL FREE ENERGY PREDICTED BY IDOCK:   -8.09 KCAL/MOL
REMARK 923 INTER-LIGAND FREE ENERGY PREDICTED BY IDOCK:   -7.44 KCAL/MOL
REMARK 924 INTRA-LIGAND FREE ENERGY PREDICTED BY IDOCK:   -0.65 KCAL/MOL
REMARK 927      BINDING AFFINITY PREDICTED BY RF-SCORE:    0.00 PKD
ROOT
HETATM    1  C   UNL     1     -14.165   8.108  71.841  1.00  0.00    -0.530 C  
HETATM    2  C   UNL     1     -12.683   7.993  71.564  1.00  0.00    -0.325 C  
HETATM    3  C   UNL     1     -11.908   9.102  71.488  1.00  0.00    -0.428 C  
ENDROOT
BRANCH   2   4
HETATM    4  C   UNL     1     -12.086   6.668  71.379  1.00  0.00    -0.400 C  
HETATM    5  C   UNL     1     -10.793   6.332  71.545  1.00  0.00    -0.303 C  
BRANCH   5   6
HETATM    6  C   UNL     1     -10.242   4.988  71.352  1.00  0.00    -0.270 C  
HETATM    7  C   UNL     1     -11.450   3.872  73.286  1.00  0.00    -0.145 C  
HETATM    8  C   UNL     1      -9.962   4.521  70.117  1.00  0.00    -0.278 C  
HETATM    9  C   UNL     1      -9.400   3.154  69.856  1.00  0.00    -0.228 C  
HETATM   10  C   UNL     1     -10.200   5.282  68.828  1.00  0.00    -0.231 C  
HETATM   11  C   UNL     1      -9.222   4.946  73.663  1.00  0.00    -0.122 C  
HETATM   12  C   UNL     1     -10.070   4.151  72.635  1.00  0.00    -0.225 C  
HETATM   13  C   UNL     1      -9.358   2.781  72.443  1.00  0.00    -0.159 C  
HETATM   14  C   UNL     1      -9.126   2.244  71.039  1.00  0.00    -0.171 C  
ENDBRANCH   5   6
ENDBRANCH   2   4
BRANCH   3  15
HETATM   15  C   UNL     1     -12.412  10.450  71.695  1.00  0.00    -0.471 C  
HETATM   16  C   UNL     1     -12.223  11.507  70.891  1.00  0.00    -0.425 C  
BRANCH  16  17
HETATM   17  C   UNL     1     -12.715  12.857  71.199  1.00  0.00    -0.366 C  
HETATM   18  C   UNL     1     -12.374  15.367  70.681  1.00  0.00    -0.403 C  
HETATM   19  O   UNL     1     -11.518  16.160  70.311  1.00  0.00    -0.346 OA 
HETATM   20  C   UNL     1     -12.146  13.906  70.568  1.00  0.00    -0.426 C  
HETATM   21  C   UNL     1     -13.768  12.980  72.275  1.00  0.00    -0.608 C  
HETATM   22  O   UNL     1     -13.571  15.760  71.144  1.00  0.00    -0.576 OA 
ENDBRANCH  16  17
ENDBRANCH   3  15
TORSDOF 4
ENDMDL
MODEL       10
REMARK 921   NORMALIZED FREE ENERGY PREDICTED BY IDOCK:   -6.02 KCAL/MOL
REMARK 922        TOTAL FREE ENERGY PREDICTED BY IDOCK:   -8.05 KCAL/MOL
REMARK 923 INTER-LIGAND FREE ENERGY PREDICTED BY IDOCK:   -7.58 KCAL/MOL
REMARK 924 INTRA-LIGAND FREE ENERGY PREDICTED BY IDOCK:   -0.46 KCAL/MOL
REMARK 927      BINDING AFFINITY PREDICTED BY RF-SCORE:    0.00 PKD
ROOT
HETATM    1  C   UNL     1      -8.960  10.657  69.150  1.00  0.00    -0.139 C  
HETATM    2  C   UNL     1     -10.367  10.342  69.608  1.00  0.00    -0.281 C  
HETATM    3  C   UNL     1     -11.429  10.973  69.052  1.00  0.00    -0.368 C  
ENDROOT
BRANCH   2   4
HETATM    4  C   UNL     1     -10.576   9.344  70.660  1.00  0.00    -0.354 C  
HETATM    5  C   UNL     1      -9.808   8.269  70.920  1.00  0.00    -0.215 C  
BRANCH   5   6
HETATM    6  C   UNL     1     -10.056   7.300  71.990  1.00  0.00    -0.207 C  
HETATM    7  C   UNL     1     -10.542   5.303  70.501  1.00  0.00    -0.272 C  
HETATM    8  C   UNL     1      -9.387   7.368  73.161  1.00  0.00    -0.235 C  
HETATM    9  C   UNL     1      -9.594   6.403  74.291  1.00  0.00    -0.256 C  
HETATM   10  C   UNL     1      -8.319   8.392  73.491  1.00  0.00    -0.176 C  
HETATM   11  C   UNL     1     -12.403   6.830  71.183  1.00  0.00    -0.386 C  
HETATM   12  C   UNL     1     -11.072   6.190  71.658  1.00  0.00    -0.330 C  
HETATM   13  C   UNL     1     -11.435   5.247  72.841  1.00  0.00    -0.339 C  
HETATM   14  C   UNL     1     -10.613   5.292  74.119  1.00  0.00    -0.301 C  
ENDBRANCH   5   6
ENDBRANCH   2   4
BRANCH   3  15
HETATM   15  C   UNL     1     -11.314  11.947  67.979  1.00  0.00    -0.352 C  
HETATM   16  C   UNL     1     -11.959  13.120  67.891  1.00  0.00    -0.347 C  
BRANCH  16  17
HETATM   17  C   UNL     1     -11.836  14.028  66.742  1.00  0.00    -0.450 C  
HETATM   18  C   UNL     1     -12.378  14.290  64.228  1.00  0.00    -0.377 C  
HETATM   19  O   UNL     1     -12.576  13.629  63.217  1.00  0.00    -0.816 OA 
HETATM   20  C   UNL     1     -12.367  13.644  65.562  1.00  0.00    -0.519 C  
HETATM   21  C   UNL     1     -11.039  15.295  66.945  1.00  0.00    -0.288 C  
HETATM   22  O   UNL     1     -12.223  15.624  64.199  1.00  0.00    -0.576 OA 
ENDBRANCH  16  17
ENDBRANCH   3  15
TORSDOF 4
ENDMDL
MODEL       11
REMARK 921   NORMALIZED FREE ENERGY PREDICTED BY IDOCK:   -6.00 KCAL/MOL
REMARK 922        TOTAL FREE ENERGY PREDICTED BY IDOCK:   -8.03 KCAL/MOL
REMARK 923 INTER-LIGAND FREE ENERGY PREDICTED BY IDOCK:   -7.40 KCAL/MOL
REMARK 924 INTRA-LIGAND FREE ENERGY PREDICTED BY IDOCK:   -0.63 KCAL/MOL
REMARK 927      BINDING AFFINITY PREDICTED BY RF-SCORE:    0.00 PKD
ROOT
HETATM    1  C   UNL     1      -9.926   8.612  66.813  1.00  0.00    -0.343 C  
HETATM    2  C   UNL     1     -10.215   8.991  68.249  1.00  0.00    -0.241 C  
HETATM    3  C   UNL     1     -10.611  10.249  68.563  1.00  0.00    -0.240 C  
ENDROOT
BRANCH   2   4
HETATM    4  C   UNL     1     -10.067   7.985  69.304  1.00  0.00    -0.198 C  
HETATM    5  C   UNL     1     -11.010   7.136  69.750  1.00  0.00    -0.256 C  
BRANCH   5   6
HETATM    6  C   UNL     1     -10.811   6.141  70.808  1.00  0.00    -0.350 C  
HETATM    7  C   UNL     1     -12.959   6.599  72.079  1.00  0.00    -0.115 C  
HETATM    8  C   UNL     1     -10.182   4.973  70.556  1.00  0.00    -0.316 C  
HETATM    9  C   UNL     1      -9.953   3.915  71.595  1.00  0.00    -0.223 C  
HETATM   10  C   UNL     1      -9.653   4.548  69.201  1.00  0.00    -0.251 C  
HETATM   11  C   UNL     1     -10.887   7.889  72.630  1.00  0.00    -0.428 C  
HETATM   12  C   UNL     1     -11.415   6.501  72.179  1.00  0.00    -0.332 C  
HETATM   13  C   UNL     1     -11.083   5.509  73.331  1.00  0.00    -0.280 C  
HETATM   14  C   UNL     1     -10.446   4.167  73.008  1.00  0.00    -0.247 C  
ENDBRANCH   5   6
ENDBRANCH   2   4
BRANCH   3  15
HETATM   15  C   UNL     1     -10.818  11.296  67.575  1.00  0.00    -0.292 C  
HETATM   16  C   UNL     1     -11.695  12.308  67.656  1.00  0.00    -0.403 C  
BRANCH  16  17
HETATM   17  C   UNL     1     -11.890  13.297  66.586  1.00  0.00    -0.447 C  
HETATM   18  C   UNL     1     -12.259  13.568  64.041  1.00  0.00    -0.402 C  
HETATM   19  O   UNL     1     -12.045  13.002  62.978  1.00  0.00    -0.448 OA 
HETATM   20  C   UNL     1     -12.080  12.850  65.326  1.00  0.00    -0.496 C  
HETATM   21  C   UNL     1     -11.773  14.755  66.963  1.00  0.00    -0.330 C  
HETATM   22  O   UNL     1     -12.720  14.827  64.109  1.00  0.00    -0.758 OA 
ENDBRANCH  16  17
ENDBRANCH   3  15
TORSDOF 4
ENDMDL
MODEL       12
REMARK 921   NORMALIZED FREE ENERGY PREDICTED BY IDOCK:   -5.98 KCAL/MOL
REMARK 922        TOTAL FREE ENERGY PREDICTED BY IDOCK:   -8.00 KCAL/MOL
REMARK 923 INTER-LIGAND FREE ENERGY PREDICTED BY IDOCK:   -7.37 KCAL/MOL
REMARK 924 INTRA-LIGAND FREE ENERGY PREDICTED BY IDOCK:   -0.63 KCAL/MOL
REMARK 927      BINDING AFFINITY PREDICTED BY RF-SCORE:    0.00 PKD
ROOT
HETATM    1  C   UNL     1      -9.874   8.826  67.037  1.00  0.00    -0.279 C  
HETATM    2  C   UNL     1     -10.527   9.182  68.354  1.00  0.00    -0.241 C  
HETATM    3  C   UNL     1     -11.156  10.372  68.512  1.00  0.00    -0.318 C  
ENDROOT
BRANCH   2   4
HETATM    4  C   UNL     1     -10.477   8.227  69.464  1.00  0.00    -0.228 C  
HETATM    5  C   UNL     1     -10.918   6.956  69.458  1.00  0.00    -0.289 C  
BRANCH   5   6
HETATM    6  C   UNL     1     -10.841   6.035  70.595  1.00  0.00    -0.364 C  
HETATM    7  C   UNL     1      -8.311   5.842  70.675  1.00  0.00    -0.124 C  
HETATM    8  C   UNL     1     -11.740   6.093  71.601  1.00  0.00    -0.290 C  
HETATM    9  C   UNL     1     -11.711   5.180  72.792  1.00  0.00    -0.181 C  
HETATM   10  C   UNL     1     -12.874   7.094  71.693  1.00  0.00    -0.420 C  
HETATM   11  C   UNL     1      -9.635   4.276  69.241  1.00  0.00    -0.261 C  
HETATM   12  C   UNL     1      -9.647   5.060  70.580  1.00  0.00    -0.250 C  
HETATM   13  C   UNL     1      -9.646   3.994  71.714  1.00  0.00    -0.223 C  
HETATM   14  C   UNL     1     -10.619   4.130  72.875  1.00  0.00    -0.245 C  
ENDBRANCH   5   6
ENDBRANCH   2   4
BRANCH   3  15
HETATM   15  C   UNL     1     -11.284  11.360  67.453  1.00  0.00    -0.370 C  
HETATM   16  C   UNL     1     -11.435  12.683  67.608  1.00  0.00    -0.390 C  
BRANCH  16  17
HETATM   17  C   UNL     1     -11.620  13.615  66.486  1.00  0.00    -0.392 C  
HETATM   18  C   UNL     1     -12.410  13.788  64.031  1.00  0.00    -0.317 C  
HETATM   19  O   UNL     1     -12.533  13.116  63.015  1.00  0.00    -0.598 OA 
HETATM   20  C   UNL     1     -12.142  13.138  65.336  1.00  0.00    -0.478 C  
HETATM   21  C   UNL     1     -11.123  15.029  66.673  1.00  0.00    -0.326 C  
HETATM   22  O   UNL     1     -12.570  15.121  64.038  1.00  0.00    -0.791 OA 
ENDBRANCH  16  17
ENDBRANCH   3  15
TORSDOF 4
ENDMDL
MODEL       13
REMARK 921   NORMALIZED FREE ENERGY PREDICTED BY IDOCK:   -5.97 KCAL/MOL
REMARK 922        TOTAL FREE ENERGY PREDICTED BY IDOCK:   -7.99 KCAL/MOL
REMARK 923 INTER-LIGAND FREE ENERGY PREDICTED BY IDOCK:   -7.61 KCAL/MOL
REMARK 924 INTRA-LIGAND FREE ENERGY PREDICTED BY IDOCK:   -0.38 KCAL/MOL
REMARK 927      BINDING AFFINITY PREDICTED BY RF-SCORE:    0.00 PKD
ROOT
HETATM    1  C   UNL     1     -12.187  12.681  70.268  1.00  0.00    -0.347 C  
HETATM    2  C   UNL     1     -11.686  11.457  69.533  1.00  0.00    -0.417 C  
HETATM    3  C   UNL     1     -11.529  11.478  68.187  1.00  0.00    -0.385 C  
ENDROOT
BRANCH   2   4
HETATM    4  C   UNL     1     -11.369  10.242  70.289  1.00  0.00    -0.398 C  
HETATM    5  C   UNL     1     -11.519   8.970  69.876  1.00  0.00     0.070 C  
BRANCH   5   6
HETATM    6  C   UNL     1     -11.182   7.785  70.669  1.00  0.00    -0.278 C  
HETATM    7  C   UNL     1      -8.899   7.360  69.647  1.00  0.00    -0.141 C  
HETATM    8  C   UNL     1     -11.599   7.661  71.947  1.00  0.00    -0.321 C  
HETATM    9  C   UNL     1     -11.284   6.473  72.810  1.00  0.00    -0.259 C  
HETATM   10  C   UNL     1     -12.406   8.699  72.701  1.00  0.00    -0.282 C  
HETATM   11  C   UNL     1     -10.935   6.335  68.615  1.00  0.00    -0.423 C  
HETATM   12  C   UNL     1     -10.288   6.747  69.964  1.00  0.00    -0.225 C  
HETATM   13  C   UNL     1     -10.048   5.430  70.757  1.00  0.00    -0.287 C  
HETATM   14  C   UNL     1     -10.458   5.347  72.219  1.00  0.00    -0.272 C  
ENDBRANCH   5   6
ENDBRANCH   2   4
BRANCH   3  15
HETATM   15  C   UNL     1     -11.785  12.651  67.367  1.00  0.00    -0.432 C  
HETATM   16  C   UNL     1     -10.922  13.244  66.529  1.00  0.00    -0.299 C  
BRANCH  16  17
HETATM   17  C   UNL     1     -11.235  14.467  65.775  1.00  0.00    -0.326 C  
HETATM   18  C   UNL     1     -10.488  16.906  65.360  1.00  0.00    -0.154 C  
HETATM   19  O   UNL     1      -9.892  17.829  65.898  1.00  0.00    -0.524 OA 
HETATM   20  C   UNL     1     -10.428  15.538  65.927  1.00  0.00    -0.356 C  
HETATM   21  C   UNL     1     -12.500  14.463  64.949  1.00  0.00    -0.368 C  
HETATM   22  O   UNL     1     -11.167  17.057  64.211  1.00  0.00    -1.186 OA 
ENDBRANCH  16  17
ENDBRANCH   3  15
TORSDOF 4
ENDMDL
MODEL       14
REMARK 921   NORMALIZED FREE ENERGY PREDICTED BY IDOCK:   -5.95 KCAL/MOL
REMARK 922        TOTAL FREE ENERGY PREDICTED BY IDOCK:   -7.96 KCAL/MOL
REMARK 923 INTER-LIGAND FREE ENERGY PREDICTED BY IDOCK:   -7.35 KCAL/MOL
REMARK 924 INTRA-LIGAND FREE ENERGY PREDICTED BY IDOCK:   -0.62 KCAL/MOL
REMARK 927      BINDING AFFINITY PREDICTED BY RF-SCORE:    0.00 PKD
ROOT
HETATM    1  C   UNL     1     -11.910  12.246  69.933  1.00  0.00    -0.383 C  
HETATM    2  C   UNL     1     -11.432  11.085  69.089  1.00  0.00    -0.370 C  
HETATM    3  C   UNL     1     -11.041  11.281  67.807  1.00  0.00    -0.328 C  
ENDROOT
BRANCH   2   4
HETATM    4  C   UNL     1     -11.392   9.741  69.671  1.00  0.00    -0.165 C  
HETATM    5  C   UNL     1     -11.186   9.424  70.962  1.00  0.00    -0.412 C  
BRANCH   5   6
HETATM    6  C   UNL     1     -11.159   8.060  71.498  1.00  0.00    -0.290 C  
HETATM    7  C   UNL     1      -9.041   8.303  72.874  1.00  0.00    -0.332 C  
HETATM    8  C   UNL     1     -12.303   7.397  71.773  1.00  0.00    -0.365 C  
HETATM    9  C   UNL     1     -12.339   6.002  72.325  1.00  0.00    -0.042 C  
HETATM   10  C   UNL     1     -13.697   7.965  71.599  1.00  0.00    -0.422 C  
HETATM   11  C   UNL     1      -8.896   7.579  70.484  1.00  0.00    -0.147 C  
HETATM   12  C   UNL     1      -9.757   7.482  71.771  1.00  0.00    -0.187 C  
HETATM   13  C   UNL     1      -9.729   5.988  72.207  1.00  0.00    -0.172 C  
HETATM   14  C   UNL     1     -11.025   5.291  72.587  1.00  0.00    -0.316 C  
ENDBRANCH   5   6
ENDBRANCH   2   4
BRANCH   3  15
HETATM   15  C   UNL     1     -11.015  12.585  67.165  1.00  0.00    -0.302 C  
HETATM   16  C   UNL     1      -9.928  13.240  66.729  1.00  0.00    -0.263 C  
BRANCH  16  17
HETATM   17  C   UNL     1      -9.975  14.587  66.143  1.00  0.00    -0.330 C  
HETATM   18  C   UNL     1     -11.352  16.142  64.603  1.00  0.00    -0.282 C  
HETATM   19  O   UNL     1     -12.149  16.108  63.675  1.00  0.00    -0.800 OA 
HETATM   20  C   UNL     1     -11.029  14.911  65.364  1.00  0.00    -0.371 C  
HETATM   21  C   UNL     1      -8.786  15.487  66.384  1.00  0.00    -0.359 C  
HETATM   22  O   UNL     1     -10.780  17.282  65.023  1.00  0.00    -0.708 OA 
ENDBRANCH  16  17
ENDBRANCH   3  15
TORSDOF 4
ENDMDL
MODEL       15
REMARK 921   NORMALIZED FREE ENERGY PREDICTED BY IDOCK:   -5.94 KCAL/MOL
REMARK 922        TOTAL FREE ENERGY PREDICTED BY IDOCK:   -7.95 KCAL/MOL
REMARK 923 INTER-LIGAND FREE ENERGY PREDICTED BY IDOCK:   -7.43 KCAL/MOL
REMARK 924 INTRA-LIGAND FREE ENERGY PREDICTED BY IDOCK:   -0.52 KCAL/MOL
REMARK 927      BINDING AFFINITY PREDICTED BY RF-SCORE:    0.00 PKD
ROOT
HETATM    1  C   UNL     1     -11.998  12.396  70.012  1.00  0.00    -0.372 C  
HETATM    2  C   UNL     1     -11.350  11.290  69.208  1.00  0.00    -0.354 C  
HETATM    3  C   UNL     1     -10.816  11.548  67.990  1.00  0.00    -0.259 C  
ENDROOT
BRANCH   2   4
HETATM    4  C   UNL     1     -11.301   9.933  69.758  1.00  0.00    -0.241 C  
HETATM    5  C   UNL     1     -10.259   9.083  69.724  1.00  0.00    -0.214 C  
BRANCH   5   6
HETATM    6  C   UNL     1     -10.256   7.733  70.294  1.00  0.00    -0.199 C  
HETATM    7  C   UNL     1     -11.503   8.292  72.433  1.00  0.00    -0.463 C  
HETATM    8  C   UNL     1     -10.335   6.643  69.502  1.00  0.00    -0.232 C  
HETATM    9  C   UNL     1     -10.341   5.237  70.026  1.00  0.00    -0.365 C  
HETATM   10  C   UNL     1     -10.462   6.675  67.992  1.00  0.00    -0.261 C  
HETATM   11  C   UNL     1      -9.009   8.479  72.360  1.00  0.00    -0.284 C  
HETATM   12  C   UNL     1     -10.218   7.662  71.832  1.00  0.00    -0.234 C  
HETATM   13  C   UNL     1     -10.076   6.232  72.428  1.00  0.00    -0.195 C  
HETATM   14  C   UNL     1     -10.248   5.021  71.525  1.00  0.00    -0.273 C  
ENDBRANCH   5   6
ENDBRANCH   2   4
BRANCH   3  15
HETATM   15  C   UNL     1     -10.789  12.870  67.387  1.00  0.00    -0.272 C  
HETATM   16  C   UNL     1      -9.723  13.482  66.850  1.00  0.00    -0.261 C  
BRANCH  16  17
HETATM   17  C   UNL     1      -9.760  14.850  66.312  1.00  0.00    -0.320 C  
HETATM   18  C   UNL     1     -11.099  16.454  64.789  1.00  0.00    -0.235 C  
HETATM   19  O   UNL     1     -11.867  16.450  63.835  1.00  0.00    -1.034 OA 
HETATM   20  C   UNL     1     -10.791  15.197  65.513  1.00  0.00    -0.373 C  
HETATM   21  C   UNL     1      -8.585  15.746  66.622  1.00  0.00    -0.322 C  
HETATM   22  O   UNL     1     -10.547  17.580  65.267  1.00  0.00    -0.664 OA 
ENDBRANCH  16  17
ENDBRANCH   3  15
TORSDOF 4
ENDMDL
MODEL       16
REMARK 921   NORMALIZED FREE ENERGY PREDICTED BY IDOCK:   -5.94 KCAL/MOL
REMARK 922        TOTAL FREE ENERGY PREDICTED BY IDOCK:   -7.95 KCAL/MOL
REMARK 923 INTER-LIGAND FREE ENERGY PREDICTED BY IDOCK:   -7.32 KCAL/MOL
REMARK 924 INTRA-LIGAND FREE ENERGY PREDICTED BY IDOCK:   -0.62 KCAL/MOL
REMARK 927      BINDING AFFINITY PREDICTED BY RF-SCORE:    0.00 PKD
ROOT
HETATM    1  C   UNL     1     -11.797  13.832  66.798  1.00  0.00    -0.454 C  
HETATM    2  C   UNL     1     -11.563  13.655  68.282  1.00  0.00    -0.374 C  
HETATM    3  C   UNL     1     -11.040  14.663  69.022  1.00  0.00    -0.273 C  
ENDROOT
BRANCH   2   4
HETATM    4  C   UNL     1     -11.909  12.382  68.919  1.00  0.00    -0.350 C  
HETATM    5  C   UNL     1     -11.213  11.741  69.876  1.00  0.00    -0.093 C  
BRANCH   5   6
HETATM    6  C   UNL     1     -11.603  10.467  70.488  1.00  0.00    -0.441 C  
HETATM    7  C   UNL     1      -9.325   9.354  70.376  1.00  0.00    -0.317 C  
HETATM    8  C   UNL     1     -12.549  10.417  71.450  1.00  0.00    -0.539 C  
HETATM    9  C   UNL     1     -12.987   9.145  72.115  1.00  0.00    -0.498 C  
HETATM   10  C   UNL     1     -13.273  11.622  72.017  1.00  0.00    -0.443 C  
HETATM   11  C   UNL     1     -10.910   9.142  68.452  1.00  0.00    -0.098 C  
HETATM   12  C   UNL     1     -10.825   9.231  69.999  1.00  0.00    -0.264 C  
HETATM   13  C   UNL     1     -11.334   7.866  70.546  1.00  0.00    -0.242 C  
HETATM   14  C   UNL     1     -12.342   7.842  71.684  1.00  0.00    -0.348 C  
ENDBRANCH   5   6
ENDBRANCH   2   4
BRANCH   3  15
HETATM   15  C   UNL     1     -10.704  15.968  68.477  1.00  0.00    -0.287 C  
HETATM   16  C   UNL     1      -9.631  16.712  68.787  1.00  0.00    -0.254 C  
BRANCH  16  17
HETATM   17  C   UNL     1      -9.390  18.054  68.238  1.00  0.00    -0.299 C  
HETATM   18  C   UNL     1      -7.623  19.927  68.017  1.00  0.00    -0.297 C  
HETATM   19  O   UNL     1      -6.629  20.376  68.573  1.00  0.00    -0.297 OA 
HETATM   20  C   UNL     1      -8.169  18.604  68.402  1.00  0.00    -0.361 C  
HETATM   21  C   UNL     1     -10.565  18.762  67.604  1.00  0.00    -0.481 C  
HETATM   22  O   UNL     1      -8.231  20.563  67.002  1.00  0.00    -0.313 OA 
ENDBRANCH  16  17
ENDBRANCH   3  15
TORSDOF 4
ENDMDL
MODEL       17
REMARK 921   NORMALIZED FREE ENERGY PREDICTED BY IDOCK:   -5.93 KCAL/MOL
REMARK 922        TOTAL FREE ENERGY PREDICTED BY IDOCK:   -7.94 KCAL/MOL
REMARK 923 INTER-LIGAND FREE ENERGY PREDICTED BY IDOCK:   -7.26 KCAL/MOL
REMARK 924 INTRA-LIGAND FREE ENERGY PREDICTED BY IDOCK:   -0.68 KCAL/MOL
REMARK 927      BINDING AFFINITY PREDICTED BY RF-SCORE:    0.00 PKD
ROOT
HETATM    1  C   UNL     1     -11.962  12.895  69.620  1.00  0.00    -0.358 C  
HETATM    2  C   UNL     1     -11.748  11.841  68.557  1.00  0.00    -0.390 C  
HETATM    3  C   UNL     1     -11.640  12.191  67.252  1.00  0.00    -0.404 C  
ENDROOT
BRANCH   2   4
HETATM    4  C   UNL     1     -11.656  10.432  68.947  1.00  0.00    -0.208 C  
HETATM    5  C   UNL     1     -10.547   9.765  69.317  1.00  0.00    -0.240 C  
BRANCH   5   6
HETATM    6  C   UNL     1     -10.506   8.353  69.705  1.00  0.00    -0.221 C  
HETATM    7  C   UNL     1     -11.913   8.562  71.806  1.00  0.00    -0.393 C  
HETATM    8  C   UNL     1     -10.474   7.375  68.774  1.00  0.00    -0.215 C  
HETATM    9  C   UNL     1     -10.435   5.913  69.109  1.00  0.00    -0.338 C  
HETATM   10  C   UNL     1     -10.507   7.604  67.276  1.00  0.00    -0.396 C  
HETATM   11  C   UNL     1      -9.434   8.873  71.932  1.00  0.00    -0.301 C  
HETATM   12  C   UNL     1     -10.560   8.079  71.220  1.00  0.00    -0.245 C  
HETATM   13  C   UNL     1     -10.377   6.590  71.632  1.00  0.00    -0.232 C  
HETATM   14  C   UNL     1     -10.425   5.504  70.570  1.00  0.00    -0.347 C  
ENDBRANCH   5   6
ENDBRANCH   2   4
BRANCH   3  15
HETATM   15  C   UNL     1     -11.683  13.567  66.783  1.00  0.00    -0.430 C  
HETATM   16  C   UNL     1     -10.670  14.258  66.239  1.00  0.00    -0.297 C  
BRANCH  16  17
HETATM   17  C   UNL     1     -10.774  15.670  65.843  1.00  0.00    -0.336 C  
HETATM   18  C   UNL     1     -10.521  18.097  66.696  1.00  0.00    -0.339 C  
HETATM   19  O   UNL     1     -10.575  18.761  67.723  1.00  0.00    -0.410 OA 
HETATM   20  C   UNL     1     -10.477  16.616  66.758  1.00  0.00    -0.261 C  
HETATM   21  C   UNL     1     -11.297  15.961  64.456  1.00  0.00    -0.316 C  
HETATM   22  O   UNL     1     -10.436  18.656  65.479  1.00  0.00    -0.585 OA 
ENDBRANCH  16  17
ENDBRANCH   3  15
TORSDOF 4
ENDMDL
MODEL       18
REMARK 921   NORMALIZED FREE ENERGY PREDICTED BY IDOCK:   -5.88 KCAL/MOL
REMARK 922        TOTAL FREE ENERGY PREDICTED BY IDOCK:   -7.88 KCAL/MOL
REMARK 923 INTER-LIGAND FREE ENERGY PREDICTED BY IDOCK:   -7.23 KCAL/MOL
REMARK 924 INTRA-LIGAND FREE ENERGY PREDICTED BY IDOCK:   -0.65 KCAL/MOL
REMARK 927      BINDING AFFINITY PREDICTED BY RF-SCORE:    0.00 PKD
ROOT
HETATM    1  C   UNL     1     -11.365  11.104  67.398  1.00  0.00    -0.329 C  
HETATM    2  C   UNL     1     -11.578  12.176  68.443  1.00  0.00    -0.381 C  
HETATM    3  C   UNL     1     -11.846  11.841  69.729  1.00  0.00    -0.420 C  
ENDROOT
BRANCH   2   4
HETATM    4  C   UNL     1     -11.492  13.587  68.056  1.00  0.00    -0.342 C  
HETATM    5  C   UNL     1     -10.384  14.260  67.695  1.00  0.00    -0.248 C  
BRANCH   5   6
HETATM    6  C   UNL     1     -10.349  15.674  67.310  1.00  0.00    -0.277 C  
HETATM    7  C   UNL     1      -8.473  16.378  68.868  1.00  0.00    -0.247 C  
HETATM    8  C   UNL     1     -10.617  16.058  66.044  1.00  0.00    -0.324 C  
HETATM    9  C   UNL     1     -10.593  17.489  65.590  1.00  0.00    -0.144 C  
HETATM   10  C   UNL     1     -10.944  15.116  64.903  1.00  0.00    -0.434 C  
HETATM   11  C   UNL     1     -10.844  16.449  69.663  1.00  0.00    -0.346 C  
HETATM   12  C   UNL     1      -9.933  16.654  68.424  1.00  0.00    -0.255 C  
HETATM   13  C   UNL     1     -10.031  18.162  68.052  1.00  0.00    -0.353 C  
HETATM   14  C   UNL     1     -10.256  18.566  66.603  1.00  0.00    -0.429 C  
ENDBRANCH   5   6
ENDBRANCH   2   4
BRANCH   3  15
HETATM   15  C   UNL     1     -11.913  10.469  70.204  1.00  0.00    -0.398 C  
HETATM   16  C   UNL     1     -10.923   9.775  70.784  1.00  0.00    -0.406 C  
BRANCH  16  17
HETATM   17  C   UNL     1     -11.048   8.366  71.185  1.00  0.00    -0.301 C  
HETATM   18  C   UNL     1     -10.905   6.753  73.200  1.00  0.00    -0.284 C  
HETATM   19  O   UNL     1     -10.376   6.637  74.298  1.00  0.00    -0.361 OA 
HETATM   20  C   UNL     1     -10.886   8.053  72.488  1.00  0.00    -0.415 C  
HETATM   21  C   UNL     1     -11.262   7.352  70.086  1.00  0.00    -0.239 C  
HETATM   22  O   UNL     1     -11.576   5.749  72.612  1.00  0.00    -0.300 OA 
ENDBRANCH  16  17
ENDBRANCH   3  15
TORSDOF 4
ENDMDL
MODEL       19
REMARK 921   NORMALIZED FREE ENERGY PREDICTED BY IDOCK:   -5.80 KCAL/MOL
REMARK 922        TOTAL FREE ENERGY PREDICTED BY IDOCK:   -7.77 KCAL/MOL
REMARK 923 INTER-LIGAND FREE ENERGY PREDICTED BY IDOCK:   -7.16 KCAL/MOL
REMARK 924 INTRA-LIGAND FREE ENERGY PREDICTED BY IDOCK:   -0.62 KCAL/MOL
REMARK 927      BINDING AFFINITY PREDICTED BY RF-SCORE:    0.00 PKD
ROOT
HETATM    1  C   UNL     1     -11.936  13.071  66.711  1.00  0.00    -0.434 C  
HETATM    2  C   UNL     1     -11.560  12.969  68.173  1.00  0.00    -0.379 C  
HETATM    3  C   UNL     1     -11.001  14.023  68.815  1.00  0.00    -0.282 C  
ENDROOT
BRANCH   2   4
HETATM    4  C   UNL     1     -11.807  11.718  68.894  1.00  0.00    -0.381 C  
HETATM    5  C   UNL     1     -11.053  11.187  69.874  1.00  0.00    -0.234 C  
BRANCH   5   6
HETATM    6  C   UNL     1     -11.344   9.932  70.571  1.00  0.00    -0.399 C  
HETATM    7  C   UNL     1      -8.957   9.080  70.697  1.00  0.00    -0.263 C  
HETATM    8  C   UNL     1     -12.345   9.852  71.475  1.00  0.00    -0.504 C  
HETATM    9  C   UNL     1     -12.688   8.596  72.222  1.00  0.00    -0.450 C  
HETATM   10  C   UNL     1     -13.233  11.008  71.888  1.00  0.00    -0.503 C  
HETATM   11  C   UNL     1     -10.370   8.533  68.707  1.00  0.00    -0.233 C  
HETATM   12  C   UNL     1     -10.404   8.756  70.242  1.00  0.00    -0.227 C  
HETATM   13  C   UNL     1     -10.800   7.392  70.876  1.00  0.00    -0.255 C  
HETATM   14  C   UNL     1     -11.876   7.344  71.949  1.00  0.00    -0.332 C  
ENDBRANCH   5   6
ENDBRANCH   2   4
BRANCH   3  15
HETATM   15  C   UNL     1     -10.756  15.310  68.185  1.00  0.00    -0.257 C  
HETATM   16  C   UNL     1      -9.605  15.999  68.194  1.00  0.00    -0.209 C  
BRANCH  16  17
HETATM   17  C   UNL     1      -9.451  17.327  67.584  1.00  0.00    -0.246 C  
HETATM   18  C   UNL     1      -8.106  18.672  65.833  1.00  0.00     0.038 C  
HETATM   19  O   UNL     1      -7.021  18.691  65.268  1.00  0.00    -0.523 OA 
HETATM   20  C   UNL     1      -8.533  17.482  66.607  1.00  0.00    -0.288 C  
HETATM   21  C   UNL     1     -10.276  18.452  68.163  1.00  0.00    -0.410 C  
HETATM   22  O   UNL     1      -8.987  19.681  65.738  1.00  0.00    -0.386 OA 
ENDBRANCH  16  17
ENDBRANCH   3  15
TORSDOF 4
ENDMDL
MODEL       20
REMARK 921   NORMALIZED FREE ENERGY PREDICTED BY IDOCK:   -5.80 KCAL/MOL
REMARK 922        TOTAL FREE ENERGY PREDICTED BY IDOCK:   -7.77 KCAL/MOL
REMARK 923 INTER-LIGAND FREE ENERGY PREDICTED BY IDOCK:   -7.11 KCAL/MOL
REMARK 924 INTRA-LIGAND FREE ENERGY PREDICTED BY IDOCK:   -0.66 KCAL/MOL
REMARK 927      BINDING AFFINITY PREDICTED BY RF-SCORE:    0.00 PKD
ROOT
HETATM    1  C   UNL     1     -11.181  11.375  67.177  1.00  0.00    -0.363 C  
HETATM    2  C   UNL     1     -11.508  12.400  68.240  1.00  0.00    -0.360 C  
HETATM    3  C   UNL     1     -11.847  12.009  69.492  1.00  0.00    -0.390 C  
ENDROOT
BRANCH   2   4
HETATM    4  C   UNL     1     -11.454  13.826  67.907  1.00  0.00    -0.347 C  
HETATM    5  C   UNL     1     -10.350  14.583  67.767  1.00  0.00    -0.237 C  
BRANCH   5   6
HETATM    6  C   UNL     1     -10.347  16.008  67.428  1.00  0.00    -0.294 C  
HETATM    7  C   UNL     1      -8.487  16.705  69.007  1.00  0.00    -0.176 C  
HETATM    8  C   UNL     1     -10.626  16.427  66.174  1.00  0.00    -0.259 C  
HETATM    9  C   UNL     1     -10.634  17.871  65.766  1.00  0.00    -0.175 C  
HETATM   10  C   UNL     1     -10.932  15.514  65.004  1.00  0.00    -0.454 C  
HETATM   11  C   UNL     1     -10.858  16.697  69.804  1.00  0.00    -0.238 C  
HETATM   12  C   UNL     1      -9.953  16.962  68.572  1.00  0.00    -0.275 C  
HETATM   13  C   UNL     1     -10.085  18.478  68.248  1.00  0.00    -0.424 C  
HETATM   14  C   UNL     1     -10.320  18.923  66.813  1.00  0.00    -0.477 C  
ENDBRANCH   5   6
ENDBRANCH   2   4
BRANCH   3  15
HETATM   15  C   UNL     1     -11.890  10.618  69.916  1.00  0.00    -0.392 C  
HETATM   16  C   UNL     1     -11.112  10.042  70.845  1.00  0.00    -0.385 C  
BRANCH  16  17
HETATM   17  C   UNL     1     -11.173   8.611  71.177  1.00  0.00    -0.329 C  
HETATM   18  C   UNL     1     -10.805   6.235  70.228  1.00  0.00    -0.304 C  
HETATM   19  O   UNL     1     -10.806   5.615  69.173  1.00  0.00    -0.284 OA 
HETATM   20  C   UNL     1     -10.815   7.718  70.231  1.00  0.00    -0.252 C  
HETATM   21  C   UNL     1     -11.723   8.241  72.534  1.00  0.00    -0.451 C  
HETATM   22  O   UNL     1     -10.732   5.627  71.423  1.00  0.00    -0.247 OA 
ENDBRANCH  16  17
ENDBRANCH   3  15
TORSDOF 4
ENDMDL
MODEL       21
REMARK 921   NORMALIZED FREE ENERGY PREDICTED BY IDOCK:   -5.79 KCAL/MOL
REMARK 922        TOTAL FREE ENERGY PREDICTED BY IDOCK:   -7.76 KCAL/MOL
REMARK 923 INTER-LIGAND FREE ENERGY PREDICTED BY IDOCK:   -7.11 KCAL/MOL
REMARK 924 INTRA-LIGAND FREE ENERGY PREDICTED BY IDOCK:   -0.65 KCAL/MOL
REMARK 927      BINDING AFFINITY PREDICTED BY RF-SCORE:    0.00 PKD
ROOT
HETATM    1  C   UNL     1     -10.045   9.673  66.576  1.00  0.00    -0.314 C  
HETATM    2  C   UNL     1     -10.696   9.849  67.930  1.00  0.00    -0.316 C  
HETATM    3  C   UNL     1     -11.442  10.948  68.198  1.00  0.00    -0.368 C  
ENDROOT
BRANCH   2   4
HETATM    4  C   UNL     1     -10.516   8.817  68.955  1.00  0.00    -0.220 C  
HETATM    5  C   UNL     1     -11.005   7.563  68.936  1.00  0.00     0.029 C  
BRANCH   5   6
HETATM    6  C   UNL     1     -10.793   6.563  69.985  1.00  0.00    -0.342 C  
HETATM    7  C   UNL     1      -8.274   6.378  69.741  1.00  0.00    -0.126 C  
HETATM    8  C   UNL     1     -11.563   6.544  71.095  1.00  0.00    -0.390 C  
HETATM    9  C   UNL     1     -11.392   5.548  72.204  1.00  0.00    -0.214 C  
HETATM   10  C   UNL     1     -12.673   7.531  71.397  1.00  0.00    -0.382 C  
HETATM   11  C   UNL     1      -9.769   4.912  68.371  1.00  0.00    -0.212 C  
HETATM   12  C   UNL     1      -9.615   5.598  69.755  1.00  0.00    -0.206 C  
HETATM   13  C   UNL     1      -9.479   4.453  70.800  1.00  0.00    -0.243 C  
HETATM   14  C   UNL     1     -10.302   4.500  72.077  1.00  0.00    -0.216 C  
ENDBRANCH   5   6
ENDBRANCH   2   4
BRANCH   3  15
HETATM   15  C   UNL     1     -11.701  11.999  67.228  1.00  0.00    -0.339 C  
HETATM   16  C   UNL     1     -11.128  13.212  67.191  1.00  0.00    -0.305 C  
BRANCH  16  17
HETATM   17  C   UNL     1     -11.488  14.248  66.212  1.00  0.00    -0.360 C  
HETATM   18  C   UNL     1     -10.810  16.564  65.286  1.00  0.00    -0.221 C  
HETATM   19  O   UNL     1     -10.225  17.590  65.608  1.00  0.00    -0.595 OA 
HETATM   20  C   UNL     1     -10.705  15.343  66.120  1.00  0.00    -0.316 C  
HETATM   21  C   UNL     1     -12.770  14.050  65.437  1.00  0.00    -0.499 C  
HETATM   22  O   UNL     1     -11.517  16.463  64.149  1.00  0.00    -0.951 OA 
ENDBRANCH  16  17
ENDBRANCH   3  15
TORSDOF 4
ENDMDL
MODEL       22
REMARK 921   NORMALIZED FREE ENERGY PREDICTED BY IDOCK:   -5.78 KCAL/MOL
REMARK 922        TOTAL FREE ENERGY PREDICTED BY IDOCK:   -7.76 KCAL/MOL
REMARK 923 INTER-LIGAND FREE ENERGY PREDICTED BY IDOCK:   -7.12 KCAL/MOL
REMARK 924 INTRA-LIGAND FREE ENERGY PREDICTED BY IDOCK:   -0.64 KCAL/MOL
REMARK 927      BINDING AFFINITY PREDICTED BY RF-SCORE:    0.00 PKD
ROOT
HETATM    1  C   UNL     1     -11.053   9.896  68.082  1.00  0.00    -0.215 C  
HETATM    2  C   UNL     1     -11.517  11.080  68.900  1.00  0.00    -0.364 C  
HETATM    3  C   UNL     1     -11.948  10.910  70.174  1.00  0.00    -0.435 C  
ENDROOT
BRANCH   2   4
HETATM    4  C   UNL     1     -11.498  12.419  68.306  1.00  0.00    -0.360 C  
HETATM    5  C   UNL     1     -10.607  12.897  67.419  1.00  0.00    -0.242 C  
BRANCH   5   6
HETATM    6  C   UNL     1     -10.632  14.246  66.847  1.00  0.00    -0.273 C  
HETATM    7  C   UNL     1     -12.704  13.943  65.414  1.00  0.00    -0.525 C  
HETATM    8  C   UNL     1     -10.219  15.314  67.563  1.00  0.00    -0.239 C  
HETATM    9  C   UNL     1     -10.224  16.718  67.034  1.00  0.00    -0.292 C  
HETATM   10  C   UNL     1      -9.728  15.260  68.996  1.00  0.00    -0.234 C  
HETATM   11  C   UNL     1     -10.453  13.376  64.482  1.00  0.00    -0.431 C  
HETATM   12  C   UNL     1     -11.208  14.353  65.422  1.00  0.00    -0.335 C  
HETATM   13  C   UNL     1     -11.105  15.761  64.768  1.00  0.00    -0.413 C  
HETATM   14  C   UNL     1     -10.713  16.959  65.618  1.00  0.00    -0.173 C  
ENDBRANCH   5   6
ENDBRANCH   2   4
BRANCH   3  15
HETATM   15  C   UNL     1     -11.965   9.623  70.852  1.00  0.00    -0.391 C  
HETATM   16  C   UNL     1     -11.009   9.128  71.651  1.00  0.00    -0.445 C  
BRANCH  16  17
HETATM   17  C   UNL     1     -11.071   7.789  72.254  1.00  0.00    -0.355 C  
HETATM   18  C   UNL     1      -9.955   6.233  73.991  1.00  0.00    -0.261 C  
HETATM   19  O   UNL     1      -8.884   6.034  74.549  1.00  0.00    -0.122 OA 
HETATM   20  C   UNL     1     -10.185   7.481  73.225  1.00  0.00    -0.398 C  
HETATM   21  C   UNL     1     -12.072   6.817  71.675  1.00  0.00    -0.404 C  
HETATM   22  O   UNL     1     -10.988   5.380  74.086  1.00  0.00    -0.208 OA 
ENDBRANCH  16  17
ENDBRANCH   3  15
TORSDOF 4
ENDMDL
MODEL       23
REMARK 921   NORMALIZED FREE ENERGY PREDICTED BY IDOCK:   -5.75 KCAL/MOL
REMARK 922        TOTAL FREE ENERGY PREDICTED BY IDOCK:   -7.72 KCAL/MOL
REMARK 923 INTER-LIGAND FREE ENERGY PREDICTED BY IDOCK:   -7.12 KCAL/MOL
REMARK 924 INTRA-LIGAND FREE ENERGY PREDICTED BY IDOCK:   -0.60 KCAL/MOL
REMARK 927      BINDING AFFINITY PREDICTED BY RF-SCORE:    0.00 PKD
ROOT
HETATM    1  C   UNL     1     -11.400  16.094  70.887  1.00  0.00    -0.394 C  
HETATM    2  C   UNL     1     -11.065  15.485  69.544  1.00  0.00    -0.286 C  
HETATM    3  C   UNL     1     -11.441  14.217  69.249  1.00  0.00    -0.337 C  
ENDROOT
BRANCH   2   4
HETATM    4  C   UNL     1     -10.329  16.279  68.556  1.00  0.00    -0.261 C  
HETATM    5  C   UNL     1      -9.426  17.246  68.806  1.00  0.00    -0.256 C  
BRANCH   5   6
HETATM    6  C   UNL     1      -8.710  18.011  67.782  1.00  0.00    -0.251 C  
HETATM    7  C   UNL     1      -7.222  16.126  66.963  1.00  0.00    -0.256 C  
HETATM    8  C   UNL     1      -9.324  18.996  67.092  1.00  0.00    -0.345 C  
HETATM    9  C   UNL     1      -8.645  19.811  66.031  1.00  0.00    -0.292 C  
HETATM   10  C   UNL     1     -10.776  19.397  67.259  1.00  0.00    -0.603 C  
HETATM   11  C   UNL     1      -6.466  17.575  68.857  1.00  0.00    -0.213 C  
HETATM   12  C   UNL     1      -7.256  17.572  67.522  1.00  0.00    -0.184 C  
HETATM   13  C   UNL     1      -6.458  18.473  66.536  1.00  0.00    -0.217 C  
HETATM   14  C   UNL     1      -7.190  19.522  65.714  1.00  0.00    -0.314 C  
ENDBRANCH   5   6
ENDBRANCH   2   4
BRANCH   3  15
HETATM   15  C   UNL     1     -12.205  13.374  70.155  1.00  0.00    -0.385 C  
HETATM   16  C   UNL     1     -12.053  12.054  70.338  1.00  0.00    -0.407 C  
BRANCH  16  17
HETATM   17  C   UNL     1     -12.907  11.257  71.231  1.00  0.00    -0.491 C  
HETATM   18  C   UNL     1     -13.820   8.878  71.663  1.00  0.00    -0.384 C  
HETATM   19  O   UNL     1     -14.080   7.832  71.082  1.00  0.00    -0.280 OA 
HETATM   20  C   UNL     1     -13.023   9.933  70.994  1.00  0.00    -0.412 C  
HETATM   21  C   UNL     1     -13.669  12.000  72.303  1.00  0.00    -0.035 C  
HETATM   22  O   UNL     1     -14.180   9.104  72.937  1.00  0.00    -0.512 OA 
ENDBRANCH  16  17
ENDBRANCH   3  15
TORSDOF 4
ENDMDL
MODEL       24
REMARK 921   NORMALIZED FREE ENERGY PREDICTED BY IDOCK:   -5.73 KCAL/MOL
REMARK 922        TOTAL FREE ENERGY PREDICTED BY IDOCK:   -7.69 KCAL/MOL
REMARK 923 INTER-LIGAND FREE ENERGY PREDICTED BY IDOCK:   -7.08 KCAL/MOL
REMARK 924 INTRA-LIGAND FREE ENERGY PREDICTED BY IDOCK:   -0.60 KCAL/MOL
REMARK 927      BINDING AFFINITY PREDICTED BY RF-SCORE:    0.00 PKD
ROOT
HETATM    1  C   UNL     1     -12.899  10.413  71.664  1.00  0.00    -0.579 C  
HETATM    2  C   UNL     1     -11.685   9.647  71.188  1.00  0.00    -0.450 C  
HETATM    3  C   UNL     1     -11.174   9.865  69.952  1.00  0.00    -0.298 C  
ENDROOT
BRANCH   2   4
HETATM    4  C   UNL     1     -11.061   8.662  72.076  1.00  0.00    -0.437 C  
HETATM    5  C   UNL     1     -10.474   7.506  71.716  1.00  0.00    -0.222 C  
BRANCH   5   6
HETATM    6  C   UNL     1      -9.857   6.554  72.643  1.00  0.00    -0.179 C  
HETATM    7  C   UNL     1      -8.289   8.192  73.782  1.00  0.00    -0.311 C  
HETATM    8  C   UNL     1     -10.564   5.526  73.159  1.00  0.00    -0.281 C  
HETATM    9  C   UNL     1      -9.989   4.521  74.114  1.00  0.00    -0.205 C  
HETATM   10  C   UNL     1     -12.030   5.257  72.882  1.00  0.00    -0.068 C  
HETATM   11  C   UNL     1      -7.542   6.979  71.726  1.00  0.00    -0.088 C  
HETATM   12  C   UNL     1      -8.391   6.847  73.018  1.00  0.00    -0.126 C  
HETATM   13  C   UNL     1      -7.699   5.760  73.890  1.00  0.00    -0.100 C  
HETATM   14  C   UNL     1      -8.534   4.659  74.523  1.00  0.00    -0.103 C  
ENDBRANCH   5   6
ENDBRANCH   2   4
BRANCH   3  15
HETATM   15  C   UNL     1     -11.709  10.848  69.023  1.00  0.00    -0.391 C  
HETATM   16  C   UNL     1     -11.002  11.671  68.235  1.00  0.00    -0.273 C  
BRANCH  16  17
HETATM   17  C   UNL     1     -11.615  12.683  67.364  1.00  0.00    -0.421 C  
HETATM   18  C   UNL     1     -12.618  13.077  65.014  1.00  0.00    -0.454 C  
HETATM   19  O   UNL     1     -12.566  12.652  63.867  1.00  0.00    -0.633 OA 
HETATM   20  C   UNL     1     -12.017  12.310  66.130  1.00  0.00    -0.323 C  
HETATM   21  C   UNL     1     -11.670  14.100  67.884  1.00  0.00    -0.402 C  
HETATM   22  O   UNL     1     -13.264  14.210  65.335  1.00  0.00    -0.741 OA 
ENDBRANCH  16  17
ENDBRANCH   3  15
TORSDOF 4
ENDMDL
MODEL       25
REMARK 921   NORMALIZED FREE ENERGY PREDICTED BY IDOCK:   -5.72 KCAL/MOL
REMARK 922        TOTAL FREE ENERGY PREDICTED BY IDOCK:   -7.68 KCAL/MOL
REMARK 923 INTER-LIGAND FREE ENERGY PREDICTED BY IDOCK:   -7.00 KCAL/MOL
REMARK 924 INTRA-LIGAND FREE ENERGY PREDICTED BY IDOCK:   -0.68 KCAL/MOL
REMARK 927      BINDING AFFINITY PREDICTED BY RF-SCORE:    0.00 PKD
ROOT
HETATM    1  C   UNL     1     -12.818  11.102  71.221  1.00  0.00    -0.515 C  
HETATM    2  C   UNL     1     -11.711  11.123  70.191  1.00  0.00    -0.439 C  
HETATM    3  C   UNL     1     -10.766  10.152  70.175  1.00  0.00    -0.355 C  
ENDROOT
BRANCH   2   4
HETATM    4  C   UNL     1     -11.667  12.205  69.204  1.00  0.00    -0.384 C  
HETATM    5  C   UNL     1     -10.583  12.656  68.545  1.00  0.00    -0.262 C  
BRANCH   5   6
HETATM    6  C   UNL     1     -10.590  13.741  67.560  1.00  0.00    -0.246 C  
HETATM    7  C   UNL     1     -12.151  12.640  65.889  1.00  0.00    -0.459 C  
HETATM    8  C   UNL     1     -10.500  15.032  67.945  1.00  0.00    -0.247 C  
HETATM    9  C   UNL     1     -10.505  16.185  66.985  1.00  0.00    -0.306 C  
HETATM   10  C   UNL     1     -10.415  15.503  69.383  1.00  0.00    -0.253 C  
HETATM   11  C   UNL     1      -9.685  12.249  65.734  1.00  0.00    -0.228 C  
HETATM   12  C   UNL     1     -10.764  13.304  66.093  1.00  0.00    -0.287 C  
HETATM   13  C   UNL     1     -10.632  14.443  65.041  1.00  0.00    -0.452 C  
HETATM   14  C   UNL     1     -10.612  15.892  65.500  1.00  0.00    -0.419 C  
ENDBRANCH   5   6
ENDBRANCH   2   4
BRANCH   3  15
HETATM   15  C   UNL     1     -10.756   9.025  71.093  1.00  0.00    -0.358 C  
HETATM   16  C   UNL     1      -9.851   8.783  72.053  1.00  0.00    -0.376 C  
BRANCH  16  17
HETATM   17  C   UNL     1      -9.874   7.586  72.905  1.00  0.00    -0.272 C  
HETATM   18  C   UNL     1     -11.076   5.331  73.296  1.00  0.00    -0.316 C  
HETATM   19  O   UNL     1     -12.152   4.776  73.117  1.00  0.00    -0.136 OA 
HETATM   20  C   UNL     1     -10.769   6.616  72.623  1.00  0.00    -0.265 C  
HETATM   21  C   UNL     1      -8.948   7.570  74.098  1.00  0.00    -0.267 C  
HETATM   22  O   UNL     1     -10.103   4.792  74.048  1.00  0.00    -0.156 OA 
ENDBRANCH  16  17
ENDBRANCH   3  15
TORSDOF 4
ENDMDL
MODEL       26
REMARK 921   NORMALIZED FREE ENERGY PREDICTED BY IDOCK:   -5.72 KCAL/MOL
REMARK 922        TOTAL FREE ENERGY PREDICTED BY IDOCK:   -7.67 KCAL/MOL
REMARK 923 INTER-LIGAND FREE ENERGY PREDICTED BY IDOCK:   -7.10 KCAL/MOL
REMARK 924 INTRA-LIGAND FREE ENERGY PREDICTED BY IDOCK:   -0.58 KCAL/MOL
REMARK 927      BINDING AFFINITY PREDICTED BY RF-SCORE:    0.00 PKD
ROOT
HETATM    1  C   UNL     1     -13.015  12.209  71.389  1.00  0.00    -0.357 C  
HETATM    2  C   UNL     1     -12.037  12.262  70.237  1.00  0.00    -0.376 C  
HETATM    3  C   UNL     1     -11.276  11.184  69.930  1.00  0.00    -0.293 C  
ENDROOT
BRANCH   2   4
HETATM    4  C   UNL     1     -11.918  13.492  69.448  1.00  0.00    -0.383 C  
HETATM    5  C   UNL     1     -10.866  13.877  68.704  1.00  0.00    -0.278 C  
BRANCH   5   6
HETATM    6  C   UNL     1     -10.795  15.118  67.927  1.00  0.00    -0.291 C  
HETATM    7  C   UNL     1     -12.149  14.319  65.935  1.00  0.00    -0.416 C  
HETATM    8  C   UNL     1     -10.775  16.322  68.538  1.00  0.00    -0.307 C  
HETATM    9  C   UNL     1     -10.707  17.625  67.797  1.00  0.00    -0.336 C  
HETATM   10  C   UNL     1     -10.850  16.535  70.037  1.00  0.00    -0.258 C  
HETATM   11  C   UNL     1      -9.672  13.972  65.976  1.00  0.00    -0.280 C  
HETATM   12  C   UNL     1     -10.807  14.943  66.397  1.00  0.00    -0.325 C  
HETATM   13  C   UNL     1     -10.592  16.249  65.578  1.00  0.00    -0.369 C  
HETATM   14  C   UNL     1     -10.653  17.596  66.281  1.00  0.00    -0.215 C  
ENDBRANCH   5   6
ENDBRANCH   2   4
BRANCH   3  15
HETATM   15  C   UNL     1     -11.357   9.916  70.636  1.00  0.00    -0.413 C  
HETATM   16  C   UNL     1     -10.855   8.741  70.228  1.00  0.00    -0.252 C  
BRANCH  16  17
HETATM   17  C   UNL     1     -11.030   7.484  70.971  1.00  0.00    -0.266 C  
HETATM   18  C   UNL     1     -10.889   6.416  73.320  1.00  0.00    -0.244 C  
HETATM   19  O   UNL     1     -10.327   6.548  74.399  1.00  0.00    -0.346 OA 
HETATM   20  C   UNL     1     -10.836   7.496  72.306  1.00  0.00    -0.302 C  
HETATM   21  C   UNL     1     -11.329   6.242  70.164  1.00  0.00    -0.476 C  
HETATM   22  O   UNL     1     -11.625   5.334  73.017  1.00  0.00    -0.313 OA 
ENDBRANCH  16  17
ENDBRANCH   3  15
TORSDOF 4
ENDMDL
MODEL       27
REMARK 921   NORMALIZED FREE ENERGY PREDICTED BY IDOCK:   -5.72 KCAL/MOL
REMARK 922        TOTAL FREE ENERGY PREDICTED BY IDOCK:   -7.67 KCAL/MOL
REMARK 923 INTER-LIGAND FREE ENERGY PREDICTED BY IDOCK:   -7.03 KCAL/MOL
REMARK 924 INTRA-LIGAND FREE ENERGY PREDICTED BY IDOCK:   -0.64 KCAL/MOL
REMARK 927      BINDING AFFINITY PREDICTED BY RF-SCORE:    0.00 PKD
ROOT
HETATM    1  C   UNL     1     -12.749  11.506  71.215  1.00  0.00    -0.469 C  
HETATM    2  C   UNL     1     -11.777  11.322  70.071  1.00  0.00    -0.428 C  
HETATM    3  C   UNL     1     -10.932  10.263  70.049  1.00  0.00    -0.371 C  
ENDROOT
BRANCH   2   4
HETATM    4  C   UNL     1     -11.756  12.300  68.980  1.00  0.00    -0.376 C  
HETATM    5  C   UNL     1     -10.669  12.817  68.377  1.00  0.00    -0.269 C  
BRANCH   5   6
HETATM    6  C   UNL     1     -10.698  13.791  67.284  1.00  0.00    -0.286 C  
HETATM    7  C   UNL     1      -9.020  15.421  68.268  1.00  0.00    -0.185 C  
HETATM    8  C   UNL     1     -10.881  13.398  66.005  1.00  0.00    -0.281 C  
HETATM    9  C   UNL     1     -10.918  14.348  64.844  1.00  0.00    -0.416 C  
HETATM   10  C   UNL     1     -11.040  11.960  65.555  1.00  0.00    -0.356 C  
HETATM   11  C   UNL     1     -11.451  15.658  68.810  1.00  0.00    -0.382 C  
HETATM   12  C   UNL     1     -10.451  15.256  67.694  1.00  0.00    -0.263 C  
HETATM   13  C   UNL     1     -10.621  16.302  66.554  1.00  0.00    -0.256 C  
HETATM   14  C   UNL     1     -10.746  15.831  65.114  1.00  0.00    -0.455 C  
ENDBRANCH   5   6
ENDBRANCH   2   4
BRANCH   3  15
HETATM   15  C   UNL     1     -10.912   9.229  71.070  1.00  0.00    -0.390 C  
HETATM   16  C   UNL     1      -9.835   8.775  71.728  1.00  0.00    -0.391 C  
BRANCH  16  17
HETATM   17  C   UNL     1      -9.886   7.681  72.708  1.00  0.00    -0.283 C  
HETATM   18  C   UNL     1     -11.059   5.448  73.278  1.00  0.00    -0.297 C  
HETATM   19  O   UNL     1     -12.108   4.844  73.096  1.00  0.00    -0.146 OA 
HETATM   20  C   UNL     1     -10.738   6.658  72.484  1.00  0.00    -0.259 C  
HETATM   21  C   UNL     1      -9.040   7.826  73.951  1.00  0.00    -0.298 C  
HETATM   22  O   UNL     1     -10.124   5.027  74.145  1.00  0.00    -0.178 OA 
ENDBRANCH  16  17
ENDBRANCH   3  15
TORSDOF 4
ENDMDL
MODEL       28
REMARK 921   NORMALIZED FREE ENERGY PREDICTED BY IDOCK:   -5.71 KCAL/MOL
REMARK 922        TOTAL FREE ENERGY PREDICTED BY IDOCK:   -7.66 KCAL/MOL
REMARK 923 INTER-LIGAND FREE ENERGY PREDICTED BY IDOCK:   -7.02 KCAL/MOL
REMARK 924 INTRA-LIGAND FREE ENERGY PREDICTED BY IDOCK:   -0.64 KCAL/MOL
REMARK 927      BINDING AFFINITY PREDICTED BY RF-SCORE:    0.00 PKD
ROOT
HETATM    1  C   UNL     1     -10.477   9.581  66.648  1.00  0.00    -0.241 C  
HETATM    2  C   UNL     1     -10.206  10.118  68.035  1.00  0.00    -0.205 C  
HETATM    3  C   UNL     1     -10.119  11.453  68.252  1.00  0.00    -0.204 C  
ENDROOT
BRANCH   2   4
HETATM    4  C   UNL     1     -10.038   9.182  69.150  1.00  0.00    -0.199 C  
HETATM    5  C   UNL     1     -10.185   9.451  70.461  1.00  0.00    -0.332 C  
BRANCH   5   6
HETATM    6  C   UNL     1     -10.011   8.477  71.542  1.00  0.00    -0.314 C  
HETATM    7  C   UNL     1     -11.872   6.898  70.848  1.00  0.00    -0.424 C  
HETATM    8  C   UNL     1      -8.788   8.210  72.049  1.00  0.00    -0.233 C  
HETATM    9  C   UNL     1      -8.547   7.222  73.152  1.00  0.00    -0.163 C  
HETATM   10  C   UNL     1      -7.494   8.832  71.563  1.00  0.00    -0.116 C  
HETATM   11  C   UNL     1     -12.370   8.811  72.382  1.00  0.00    -0.414 C  
HETATM   12  C   UNL     1     -11.294   7.759  72.001  1.00  0.00    -0.332 C  
HETATM   13  C   UNL     1     -11.129   6.831  73.239  1.00  0.00    -0.167 C  
HETATM   14  C   UNL     1      -9.735   6.484  73.739  1.00  0.00    -0.227 C  
ENDBRANCH   5   6
ENDBRANCH   2   4
BRANCH   3  15
HETATM   15  C   UNL     1     -10.308  12.450  67.211  1.00  0.00    -0.227 C  
HETATM   16  C   UNL     1     -10.142  13.775  67.333  1.00  0.00    -0.244 C  
BRANCH  16  17
HETATM   17  C   UNL     1     -10.413  14.729  66.248  1.00  0.00    -0.300 C  
HETATM   18  C   UNL     1     -11.986  15.230  64.259  1.00  0.00    -0.223 C  
HETATM   19  O   UNL     1     -12.723  14.671  63.457  1.00  0.00    -0.670 OA 
HETATM   20  C   UNL     1     -11.474  14.503  65.445  1.00  0.00    -0.348 C  
HETATM   21  C   UNL     1      -9.422  15.853  66.053  1.00  0.00    -0.389 C  
HETATM   22  O   UNL     1     -11.653  16.527  64.151  1.00  0.00    -1.052 OA 
ENDBRANCH  16  17
ENDBRANCH   3  15
TORSDOF 4
ENDMDL
MODEL       29
REMARK 921   NORMALIZED FREE ENERGY PREDICTED BY IDOCK:   -5.66 KCAL/MOL
REMARK 922        TOTAL FREE ENERGY PREDICTED BY IDOCK:   -7.61 KCAL/MOL
REMARK 923 INTER-LIGAND FREE ENERGY PREDICTED BY IDOCK:   -6.93 KCAL/MOL
REMARK 924 INTRA-LIGAND FREE ENERGY PREDICTED BY IDOCK:   -0.68 KCAL/MOL
REMARK 927      BINDING AFFINITY PREDICTED BY RF-SCORE:    0.00 PKD
ROOT
HETATM    1  C   UNL     1     -12.161  13.541  69.951  1.00  0.00    -0.408 C  
HETATM    2  C   UNL     1     -11.316  12.645  69.072  1.00  0.00    -0.345 C  
HETATM    3  C   UNL     1     -10.437  13.177  68.189  1.00  0.00    -0.255 C  
ENDROOT
BRANCH   2   4
HETATM    4  C   UNL     1     -11.454  11.190  69.183  1.00  0.00    -0.366 C  
HETATM    5  C   UNL     1     -10.490  10.309  69.507  1.00  0.00    -0.268 C  
BRANCH   5   6
HETATM    6  C   UNL     1     -10.678   8.860  69.611  1.00  0.00    -0.222 C  
HETATM    7  C   UNL     1     -12.335   8.892  71.533  1.00  0.00    -0.381 C  
HETATM    8  C   UNL     1     -10.633   8.072  68.515  1.00  0.00    -0.144 C  
HETATM    9  C   UNL     1     -10.821   6.583  68.557  1.00  0.00    -0.353 C  
HETATM   10  C   UNL     1     -10.423   8.568  67.098  1.00  0.00    -0.370 C  
HETATM   11  C   UNL     1      -9.880   8.807  72.007  1.00  0.00    -0.376 C  
HETATM   12  C   UNL     1     -10.982   8.329  71.025  1.00  0.00    -0.280 C  
HETATM   13  C   UNL     1     -11.042   6.779  71.154  1.00  0.00    -0.313 C  
HETATM   14  C   UNL     1     -11.070   5.921  69.899  1.00  0.00    -0.417 C  
ENDBRANCH   5   6
ENDBRANCH   2   4
BRANCH   3  15
HETATM   15  C   UNL     1     -10.212  14.606  68.041  1.00  0.00    -0.231 C  
HETATM   16  C   UNL     1     -10.784  15.416  67.138  1.00  0.00    -0.314 C  
BRANCH  16  17
HETATM   17  C   UNL     1     -10.459  16.844  67.011  1.00  0.00    -0.281 C  
HETATM   18  C   UNL     1      -9.943  18.991  68.355  1.00  0.00    -0.408 C  
HETATM   19  O   UNL     1     -10.148  19.511  69.444  1.00  0.00    -0.356 OA 
HETATM   20  C   UNL     1     -10.242  17.555  68.137  1.00  0.00    -0.359 C  
HETATM   21  C   UNL     1     -10.481  17.436  65.621  1.00  0.00    -0.173 C  
HETATM   22  O   UNL     1      -9.389  19.658  67.329  1.00  0.00    -0.309 OA 
ENDBRANCH  16  17
ENDBRANCH   3  15
TORSDOF 4
ENDMDL
MODEL       30
REMARK 921   NORMALIZED FREE ENERGY PREDICTED BY IDOCK:   -5.64 KCAL/MOL
REMARK 922        TOTAL FREE ENERGY PREDICTED BY IDOCK:   -7.58 KCAL/MOL
REMARK 923 INTER-LIGAND FREE ENERGY PREDICTED BY IDOCK:   -7.04 KCAL/MOL
REMARK 924 INTRA-LIGAND FREE ENERGY PREDICTED BY IDOCK:   -0.54 KCAL/MOL
REMARK 927      BINDING AFFINITY PREDICTED BY RF-SCORE:    0.00 PKD
ROOT
HETATM    1  C   UNL     1     -12.745  11.802  71.145  1.00  0.00    -0.405 C  
HETATM    2  C   UNL     1     -11.662  11.590  70.110  1.00  0.00    -0.395 C  
HETATM    3  C   UNL     1     -11.117  10.364  69.925  1.00  0.00    -0.367 C  
ENDROOT
BRANCH   2   4
HETATM    4  C   UNL     1     -11.205  12.725  69.304  1.00  0.00    -0.252 C  
HETATM    5  C   UNL     1     -11.896  13.366  68.343  1.00  0.00    -0.401 C  
BRANCH   5   6
HETATM    6  C   UNL     1     -11.396  14.502  67.565  1.00  0.00    -0.355 C  
HETATM    7  C   UNL     1     -12.683  14.014  65.432  1.00  0.00    -0.499 C  
HETATM    8  C   UNL     1     -11.112  15.681  68.158  1.00  0.00    -0.330 C  
HETATM    9  C   UNL     1     -10.600  16.880  67.414  1.00  0.00    -0.294 C  
HETATM   10  C   UNL     1     -11.295  15.977  69.633  1.00  0.00    -0.332 C  
HETATM   11  C   UNL     1     -10.421  13.003  65.781  1.00  0.00    -0.292 C  
HETATM   12  C   UNL     1     -11.281  14.267  66.046  1.00  0.00    -0.324 C  
HETATM   13  C   UNL     1     -10.621  15.424  65.243  1.00  0.00    -0.450 C  
HETATM   14  C   UNL     1     -10.385  16.767  65.916  1.00  0.00    -0.341 C  
ENDBRANCH   5   6
ENDBRANCH   2   4
BRANCH   3  15
HETATM   15  C   UNL     1     -11.537   9.179  70.656  1.00  0.00    -0.282 C  
HETATM   16  C   UNL     1     -10.798   8.087  70.901  1.00  0.00    -0.248 C  
BRANCH  16  17
HETATM   17  C   UNL     1     -11.315   6.899  71.597  1.00  0.00    -0.296 C  
HETATM   18  C   UNL     1     -10.636   4.622  72.614  1.00  0.00    -0.195 C  
HETATM   19  O   UNL     1      -9.789   3.744  72.515  1.00  0.00    -0.138 OA 
HETATM   20  C   UNL     1     -10.441   5.935  71.954  1.00  0.00    -0.267 C  
HETATM   21  C   UNL     1     -12.811   6.804  71.783  1.00  0.00    -0.307 C  
HETATM   22  O   UNL     1     -11.742   4.477  73.361  1.00  0.00    -0.270 OA 
ENDBRANCH  16  17
ENDBRANCH   3  15
TORSDOF 4
ENDMDL
MODEL       31
REMARK 921   NORMALIZED FREE ENERGY PREDICTED BY IDOCK:   -5.64 KCAL/MOL
REMARK 922        TOTAL FREE ENERGY PREDICTED BY IDOCK:   -7.58 KCAL/MOL
REMARK 923 INTER-LIGAND FREE ENERGY PREDICTED BY IDOCK:   -7.33 KCAL/MOL
REMARK 924 INTRA-LIGAND FREE ENERGY PREDICTED BY IDOCK:   -0.25 KCAL/MOL
REMARK 927      BINDING AFFINITY PREDICTED BY RF-SCORE:    0.00 PKD
ROOT
HETATM    1  C   UNL     1      -9.661   9.472  65.459  1.00  0.00    -0.344 C  
HETATM    2  C   UNL     1     -10.107   9.534  66.903  1.00  0.00    -0.295 C  
HETATM    3  C   UNL     1     -10.753  10.627  67.378  1.00  0.00    -0.326 C  
ENDROOT
BRANCH   2   4
HETATM    4  C   UNL     1      -9.838   8.399  67.790  1.00  0.00    -0.218 C  
HETATM    5  C   UNL     1     -10.558   7.267  67.897  1.00  0.00    -0.266 C  
BRANCH   5   6
HETATM    6  C   UNL     1     -10.244   6.155  68.798  1.00  0.00    -0.226 C  
HETATM    7  C   UNL     1     -11.816   6.819  70.677  1.00  0.00    -0.442 C  
HETATM    8  C   UNL     1      -9.935   4.933  68.314  1.00  0.00    -0.177 C  
HETATM    9  C   UNL     1      -9.609   3.756  69.186  1.00  0.00    -0.195 C  
HETATM   10  C   UNL     1      -9.905   4.564  66.845  1.00  0.00    -0.238 C  
HETATM   11  C   UNL     1      -9.477   7.706  70.638  1.00  0.00    -0.163 C  
HETATM   12  C   UNL     1     -10.352   6.469  70.302  1.00  0.00    -0.241 C  
HETATM   13  C   UNL     1      -9.885   5.330  71.254  1.00  0.00    -0.232 C  
HETATM   14  C   UNL     1      -9.620   3.942  70.692  1.00  0.00    -0.259 C  
ENDBRANCH   5   6
ENDBRANCH   2   4
BRANCH   3  15
HETATM   15  C   UNL     1     -11.092  11.779  66.559  1.00  0.00    -0.364 C  
HETATM   16  C   UNL     1     -10.891  13.068  66.870  1.00  0.00    -0.282 C  
BRANCH  16  17
HETATM   17  C   UNL     1     -11.318  14.184  66.013  1.00  0.00    -0.330 C  
HETATM   18  C   UNL     1     -10.682  16.559  65.215  1.00  0.00    -0.254 C  
HETATM   19  O   UNL     1     -10.050  17.549  65.562  1.00  0.00    -0.576 OA 
HETATM   20  C   UNL     1     -10.525  15.273  65.936  1.00  0.00    -0.345 C  
HETATM   21  C   UNL     1     -12.668  14.065  65.346  1.00  0.00    -0.499 C  
HETATM   22  O   UNL     1     -11.491  16.559  64.144  1.00  0.00    -1.059 OA 
ENDBRANCH  16  17
ENDBRANCH   3  15
TORSDOF 4
ENDMDL
MODEL       32
REMARK 921   NORMALIZED FREE ENERGY PREDICTED BY IDOCK:   -5.58 KCAL/MOL
REMARK 922        TOTAL FREE ENERGY PREDICTED BY IDOCK:   -7.51 KCAL/MOL
REMARK 923 INTER-LIGAND FREE ENERGY PREDICTED BY IDOCK:   -6.87 KCAL/MOL
REMARK 924 INTRA-LIGAND FREE ENERGY PREDICTED BY IDOCK:   -0.64 KCAL/MOL
REMARK 927      BINDING AFFINITY PREDICTED BY RF-SCORE:    0.00 PKD
ROOT
HETATM    1  C   UNL     1     -10.028   9.897  66.655  1.00  0.00    -0.277 C  
HETATM    2  C   UNL     1     -10.272  10.330  68.083  1.00  0.00    -0.192 C  
HETATM    3  C   UNL     1     -10.523  11.629  68.376  1.00  0.00    -0.230 C  
ENDROOT
BRANCH   2   4
HETATM    4  C   UNL     1     -10.236   9.330  69.155  1.00  0.00    -0.214 C  
HETATM    5  C   UNL     1     -10.908   8.165  69.197  1.00  0.00    -0.033 C  
BRANCH   5   6
HETATM    6  C   UNL     1     -10.836   7.194  70.291  1.00  0.00    -0.271 C  
HETATM    7  C   UNL     1      -8.431   6.476  69.918  1.00  0.00    -0.135 C  
HETATM    8  C   UNL     1     -11.517   7.387  71.441  1.00  0.00    -0.290 C  
HETATM    9  C   UNL     1     -11.480   6.431  72.597  1.00  0.00    -0.234 C  
HETATM   10  C   UNL     1     -12.379   8.596  71.745  1.00  0.00    -0.402 C  
HETATM   11  C   UNL     1     -10.282   5.292  68.724  1.00  0.00    -0.231 C  
HETATM   12  C   UNL     1      -9.899   5.994  70.053  1.00  0.00    -0.215 C  
HETATM   13  C   UNL     1      -9.931   4.897  71.155  1.00  0.00    -0.278 C  
HETATM   14  C   UNL     1     -10.639   5.174  72.472  1.00  0.00    -0.275 C  
ENDBRANCH   5   6
ENDBRANCH   2   4
BRANCH   3  15
HETATM   15  C   UNL     1     -10.613  12.676  67.372  1.00  0.00    -0.240 C  
HETATM   16  C   UNL     1     -10.018  13.878  67.415  1.00  0.00    -0.240 C  
BRANCH  16  17
HETATM   17  C   UNL     1     -10.206  14.911  66.387  1.00  0.00    -0.292 C  
HETATM   18  C   UNL     1     -11.780  15.709  64.497  1.00  0.00    -0.220 C  
HETATM   19  O   UNL     1     -12.615  15.289  63.707  1.00  0.00    -0.733 OA 
HETATM   20  C   UNL     1     -11.319  14.864  65.625  1.00  0.00    -0.325 C  
HETATM   21  C   UNL     1      -9.086  15.907  66.196  1.00  0.00    -0.385 C  
HETATM   22  O   UNL     1     -11.285  16.955  64.432  1.00  0.00    -1.159 OA 
ENDBRANCH  16  17
ENDBRANCH   3  15
TORSDOF 4
ENDMDL
MODEL       33
REMARK 921   NORMALIZED FREE ENERGY PREDICTED BY IDOCK:   -5.57 KCAL/MOL
REMARK 922        TOTAL FREE ENERGY PREDICTED BY IDOCK:   -7.49 KCAL/MOL
REMARK 923 INTER-LIGAND FREE ENERGY PREDICTED BY IDOCK:   -6.83 KCAL/MOL
REMARK 924 INTRA-LIGAND FREE ENERGY PREDICTED BY IDOCK:   -0.66 KCAL/MOL
REMARK 927      BINDING AFFINITY PREDICTED BY RF-SCORE:    0.00 PKD
ROOT
HETATM    1  C   UNL     1      -9.037  10.786  69.079  1.00  0.00    -0.153 C  
HETATM    2  C   UNL     1     -10.427  10.339  69.475  1.00  0.00    -0.268 C  
HETATM    3  C   UNL     1     -11.518  10.858  68.861  1.00  0.00    -0.369 C  
ENDROOT
BRANCH   2   4
HETATM    4  C   UNL     1     -10.587   9.335  70.530  1.00  0.00    -0.309 C  
HETATM    5  C   UNL     1     -10.258   8.032  70.465  1.00  0.00    -0.201 C  
BRANCH   5   6
HETATM    6  C   UNL     1     -10.434   7.066  71.552  1.00  0.00    -0.222 C  
HETATM    7  C   UNL     1      -8.806   8.127  73.184  1.00  0.00    -0.325 C  
HETATM    8  C   UNL     1     -11.628   6.477  71.774  1.00  0.00    -0.359 C  
HETATM    9  C   UNL     1     -11.870   5.483  72.873  1.00  0.00    -0.134 C  
HETATM   10  C   UNL     1     -12.891   6.753  70.983  1.00  0.00    -0.134 C  
HETATM   11  C   UNL     1      -7.989   6.428  71.539  1.00  0.00    -0.105 C  
HETATM   12  C   UNL     1      -9.193   6.826  72.434  1.00  0.00    -0.142 C  
HETATM   13  C   UNL     1      -9.342   5.700  73.497  1.00  0.00    -0.138 C  
HETATM   14  C   UNL     1     -10.714   5.111  73.782  1.00  0.00    -0.352 C  
ENDBRANCH   5   6
ENDBRANCH   2   4
BRANCH   3  15
HETATM   15  C   UNL     1     -11.447  11.829  67.781  1.00  0.00    -0.381 C  
HETATM   16  C   UNL     1     -11.750  13.133  67.858  1.00  0.00    -0.398 C  
BRANCH  16  17
HETATM   17  C   UNL     1     -11.711  14.043  66.704  1.00  0.00    -0.420 C  
HETATM   18  C   UNL     1     -12.227  14.225  64.177  1.00  0.00    -0.378 C  
HETATM   19  O   UNL     1     -12.325  13.539  63.168  1.00  0.00    -0.712 OA 
HETATM   20  C   UNL     1     -12.168  13.592  65.517  1.00  0.00    -0.490 C  
HETATM   21  C   UNL     1     -11.075  15.396  66.912  1.00  0.00    -0.256 C  
HETATM   22  O   UNL     1     -12.231  15.567  64.141  1.00  0.00    -0.588 OA 
ENDBRANCH  16  17
ENDBRANCH   3  15
TORSDOF 4
ENDMDL
MODEL       34
REMARK 921   NORMALIZED FREE ENERGY PREDICTED BY IDOCK:   -5.55 KCAL/MOL
REMARK 922        TOTAL FREE ENERGY PREDICTED BY IDOCK:   -7.47 KCAL/MOL
REMARK 923 INTER-LIGAND FREE ENERGY PREDICTED BY IDOCK:   -6.84 KCAL/MOL
REMARK 924 INTRA-LIGAND FREE ENERGY PREDICTED BY IDOCK:   -0.62 KCAL/MOL
REMARK 927      BINDING AFFINITY PREDICTED BY RF-SCORE:    0.00 PKD
ROOT
HETATM    1  C   UNL     1     -11.280  10.411  67.961  1.00  0.00    -0.340 C  
HETATM    2  C   UNL     1     -11.704  11.505  68.915  1.00  0.00    -0.403 C  
HETATM    3  C   UNL     1     -12.135  11.201  70.164  1.00  0.00    -0.443 C  
ENDROOT
BRANCH   2   4
HETATM    4  C   UNL     1     -11.644  12.903  68.481  1.00  0.00    -0.358 C  
HETATM    5  C   UNL     1     -10.571  13.714  68.510  1.00  0.00    -0.259 C  
BRANCH   5   6
HETATM    6  C   UNL     1     -10.559  15.108  68.058  1.00  0.00    -0.258 C  
HETATM    7  C   UNL     1     -11.612  14.712  65.783  1.00  0.00    -0.328 C  
HETATM    8  C   UNL     1     -10.732  16.124  68.930  1.00  0.00    -0.280 C  
HETATM    9  C   UNL     1     -10.733  17.570  68.528  1.00  0.00    -0.237 C  
HETATM   10  C   UNL     1     -10.980  15.959  70.416  1.00  0.00    -0.361 C  
HETATM   11  C   UNL     1      -9.128  14.569  66.048  1.00  0.00     0.026 C  
HETATM   12  C   UNL     1     -10.398  15.312  66.540  1.00  0.00    -0.289 C  
HETATM   13  C   UNL     1     -10.247  16.792  66.081  1.00  0.00    -0.363 C  
HETATM   14  C   UNL     1     -10.525  17.916  67.066  1.00  0.00    -0.345 C  
ENDBRANCH   5   6
ENDBRANCH   2   4
BRANCH   3  15
HETATM   15  C   UNL     1     -12.190   9.846  70.687  1.00  0.00    -0.325 C  
HETATM   16  C   UNL     1     -11.433   9.337  71.670  1.00  0.00    -0.468 C  
BRANCH  16  17
HETATM   17  C   UNL     1     -11.506   7.934  72.105  1.00  0.00    -0.377 C  
HETATM   18  C   UNL     1     -10.345   6.142  73.561  1.00  0.00    -0.250 C  
HETATM   19  O   UNL     1      -9.251   5.846  74.023  1.00  0.00    -0.126 OA 
HETATM   20  C   UNL     1     -10.576   7.483  72.972  1.00  0.00    -0.422 C  
HETATM   21  C   UNL     1     -12.572   7.070  71.473  1.00  0.00    -0.426 C  
HETATM   22  O   UNL     1     -11.399   5.312  73.614  1.00  0.00    -0.209 OA 
ENDBRANCH  16  17
ENDBRANCH   3  15
TORSDOF 4
ENDMDL
MODEL       35
REMARK 921   NORMALIZED FREE ENERGY PREDICTED BY IDOCK:   -5.53 KCAL/MOL
REMARK 922        TOTAL FREE ENERGY PREDICTED BY IDOCK:   -7.44 KCAL/MOL
REMARK 923 INTER-LIGAND FREE ENERGY PREDICTED BY IDOCK:   -6.78 KCAL/MOL
REMARK 924 INTRA-LIGAND FREE ENERGY PREDICTED BY IDOCK:   -0.66 KCAL/MOL
REMARK 927      BINDING AFFINITY PREDICTED BY RF-SCORE:    0.00 PKD
ROOT
HETATM    1  C   UNL     1     -10.503   8.909  67.462  1.00  0.00    -0.337 C  
HETATM    2  C   UNL     1     -10.505  10.298  68.058  1.00  0.00    -0.234 C  
HETATM    3  C   UNL     1     -10.456  10.472  69.401  1.00  0.00    -0.264 C  
ENDROOT
BRANCH   2   4
HETATM    4  C   UNL     1     -10.560  11.463  67.171  1.00  0.00    -0.279 C  
HETATM    5  C   UNL     1     -11.383  12.523  67.276  1.00  0.00    -0.373 C  
BRANCH   5   6
HETATM    6  C   UNL     1     -11.396  13.669  66.363  1.00  0.00    -0.331 C  
HETATM    7  C   UNL     1      -9.136  14.619  67.016  1.00  0.00    -0.254 C  
HETATM    8  C   UNL     1     -11.989  13.588  65.153  1.00  0.00    -0.391 C  
HETATM    9  C   UNL     1     -12.032  14.726  64.175  1.00  0.00    -0.282 C  
HETATM   10  C   UNL     1     -12.657  12.348  64.595  1.00  0.00    -0.459 C  
HETATM   11  C   UNL     1     -11.189  15.329  68.256  1.00  0.00    -0.318 C  
HETATM   12  C   UNL     1     -10.649  14.921  66.860  1.00  0.00    -0.300 C  
HETATM   13  C   UNL     1     -10.783  16.178  65.953  1.00  0.00    -0.261 C  
HETATM   14  C   UNL     1     -11.383  16.041  64.562  1.00  0.00    -0.303 C  
ENDBRANCH   5   6
ENDBRANCH   2   4
BRANCH   3  15
HETATM   15  C   UNL     1     -10.363   9.374  70.351  1.00  0.00    -0.318 C  
HETATM   16  C   UNL     1     -11.384   8.778  70.985  1.00  0.00    -0.332 C  
BRANCH  16  17
HETATM   17  C   UNL     1     -11.205   7.711  71.981  1.00  0.00    -0.317 C  
HETATM   18  C   UNL     1      -9.766   6.956  73.991  1.00  0.00    -0.292 C  
HETATM   19  O   UNL     1      -8.646   7.086  74.469  1.00  0.00    -0.172 OA 
HETATM   20  C   UNL     1     -10.228   7.849  72.901  1.00  0.00    -0.397 C  
HETATM   21  C   UNL     1     -12.078   6.485  71.843  1.00  0.00    -0.388 C  
HETATM   22  O   UNL     1     -10.649   6.059  74.455  1.00  0.00    -0.176 OA 
ENDBRANCH  16  17
ENDBRANCH   3  15
TORSDOF 4
ENDMDL
MODEL       36
REMARK 921   NORMALIZED FREE ENERGY PREDICTED BY IDOCK:   -5.52 KCAL/MOL
REMARK 922        TOTAL FREE ENERGY PREDICTED BY IDOCK:   -7.44 KCAL/MOL
REMARK 923 INTER-LIGAND FREE ENERGY PREDICTED BY IDOCK:   -6.82 KCAL/MOL
REMARK 924 INTRA-LIGAND FREE ENERGY PREDICTED BY IDOCK:   -0.62 KCAL/MOL
REMARK 927      BINDING AFFINITY PREDICTED BY RF-SCORE:    0.00 PKD
ROOT
HETATM    1  C   UNL     1     -12.650  10.899  70.613  1.00  0.00    -0.435 C  
HETATM    2  C   UNL     1     -11.342  10.833  69.858  1.00  0.00    -0.385 C  
HETATM    3  C   UNL     1     -10.489   9.797  70.048  1.00  0.00    -0.314 C  
ENDROOT
BRANCH   2   4
HETATM    4  C   UNL     1     -11.001  11.899  68.913  1.00  0.00    -0.285 C  
HETATM    5  C   UNL     1     -11.813  12.459  67.997  1.00  0.00    -0.376 C  
BRANCH   5   6
HETATM    6  C   UNL     1     -11.426  13.530  67.075  1.00  0.00    -0.369 C  
HETATM    7  C   UNL     1     -12.619  12.626  65.025  1.00  0.00    -0.504 C  
HETATM    8  C   UNL     1     -11.278  14.801  67.505  1.00  0.00    -0.339 C  
HETATM    9  C   UNL     1     -10.888  15.939  66.608  1.00  0.00    -0.213 C  
HETATM   10  C   UNL     1     -11.515  15.268  68.927  1.00  0.00    -0.346 C  
HETATM   11  C   UNL     1     -10.268  11.922  65.508  1.00  0.00    -0.290 C  
HETATM   12  C   UNL     1     -11.263  13.109  65.601  1.00  0.00    -0.306 C  
HETATM   13  C   UNL     1     -10.718  14.214  64.652  1.00  0.00    -0.408 C  
HETATM   14  C   UNL     1     -10.638  15.652  65.139  1.00  0.00    -0.449 C  
ENDBRANCH   5   6
ENDBRANCH   2   4
BRANCH   3  15
HETATM   15  C   UNL     1     -10.766   8.681  70.938  1.00  0.00    -0.269 C  
HETATM   16  C   UNL     1     -10.900   7.393  70.588  1.00  0.00    -0.258 C  
BRANCH  16  17
HETATM   17  C   UNL     1     -11.241   6.326  71.540  1.00  0.00    -0.344 C  
HETATM   18  C   UNL     1     -10.399   4.114  72.578  1.00  0.00    -0.159 C  
HETATM   19  O   UNL     1      -9.663   3.165  72.342  1.00  0.00    -0.128 OA 
HETATM   20  C   UNL     1     -10.348   5.335  71.738  1.00  0.00    -0.277 C  
HETATM   21  C   UNL     1     -12.617   6.371  72.163  1.00  0.00    -0.104 C  
HETATM   22  O   UNL     1     -11.238   4.134  73.627  1.00  0.00    -0.261 OA 
ENDBRANCH  16  17
ENDBRANCH   3  15
TORSDOF 4
ENDMDL
MODEL       37
REMARK 921   NORMALIZED FREE ENERGY PREDICTED BY IDOCK:   -5.49 KCAL/MOL
REMARK 922        TOTAL FREE ENERGY PREDICTED BY IDOCK:   -7.39 KCAL/MOL
REMARK 923 INTER-LIGAND FREE ENERGY PREDICTED BY IDOCK:   -6.89 KCAL/MOL
REMARK 924 INTRA-LIGAND FREE ENERGY PREDICTED BY IDOCK:   -0.49 KCAL/MOL
REMARK 927      BINDING AFFINITY PREDICTED BY RF-SCORE:    0.00 PKD
ROOT
HETATM    1  C   UNL     1     -12.393  11.356  70.707  1.00  0.00    -0.483 C  
HETATM    2  C   UNL     1     -11.271  11.124  69.720  1.00  0.00    -0.318 C  
HETATM    3  C   UNL     1     -10.579   9.959  69.725  1.00  0.00    -0.296 C  
ENDROOT
BRANCH   2   4
HETATM    4  C   UNL     1     -10.935  12.171  68.752  1.00  0.00    -0.274 C  
HETATM    5  C   UNL     1     -11.787  13.023  68.153  1.00  0.00    -0.381 C  
BRANCH   5   6
HETATM    6  C   UNL     1     -11.402  14.060  67.193  1.00  0.00    -0.348 C  
HETATM    7  C   UNL     1      -9.344  14.885  68.428  1.00  0.00    -0.197 C  
HETATM    8  C   UNL     1     -11.615  13.897  65.869  1.00  0.00    -0.348 C  
HETATM    9  C   UNL     1     -11.239  14.921  64.838  1.00  0.00    -0.415 C  
HETATM   10  C   UNL     1     -12.223  12.663  65.234  1.00  0.00    -0.532 C  
HETATM   11  C   UNL     1     -11.579  15.894  68.921  1.00  0.00    -0.392 C  
HETATM   12  C   UNL     1     -10.699  15.293  67.793  1.00  0.00    -0.286 C  
HETATM   13  C   UNL     1     -10.417  16.450  66.792  1.00  0.00    -0.273 C  
HETATM   14  C   UNL     1     -10.590  16.212  65.300  1.00  0.00    -0.390 C  
ENDBRANCH   5   6
ENDBRANCH   2   4
BRANCH   3  15
HETATM   15  C   UNL     1     -10.871   8.855  70.626  1.00  0.00    -0.286 C  
HETATM   16  C   UNL     1     -11.070   7.574  70.282  1.00  0.00    -0.263 C  
BRANCH  16  17
HETATM   17  C   UNL     1     -11.422   6.522  71.247  1.00  0.00    -0.371 C  
HETATM   18  C   UNL     1     -10.625   4.288  72.275  1.00  0.00    -0.029 C  
HETATM   19  O   UNL     1      -9.926   3.315  72.025  1.00  0.00    -0.164 OA 
HETATM   20  C   UNL     1     -10.556   5.503  71.429  1.00  0.00    -0.310 C  
HETATM   21  C   UNL     1     -12.780   6.612  71.902  1.00  0.00    -0.260 C  
HETATM   22  O   UNL     1     -11.437   4.338  73.343  1.00  0.00    -0.280 OA 
ENDBRANCH  16  17
ENDBRANCH   3  15
TORSDOF 4
ENDMDL
MODEL       38
REMARK 921   NORMALIZED FREE ENERGY PREDICTED BY IDOCK:   -5.47 KCAL/MOL
REMARK 922        TOTAL FREE ENERGY PREDICTED BY IDOCK:   -7.37 KCAL/MOL
REMARK 923 INTER-LIGAND FREE ENERGY PREDICTED BY IDOCK:   -6.83 KCAL/MOL
REMARK 924 INTRA-LIGAND FREE ENERGY PREDICTED BY IDOCK:   -0.54 KCAL/MOL
REMARK 927      BINDING AFFINITY PREDICTED BY RF-SCORE:    0.00 PKD
ROOT
HETATM    1  C   UNL     1     -11.616   9.644  71.047  1.00  0.00    -0.436 C  
HETATM    2  C   UNL     1     -10.808   8.840  70.053  1.00  0.00    -0.231 C  
HETATM    3  C   UNL     1     -10.660   9.271  68.777  1.00  0.00    -0.220 C  
ENDROOT
BRANCH   2   4
HETATM    4  C   UNL     1     -10.182   7.586  70.480  1.00  0.00    -0.201 C  
HETATM    5  C   UNL     1     -10.787   6.396  70.650  1.00  0.00    -0.331 C  
BRANCH   5   6
HETATM    6  C   UNL     1     -10.115   5.165  71.076  1.00  0.00    -0.297 C  
HETATM    7  C   UNL     1     -11.543   4.719  73.126  1.00  0.00    -0.288 C  
HETATM    8  C   UNL     1      -9.599   4.305  70.172  1.00  0.00    -0.269 C  
HETATM    9  C   UNL     1      -8.904   3.029  70.546  1.00  0.00    -0.149 C  
HETATM   10  C   UNL     1      -9.674   4.480  68.668  1.00  0.00    -0.203 C  
HETATM   11  C   UNL     1      -9.494   6.140  73.322  1.00  0.00    -0.143 C  
HETATM   12  C   UNL     1     -10.098   4.910  72.595  1.00  0.00    -0.222 C  
HETATM   13  C   UNL     1      -9.266   3.677  73.052  1.00  0.00    -0.118 C  
HETATM   14  C   UNL     1      -8.765   2.683  72.016  1.00  0.00    -0.103 C  
ENDBRANCH   5   6
ENDBRANCH   2   4
BRANCH   3  15
HETATM   15  C   UNL     1     -11.217  10.519  68.281  1.00  0.00    -0.354 C  
HETATM   16  C   UNL     1     -11.125  10.994  67.030  1.00  0.00    -0.311 C  
BRANCH  16  17
HETATM   17  C   UNL     1     -11.664  12.298  66.617  1.00  0.00    -0.417 C  
HETATM   18  C   UNL     1     -12.526  13.648  64.588  1.00  0.00    -0.314 C  
HETATM   19  O   UNL     1     -12.422  13.717  63.371  1.00  0.00    -0.817 OA 
HETATM   20  C   UNL     1     -12.006  12.470  65.323  1.00  0.00    -0.490 C  
HETATM   21  C   UNL     1     -11.709  13.388  67.662  1.00  0.00    -0.397 C  
HETATM   22  O   UNL     1     -13.158  14.585  65.313  1.00  0.00    -0.524 OA 
ENDBRANCH  16  17
ENDBRANCH   3  15
TORSDOF 4
ENDMDL
MODEL       39
REMARK 921   NORMALIZED FREE ENERGY PREDICTED BY IDOCK:   -5.42 KCAL/MOL
REMARK 922        TOTAL FREE ENERGY PREDICTED BY IDOCK:   -7.31 KCAL/MOL
REMARK 923 INTER-LIGAND FREE ENERGY PREDICTED BY IDOCK:   -6.82 KCAL/MOL
REMARK 924 INTRA-LIGAND FREE ENERGY PREDICTED BY IDOCK:   -0.49 KCAL/MOL
REMARK 927      BINDING AFFINITY PREDICTED BY RF-SCORE:    0.00 PKD
ROOT
HETATM    1  C   UNL     1      -9.393  10.289  69.103  1.00  0.00    -0.214 C  
HETATM    2  C   UNL     1     -10.561  10.338  70.062  1.00  0.00    -0.321 C  
HETATM    3  C   UNL     1     -11.475  11.335  69.983  1.00  0.00    -0.359 C  
ENDROOT
BRANCH   2   4
HETATM    4  C   UNL     1     -10.702   9.294  71.080  1.00  0.00    -0.403 C  
HETATM    5  C   UNL     1      -9.912   8.218  71.250  1.00  0.00    -0.243 C  
BRANCH   5   6
HETATM    6  C   UNL     1     -10.090   7.200  72.289  1.00  0.00    -0.202 C  
HETATM    7  C   UNL     1     -10.589   5.252  70.742  1.00  0.00    -0.256 C  
HETATM    8  C   UNL     1      -9.374   7.240  73.434  1.00  0.00    -0.241 C  
HETATM    9  C   UNL     1      -9.511   6.226  74.532  1.00  0.00    -0.251 C  
HETATM   10  C   UNL     1      -8.319   8.278  73.760  1.00  0.00    -0.265 C  
HETATM   11  C   UNL     1     -12.457   6.701  71.561  1.00  0.00    -0.326 C  
HETATM   12  C   UNL     1     -11.091   6.078  71.954  1.00  0.00    -0.331 C  
HETATM   13  C   UNL     1     -11.381   5.080  73.112  1.00  0.00    -0.397 C  
HETATM   14  C   UNL     1     -10.507   5.096  74.356  1.00  0.00    -0.294 C  
ENDBRANCH   5   6
ENDBRANCH   2   4
BRANCH   3  15
HETATM   15  C   UNL     1     -11.431  12.388  68.982  1.00  0.00    -0.352 C  
HETATM   16  C   UNL     1     -11.970  12.347  67.754  1.00  0.00    -0.252 C  
BRANCH  16  17
HETATM   17  C   UNL     1     -11.832  13.432  66.772  1.00  0.00    -0.452 C  
HETATM   18  C   UNL     1     -10.472  15.551  66.187  1.00  0.00    -0.313 C  
HETATM   19  O   UNL     1      -9.801  16.432  66.709  1.00  0.00    -0.238 OA 
HETATM   20  C   UNL     1     -10.848  14.338  66.951  1.00  0.00    -0.298 C  
HETATM   21  C   UNL     1     -12.867  13.506  65.674  1.00  0.00    -0.380 C  
HETATM   22  O   UNL     1     -10.848  15.597  64.899  1.00  0.00    -0.426 OA 
ENDBRANCH  16  17
ENDBRANCH   3  15
TORSDOF 4
ENDMDL
MODEL       40
REMARK 921   NORMALIZED FREE ENERGY PREDICTED BY IDOCK:   -5.41 KCAL/MOL
REMARK 922        TOTAL FREE ENERGY PREDICTED BY IDOCK:   -7.30 KCAL/MOL
REMARK 923 INTER-LIGAND FREE ENERGY PREDICTED BY IDOCK:   -6.70 KCAL/MOL
REMARK 924 INTRA-LIGAND FREE ENERGY PREDICTED BY IDOCK:   -0.60 KCAL/MOL
REMARK 927      BINDING AFFINITY PREDICTED BY RF-SCORE:    0.00 PKD
ROOT
HETATM    1  C   UNL     1     -11.588   8.405  72.685  1.00  0.00    -0.367 C  
HETATM    2  C   UNL     1     -11.184   8.648  71.248  1.00  0.00    -0.338 C  
HETATM    3  C   UNL     1     -11.507   9.809  70.629  1.00  0.00    -0.397 C  
ENDROOT
BRANCH   2   4
HETATM    4  C   UNL     1     -10.436   7.616  70.526  1.00  0.00    -0.221 C  
HETATM    5  C   UNL     1     -10.947   6.573  69.845  1.00  0.00    -0.393 C  
BRANCH   5   6
HETATM    6  C   UNL     1     -10.156   5.567  69.133  1.00  0.00    -0.286 C  
HETATM    7  C   UNL     1      -8.944   7.162  67.574  1.00  0.00    -0.121 C  
HETATM    8  C   UNL     1      -9.708   4.459  69.762  1.00  0.00    -0.291 C  
HETATM    9  C   UNL     1      -8.892   3.396  69.087  1.00  0.00    -0.158 C  
HETATM   10  C   UNL     1      -9.931   4.145  71.228  1.00  0.00    -0.216 C  
HETATM   11  C   UNL     1     -11.150   6.195  66.897  1.00  0.00    -0.301 C  
HETATM   12  C   UNL     1      -9.834   5.895  67.662  1.00  0.00    -0.133 C  
HETATM   13  C   UNL     1      -9.115   4.764  66.871  1.00  0.00    -0.118 C  
HETATM   14  C   UNL     1      -8.552   3.565  67.618  1.00  0.00    -0.116 C  
ENDBRANCH   5   6
ENDBRANCH   2   4
BRANCH   3  15
HETATM   15  C   UNL     1     -12.214  10.899  71.282  1.00  0.00    -0.395 C  
HETATM   16  C   UNL     1     -12.321  12.161  70.840  1.00  0.00    -0.370 C  
BRANCH  16  17
HETATM   17  C   UNL     1     -13.004  13.226  71.589  1.00  0.00    -0.441 C  
HETATM   18  C   UNL     1     -12.828  15.698  72.324  1.00  0.00    -0.441 C  
HETATM   19  O   UNL     1     -12.002  16.573  72.550  1.00  0.00    -0.521 OA 
HETATM   20  C   UNL     1     -12.431  14.447  71.635  1.00  0.00    -0.427 C  
HETATM   21  C   UNL     1     -14.263  12.847  72.334  1.00  0.00    -0.066 C  
HETATM   22  O   UNL     1     -14.129  15.839  72.624  1.00  0.00    -0.578 OA 
ENDBRANCH  16  17
ENDBRANCH   3  15
TORSDOF 4
ENDMDL
MODEL       41
REMARK 921   NORMALIZED FREE ENERGY PREDICTED BY IDOCK:   -5.39 KCAL/MOL
REMARK 922        TOTAL FREE ENERGY PREDICTED BY IDOCK:   -7.28 KCAL/MOL
REMARK 923 INTER-LIGAND FREE ENERGY PREDICTED BY IDOCK:   -6.61 KCAL/MOL
REMARK 924 INTRA-LIGAND FREE ENERGY PREDICTED BY IDOCK:   -0.66 KCAL/MOL
REMARK 927      BINDING AFFINITY PREDICTED BY RF-SCORE:    0.00 PKD
ROOT
HETATM    1  C   UNL     1     -11.330  11.225  67.764  1.00  0.00    -0.354 C  
HETATM    2  C   UNL     1     -11.638  12.267  68.816  1.00  0.00    -0.380 C  
HETATM    3  C   UNL     1     -11.991  11.895  70.070  1.00  0.00    -0.409 C  
ENDROOT
BRANCH   2   4
HETATM    4  C   UNL     1     -11.550  13.688  68.470  1.00  0.00    -0.371 C  
HETATM    5  C   UNL     1     -10.430  14.426  68.360  1.00  0.00    -0.246 C  
BRANCH   5   6
HETATM    6  C   UNL     1     -10.393  15.847  68.005  1.00  0.00    -0.262 C  
HETATM    7  C   UNL     1     -11.017  15.579  65.560  1.00  0.00    -0.331 C  
HETATM    8  C   UNL     1     -10.753  16.797  68.895  1.00  0.00    -0.333 C  
HETATM    9  C   UNL     1     -10.739  18.266  68.590  1.00  0.00     0.149 C  
HETATM   10  C   UNL     1     -11.250  16.524  70.301  1.00  0.00    -0.140 C  
HETATM   11  C   UNL     1      -8.614  15.484  66.249  1.00  0.00    -0.208 C  
HETATM   12  C   UNL     1      -9.977  16.158  66.555  1.00  0.00    -0.293 C  
HETATM   13  C   UNL     1      -9.805  17.669  66.223  1.00  0.00    -0.297 C  
HETATM   14  C   UNL     1     -10.292  18.716  67.212  1.00  0.00    -0.440 C  
ENDBRANCH   5   6
ENDBRANCH   2   4
BRANCH   3  15
HETATM   15  C   UNL     1     -12.066  10.510  70.507  1.00  0.00    -0.437 C  
HETATM   16  C   UNL     1     -13.151   9.880  70.981  1.00  0.00    -0.406 C  
BRANCH  16  17
HETATM   17  C   UNL     1     -13.135   8.490  71.462  1.00  0.00    -0.325 C  
HETATM   18  C   UNL     1     -11.700   6.343  71.577  1.00  0.00    -0.313 C  
HETATM   19  O   UNL     1     -10.793   5.765  70.992  1.00  0.00    -0.260 OA 
HETATM   20  C   UNL     1     -12.020   7.756  71.262  1.00  0.00    -0.324 C  
HETATM   21  C   UNL     1     -14.410   7.955  72.069  1.00  0.00    -0.490 C  
HETATM   22  O   UNL     1     -12.406   5.767  72.564  1.00  0.00    -0.144 OA 
ENDBRANCH  16  17
ENDBRANCH   3  15
TORSDOF 4
ENDMDL
MODEL       42
REMARK 921   NORMALIZED FREE ENERGY PREDICTED BY IDOCK:   -5.39 KCAL/MOL
REMARK 922        TOTAL FREE ENERGY PREDICTED BY IDOCK:   -7.27 KCAL/MOL
REMARK 923 INTER-LIGAND FREE ENERGY PREDICTED BY IDOCK:   -6.73 KCAL/MOL
REMARK 924 INTRA-LIGAND FREE ENERGY PREDICTED BY IDOCK:   -0.54 KCAL/MOL
REMARK 927      BINDING AFFINITY PREDICTED BY RF-SCORE:    0.00 PKD
ROOT
HETATM    1  C   UNL     1     -10.675   9.413  67.945  1.00  0.00    -0.269 C  
HETATM    2  C   UNL     1     -11.248  10.662  68.578  1.00  0.00    -0.342 C  
HETATM    3  C   UNL     1     -11.535  10.694  69.902  1.00  0.00    -0.393 C  
ENDROOT
BRANCH   2   4
HETATM    4  C   UNL     1     -11.490  11.844  67.747  1.00  0.00    -0.389 C  
HETATM    5  C   UNL     1     -10.573  12.556  67.066  1.00  0.00    -0.251 C  
BRANCH   5   6
HETATM    6  C   UNL     1     -10.866  13.732  66.242  1.00  0.00    -0.283 C  
HETATM    7  C   UNL     1      -8.661  14.934  66.612  1.00  0.00    -0.262 C  
HETATM    8  C   UNL     1     -11.625  13.632  65.130  1.00  0.00    -0.333 C  
HETATM    9  C   UNL     1     -11.956  14.799  64.245  1.00  0.00    -0.387 C  
HETATM   10  C   UNL     1     -12.218  12.343  64.598  1.00  0.00    -0.499 C  
HETATM   11  C   UNL     1     -10.567  15.316  68.187  1.00  0.00    -0.254 C  
HETATM   12  C   UNL     1     -10.205  15.046  66.702  1.00  0.00    -0.271 C  
HETATM   13  C   UNL     1     -10.629  16.316  65.909  1.00  0.00    -0.307 C  
HETATM   14  C   UNL     1     -11.416  16.167  64.617  1.00  0.00    -0.225 C  
ENDBRANCH   5   6
ENDBRANCH   2   4
BRANCH   3  15
HETATM   15  C   UNL     1     -11.291   9.580  70.804  1.00  0.00    -0.387 C  
HETATM   16  C   UNL     1     -10.121   9.251  71.370  1.00  0.00    -0.348 C  
BRANCH  16  17
HETATM   17  C   UNL     1      -9.940   8.070  72.227  1.00  0.00    -0.304 C  
HETATM   18  C   UNL     1     -10.947   5.772  72.847  1.00  0.00    -0.274 C  
HETATM   19  O   UNL     1     -12.011   5.166  72.863  1.00  0.00    -0.218 OA 
HETATM   20  C   UNL     1     -10.823   7.056  72.116  1.00  0.00    -0.255 C  
HETATM   21  C   UNL     1      -8.821   8.118  73.241  1.00  0.00    -0.324 C  
HETATM   22  O   UNL     1      -9.834   5.291  73.423  1.00  0.00    -0.154 OA 
ENDBRANCH  16  17
ENDBRANCH   3  15
TORSDOF 4
ENDMDL
MODEL       43
REMARK 921   NORMALIZED FREE ENERGY PREDICTED BY IDOCK:   -5.32 KCAL/MOL
REMARK 922        TOTAL FREE ENERGY PREDICTED BY IDOCK:   -7.19 KCAL/MOL
REMARK 923 INTER-LIGAND FREE ENERGY PREDICTED BY IDOCK:   -6.57 KCAL/MOL
REMARK 924 INTRA-LIGAND FREE ENERGY PREDICTED BY IDOCK:   -0.61 KCAL/MOL
REMARK 927      BINDING AFFINITY PREDICTED BY RF-SCORE:    0.00 PKD
ROOT
HETATM    1  C   UNL     1     -10.174   8.619  66.781  1.00  0.00    -0.361 C  
HETATM    2  C   UNL     1     -10.485   9.691  67.801  1.00  0.00    -0.309 C  
HETATM    3  C   UNL     1     -10.554   9.388  69.120  1.00  0.00    -0.234 C  
ENDROOT
BRANCH   2   4
HETATM    4  C   UNL     1     -10.713  11.067  67.353  1.00  0.00    -0.303 C  
HETATM    5  C   UNL     1      -9.955  11.774  66.495  1.00  0.00    -0.229 C  
BRANCH   5   6
HETATM    6  C   UNL     1     -10.227  13.151  66.072  1.00  0.00    -0.287 C  
HETATM    7  C   UNL     1     -12.594  12.764  65.241  1.00  0.00    -0.460 C  
HETATM    8  C   UNL     1      -9.700  14.201  66.737  1.00  0.00    -0.283 C  
HETATM    9  C   UNL     1      -9.945  15.631  66.354  1.00  0.00    -0.298 C  
HETATM   10  C   UNL     1      -8.825  14.095  67.970  1.00  0.00    -0.182 C  
HETATM   11  C   UNL     1     -10.662  12.457  63.682  1.00  0.00    -0.497 C  
HETATM   12  C   UNL     1     -11.186  13.300  64.875  1.00  0.00    -0.338 C  
HETATM   13  C   UNL     1     -11.362  14.752  64.342  1.00  0.00    -0.224 C  
HETATM   14  C   UNL     1     -10.826  15.921  65.154  1.00  0.00    -0.438 C  
ENDBRANCH   5   6
ENDBRANCH   2   4
BRANCH   3  15
HETATM   15  C   UNL     1     -10.306   8.058  69.653  1.00  0.00    -0.220 C  
HETATM   16  C   UNL     1     -11.160   7.311  70.369  1.00  0.00    -0.291 C  
BRANCH  16  17
HETATM   17  C   UNL     1     -10.814   5.996  70.927  1.00  0.00    -0.349 C  
HETATM   18  C   UNL     1     -10.839   4.578  73.088  1.00  0.00    -0.254 C  
HETATM   19  O   UNL     1     -10.825   4.690  74.306  1.00  0.00    -0.292 OA 
HETATM   20  C   UNL     1     -11.093   5.756  72.225  1.00  0.00    -0.330 C  
HETATM   21  C   UNL     1     -10.083   5.032  70.021  1.00  0.00    -0.342 C  
HETATM   22  O   UNL     1     -10.691   3.395  72.470  1.00  0.00    -0.057 OA 
ENDBRANCH  16  17
ENDBRANCH   3  15
TORSDOF 4
ENDMDL
MODEL       44
REMARK 921   NORMALIZED FREE ENERGY PREDICTED BY IDOCK:   -5.31 KCAL/MOL
REMARK 922        TOTAL FREE ENERGY PREDICTED BY IDOCK:   -7.18 KCAL/MOL
REMARK 923 INTER-LIGAND FREE ENERGY PREDICTED BY IDOCK:   -6.58 KCAL/MOL
REMARK 924 INTRA-LIGAND FREE ENERGY PREDICTED BY IDOCK:   -0.60 KCAL/MOL
REMARK 927      BINDING AFFINITY PREDICTED BY RF-SCORE:    0.00 PKD
ROOT
HETATM    1  C   UNL     1     -10.731   8.386  69.436  1.00  0.00    -0.162 C  
HETATM    2  C   UNL     1     -11.157   9.189  70.645  1.00  0.00    -0.320 C  
HETATM    3  C   UNL     1     -11.505   8.566  71.797  1.00  0.00    -0.378 C  
ENDROOT
BRANCH   2   4
HETATM    4  C   UNL     1     -11.191  10.651  70.563  1.00  0.00    -0.270 C  
HETATM    5  C   UNL     1     -11.887  11.397  69.685  1.00  0.00    -0.431 C  
BRANCH   5   6
HETATM    6  C   UNL     1     -11.892  12.862  69.646  1.00  0.00    -0.387 C  
HETATM    7  C   UNL     1     -11.989  13.109  67.122  1.00  0.00    -0.397 C  
HETATM    8  C   UNL     1     -12.497  13.582  70.614  1.00  0.00    -0.405 C  
HETATM    9  C   UNL     1     -12.539  15.082  70.627  1.00  0.00    -0.429 C  
HETATM   10  C   UNL     1     -13.243  12.994  71.795  1.00  0.00    -0.486 C  
HETATM   11  C   UNL     1      -9.773  12.951  68.273  1.00  0.00    -0.217 C  
HETATM   12  C   UNL     1     -11.220  13.495  68.413  1.00  0.00    -0.309 C  
HETATM   13  C   UNL     1     -11.104  15.046  68.443  1.00  0.00    -0.284 C  
HETATM   14  C   UNL     1     -11.862  15.836  69.498  1.00  0.00    -0.359 C  
ENDBRANCH   5   6
ENDBRANCH   2   4
BRANCH   3  15
HETATM   15  C   UNL     1     -11.465   7.124  71.975  1.00  0.00    -0.310 C  
HETATM   16  C   UNL     1     -10.418   6.399  72.399  1.00  0.00    -0.222 C  
BRANCH  16  17
HETATM   17  C   UNL     1     -10.435   4.932  72.496  1.00  0.00    -0.262 C  
HETATM   18  C   UNL     1      -9.784   2.756  71.263  1.00  0.00    -0.133 C  
HETATM   19  O   UNL     1      -9.594   2.313  70.137  1.00  0.00    -0.100 OA 
HETATM   20  C   UNL     1      -9.889   4.217  71.490  1.00  0.00    -0.260 C  
HETATM   21  C   UNL     1     -11.149   4.327  73.681  1.00  0.00    -0.351 C  
HETATM   22  O   UNL     1      -9.844   1.967  72.347  1.00  0.00    -0.106 OA 
ENDBRANCH  16  17
ENDBRANCH   3  15
TORSDOF 4
ENDMDL
MODEL       45
REMARK 921   NORMALIZED FREE ENERGY PREDICTED BY IDOCK:   -5.28 KCAL/MOL
REMARK 922        TOTAL FREE ENERGY PREDICTED BY IDOCK:   -7.14 KCAL/MOL
REMARK 923 INTER-LIGAND FREE ENERGY PREDICTED BY IDOCK:   -6.51 KCAL/MOL
REMARK 924 INTRA-LIGAND FREE ENERGY PREDICTED BY IDOCK:   -0.63 KCAL/MOL
REMARK 927      BINDING AFFINITY PREDICTED BY RF-SCORE:    0.00 PKD
ROOT
HETATM    1  C   UNL     1      -9.852   9.669  65.939  1.00  0.00    -0.358 C  
HETATM    2  C   UNL     1     -10.629   9.533  67.229  1.00  0.00    -0.317 C  
HETATM    3  C   UNL     1     -10.764   8.325  67.828  1.00  0.00    -0.165 C  
ENDROOT
BRANCH   2   4
HETATM    4  C   UNL     1     -11.237  10.722  67.833  1.00  0.00    -0.386 C  
HETATM    5  C   UNL     1     -10.643  11.606  68.655  1.00  0.00    -0.236 C  
BRANCH   5   6
HETATM    6  C   UNL     1     -11.293  12.786  69.231  1.00  0.00    -0.307 C  
HETATM    7  C   UNL     1     -11.598  14.069  67.062  1.00  0.00    -0.394 C  
HETATM    8  C   UNL     1     -12.111  12.678  70.299  1.00  0.00    -0.372 C  
HETATM    9  C   UNL     1     -12.808  13.848  70.931  1.00  0.00    -0.370 C  
HETATM   10  C   UNL     1     -12.471  11.377  70.989  1.00  0.00    -0.486 C  
HETATM   11  C   UNL     1      -9.491  14.340  68.383  1.00  0.00    -0.213 C  
HETATM   12  C   UNL     1     -11.022  14.116  68.501  1.00  0.00    -0.271 C  
HETATM   13  C   UNL     1     -11.599  15.383  69.195  1.00  0.00    -0.354 C  
HETATM   14  C   UNL     1     -12.581  15.230  70.346  1.00  0.00    -0.421 C  
ENDBRANCH   5   6
ENDBRANCH   2   4
BRANCH   3  15
HETATM   15  C   UNL     1     -10.163   7.104  67.317  1.00  0.00    -0.315 C  
HETATM   16  C   UNL     1     -10.807   5.977  66.978  1.00  0.00    -0.413 C  
BRANCH  16  17
HETATM   17  C   UNL     1     -10.122   4.758  66.525  1.00  0.00    -0.286 C  
HETATM   18  C   UNL     1      -9.846   3.144  64.524  1.00  0.00    -0.123 C  
HETATM   19  O   UNL     1     -10.439   2.740  63.532  1.00  0.00    -0.179 OA 
HETATM   20  C   UNL     1     -10.337   4.333  65.262  1.00  0.00    -0.220 C  
HETATM   21  C   UNL     1      -9.290   4.014  67.543  1.00  0.00    -0.219 C  
HETATM   22  O   UNL     1      -8.705   2.588  64.960  1.00  0.00    -0.102 OA 
ENDBRANCH  16  17
ENDBRANCH   3  15
TORSDOF 4
ENDMDL
MODEL       46
REMARK 921   NORMALIZED FREE ENERGY PREDICTED BY IDOCK:   -5.27 KCAL/MOL
REMARK 922        TOTAL FREE ENERGY PREDICTED BY IDOCK:   -7.12 KCAL/MOL
REMARK 923 INTER-LIGAND FREE ENERGY PREDICTED BY IDOCK:   -6.45 KCAL/MOL
REMARK 924 INTRA-LIGAND FREE ENERGY PREDICTED BY IDOCK:   -0.67 KCAL/MOL
REMARK 927      BINDING AFFINITY PREDICTED BY RF-SCORE:    0.00 PKD
ROOT
HETATM    1  C   UNL     1      -9.307   9.155  65.571  1.00  0.00    -0.287 C  
HETATM    2  C   UNL     1     -10.161   9.213  66.819  1.00  0.00    -0.341 C  
HETATM    3  C   UNL     1     -10.725   8.087  67.320  1.00  0.00    -0.280 C  
ENDROOT
BRANCH   2   4
HETATM    4  C   UNL     1     -10.373  10.499  67.487  1.00  0.00    -0.265 C  
HETATM    5  C   UNL     1     -11.472  11.274  67.420  1.00  0.00    -0.300 C  
BRANCH   5   6
HETATM    6  C   UNL     1     -11.640  12.554  68.112  1.00  0.00    -0.390 C  
HETATM    7  C   UNL     1     -12.538  13.867  66.134  1.00  0.00    -0.426 C  
HETATM    8  C   UNL     1     -11.987  12.601  69.416  1.00  0.00    -0.318 C  
HETATM    9  C   UNL     1     -12.177  13.880  70.177  1.00  0.00    -0.425 C  
HETATM   10  C   UNL     1     -12.266  11.389  70.283  1.00  0.00    -0.433 C  
HETATM   11  C   UNL     1     -10.071  13.749  66.533  1.00  0.00    -0.286 C  
HETATM   12  C   UNL     1     -11.451  13.810  67.239  1.00  0.00    -0.367 C  
HETATM   13  C   UNL     1     -11.493  15.164  68.006  1.00  0.00    -0.355 C  
HETATM   14  C   UNL     1     -11.964  15.195  69.451  1.00  0.00    -0.337 C  
ENDBRANCH   5   6
ENDBRANCH   2   4
BRANCH   3  15
HETATM   15  C   UNL     1     -10.535   6.767  66.741  1.00  0.00    -0.298 C  
HETATM   16  C   UNL     1      -9.957   5.711  67.332  1.00  0.00    -0.180 C  
BRANCH  16  17
HETATM   17  C   UNL     1      -9.746   4.421  66.658  1.00  0.00    -0.233 C  
HETATM   18  C   UNL     1     -10.134   3.137  64.448  1.00  0.00    -0.085 C  
HETATM   19  O   UNL     1     -10.879   3.107  63.477  1.00  0.00    -0.247 OA 
HETATM   20  C   UNL     1     -10.157   4.291  65.379  1.00  0.00    -0.238 C  
HETATM   21  C   UNL     1      -9.161   3.299  67.483  1.00  0.00    -0.233 C  
HETATM   22  O   UNL     1      -9.225   2.179  64.692  1.00  0.00    -0.128 OA 
ENDBRANCH  16  17
ENDBRANCH   3  15
TORSDOF 4
ENDMDL
MODEL       47
REMARK 921   NORMALIZED FREE ENERGY PREDICTED BY IDOCK:   -5.26 KCAL/MOL
REMARK 922        TOTAL FREE ENERGY PREDICTED BY IDOCK:   -7.11 KCAL/MOL
REMARK 923 INTER-LIGAND FREE ENERGY PREDICTED BY IDOCK:   -6.45 KCAL/MOL
REMARK 924 INTRA-LIGAND FREE ENERGY PREDICTED BY IDOCK:   -0.66 KCAL/MOL
REMARK 927      BINDING AFFINITY PREDICTED BY RF-SCORE:    0.00 PKD
ROOT
HETATM    1  C   UNL     1     -10.826   9.710  67.764  1.00  0.00    -0.278 C  
HETATM    2  C   UNL     1     -11.165  10.890  68.647  1.00  0.00    -0.326 C  
HETATM    3  C   UNL     1     -11.455  10.708  69.958  1.00  0.00    -0.404 C  
ENDROOT
BRANCH   2   4
HETATM    4  C   UNL     1     -11.177  12.238  68.074  1.00  0.00    -0.321 C  
HETATM    5  C   UNL     1     -10.322  12.738  67.163  1.00  0.00    -0.237 C  
BRANCH   5   6
HETATM    6  C   UNL     1     -10.377  14.095  66.615  1.00  0.00    -0.277 C  
HETATM    7  C   UNL     1     -12.647  13.893  65.499  1.00  0.00    -0.560 C  
HETATM    8  C   UNL     1      -9.822  15.136  67.274  1.00  0.00    -0.228 C  
HETATM    9  C   UNL     1      -9.849  16.547  66.765  1.00  0.00    -0.274 C  
HETATM   10  C   UNL     1      -9.129  15.040  68.618  1.00  0.00    -0.191 C  
HETATM   11  C   UNL     1     -10.580  13.257  64.241  1.00  0.00    -0.402 C  
HETATM   12  C   UNL     1     -11.151  14.246  65.292  1.00  0.00    -0.335 C  
HETATM   13  C   UNL     1     -11.090  15.659  64.643  1.00  0.00    -0.387 C  
HETATM   14  C   UNL     1     -10.531  16.828  65.439  1.00  0.00    -0.212 C  
ENDBRANCH   5   6
ENDBRANCH   2   4
BRANCH   3  15
HETATM   15  C   UNL     1     -11.431   9.410  70.614  1.00  0.00    -0.344 C  
HETATM   16  C   UNL     1     -10.431   8.907  71.354  1.00  0.00    -0.375 C  
BRANCH  16  17
HETATM   17  C   UNL     1     -10.455   7.558  71.937  1.00  0.00    -0.235 C  
HETATM   18  C   UNL     1     -10.151   5.049  71.395  1.00  0.00    -0.199 C  
HETATM   19  O   UNL     1     -10.235   4.252  70.469  1.00  0.00    -0.135 OA 
HETATM   20  C   UNL     1     -10.171   6.509  71.137  1.00  0.00    -0.219 C  
HETATM   21  C   UNL     1     -10.888   7.436  73.379  1.00  0.00    -0.362 C  
HETATM   22  O   UNL     1      -9.976   4.660  72.668  1.00  0.00    -0.152 OA 
ENDBRANCH  16  17
ENDBRANCH   3  15
TORSDOF 4
ENDMDL
MODEL       48
REMARK 921   NORMALIZED FREE ENERGY PREDICTED BY IDOCK:   -5.26 KCAL/MOL
REMARK 922        TOTAL FREE ENERGY PREDICTED BY IDOCK:   -7.11 KCAL/MOL
REMARK 923 INTER-LIGAND FREE ENERGY PREDICTED BY IDOCK:   -6.61 KCAL/MOL
REMARK 924 INTRA-LIGAND FREE ENERGY PREDICTED BY IDOCK:   -0.50 KCAL/MOL
REMARK 927      BINDING AFFINITY PREDICTED BY RF-SCORE:    0.00 PKD
ROOT
HETATM    1  C   UNL     1     -13.033   9.969  71.485  1.00  0.00    -0.535 C  
HETATM    2  C   UNL     1     -11.695  10.231  70.831  1.00  0.00    -0.472 C  
HETATM    3  C   UNL     1     -10.759   9.253  70.761  1.00  0.00    -0.350 C  
ENDROOT
BRANCH   2   4
HETATM    4  C   UNL     1     -11.415  11.554  70.268  1.00  0.00    -0.192 C  
HETATM    5  C   UNL     1     -11.941  12.085  69.149  1.00  0.00    -0.326 C  
BRANCH   5   6
HETATM    6  C   UNL     1     -11.633  13.419  68.627  1.00  0.00    -0.362 C  
HETATM    7  C   UNL     1     -12.052  12.905  66.178  1.00  0.00    -0.458 C  
HETATM    8  C   UNL     1     -11.913  14.529  69.343  1.00  0.00    -0.362 C  
HETATM    9  C   UNL     1     -11.624  15.921  68.860  1.00  0.00    -0.392 C  
HETATM   10  C   UNL     1     -12.583  14.538  70.703  1.00  0.00    -0.416 C  
HETATM   11  C   UNL     1      -9.777  12.544  67.153  1.00  0.00    -0.205 C  
HETATM   12  C   UNL     1     -11.032  13.454  67.209  1.00  0.00    -0.286 C  
HETATM   13  C   UNL     1     -10.578  14.858  66.714  1.00  0.00    -0.305 C  
HETATM   14  C   UNL     1     -10.977  16.098  67.500  1.00  0.00    -0.238 C  
ENDBRANCH   5   6
ENDBRANCH   2   4
BRANCH   3  15
HETATM   15  C   UNL     1     -10.968   7.904  71.261  1.00  0.00    -0.266 C  
HETATM   16  C   UNL     1     -10.031   6.959  71.429  1.00  0.00    -0.190 C  
BRANCH  16  17
HETATM   17  C   UNL     1     -10.330   5.593  71.883  1.00  0.00    -0.266 C  
HETATM   18  C   UNL     1      -9.911   3.092  71.381  1.00  0.00    -0.108 C  
HETATM   19  O   UNL     1      -9.640   2.333  70.460  1.00  0.00    -0.128 OA 
HETATM   20  C   UNL     1      -9.780   4.559  71.212  1.00  0.00    -0.252 C  
HETATM   21  C   UNL     1     -11.311   5.444  73.022  1.00  0.00    -0.355 C  
HETATM   22  O   UNL     1     -10.276   2.652  72.595  1.00  0.00    -0.147 OA 
ENDBRANCH  16  17
ENDBRANCH   3  15
TORSDOF 4
ENDMDL
MODEL       49
REMARK 921   NORMALIZED FREE ENERGY PREDICTED BY IDOCK:   -5.26 KCAL/MOL
REMARK 922        TOTAL FREE ENERGY PREDICTED BY IDOCK:   -7.11 KCAL/MOL
REMARK 923 INTER-LIGAND FREE ENERGY PREDICTED BY IDOCK:   -6.48 KCAL/MOL
REMARK 924 INTRA-LIGAND FREE ENERGY PREDICTED BY IDOCK:   -0.63 KCAL/MOL
REMARK 927      BINDING AFFINITY PREDICTED BY RF-SCORE:    0.00 PKD
ROOT
HETATM    1  C   UNL     1     -11.730  13.186  66.444  1.00  0.00    -0.429 C  
HETATM    2  C   UNL     1     -11.194  11.900  67.033  1.00  0.00    -0.379 C  
HETATM    3  C   UNL     1     -11.200  11.701  68.374  1.00  0.00    -0.307 C  
ENDROOT
BRANCH   2   4
HETATM    4  C   UNL     1     -10.667  10.864  66.141  1.00  0.00    -0.225 C  
HETATM    5  C   UNL     1      -9.379  10.667  65.802  1.00  0.00    -0.223 C  
BRANCH   5   6
HETATM    6  C   UNL     1      -8.899   9.611  64.907  1.00  0.00    -0.234 C  
HETATM    7  C   UNL     1      -9.311   7.658  66.474  1.00  0.00    -0.241 C  
HETATM    8  C   UNL     1      -9.063   9.703  63.570  1.00  0.00    -0.211 C  
HETATM    9  C   UNL     1      -8.596   8.654  62.604  1.00  0.00    -0.117 C  
HETATM   10  C   UNL     1      -9.762  10.844  62.859  1.00  0.00    -0.349 C  
HETATM   11  C   UNL     1      -7.123   8.868  66.544  1.00  0.00    -0.084 C  
HETATM   12  C   UNL     1      -8.260   8.393  65.601  1.00  0.00    -0.132 C  
HETATM   13  C   UNL     1      -7.628   7.340  64.646  1.00  0.00    -0.106 C  
HETATM   14  C   UNL     1      -7.896   7.424  63.151  1.00  0.00    -0.126 C  
ENDBRANCH   5   6
ENDBRANCH   2   4
BRANCH   3  15
HETATM   15  C   UNL     1     -11.738  12.660  69.326  1.00  0.00    -0.379 C  
HETATM   16  C   UNL     1     -12.336  12.378  70.493  1.00  0.00    -0.346 C  
BRANCH  16  17
HETATM   17  C   UNL     1     -12.910  13.402  71.377  1.00  0.00    -0.420 C  
HETATM   18  C   UNL     1     -12.626  15.834  72.206  1.00  0.00    -0.448 C  
HETATM   19  O   UNL     1     -11.774  16.698  72.367  1.00  0.00    -0.480 OA 
HETATM   20  C   UNL     1     -12.329  14.620  71.409  1.00  0.00    -0.411 C  
HETATM   21  C   UNL     1     -14.063  12.986  72.259  1.00  0.00    -0.289 C  
HETATM   22  O   UNL     1     -13.877  15.959  72.678  1.00  0.00    -0.543 OA 
ENDBRANCH  16  17
ENDBRANCH   3  15
TORSDOF 4
ENDMDL
MODEL       50
REMARK 921   NORMALIZED FREE ENERGY PREDICTED BY IDOCK:   -5.25 KCAL/MOL
REMARK 922        TOTAL FREE ENERGY PREDICTED BY IDOCK:   -7.10 KCAL/MOL
REMARK 923 INTER-LIGAND FREE ENERGY PREDICTED BY IDOCK:   -6.45 KCAL/MOL
REMARK 924 INTRA-LIGAND FREE ENERGY PREDICTED BY IDOCK:   -0.65 KCAL/MOL
REMARK 927      BINDING AFFINITY PREDICTED BY RF-SCORE:    0.00 PKD
ROOT
HETATM    1  C   UNL     1      -9.570   8.153  66.315  1.00  0.00    -0.248 C  
HETATM    2  C   UNL     1     -10.063   9.317  67.147  1.00  0.00    -0.299 C  
HETATM    3  C   UNL     1     -10.419   9.136  68.442  1.00  0.00    -0.241 C  
ENDROOT
BRANCH   2   4
HETATM    4  C   UNL     1     -10.152  10.648  66.541  1.00  0.00    -0.275 C  
HETATM    5  C   UNL     1     -11.174  11.518  66.646  1.00  0.00    -0.336 C  
BRANCH   5   6
HETATM    6  C   UNL     1     -11.215  12.844  66.024  1.00  0.00    -0.325 C  
HETATM    7  C   UNL     1      -9.073  13.740  67.049  1.00  0.00    -0.253 C  
HETATM    8  C   UNL     1     -11.724  13.017  64.785  1.00  0.00    -0.389 C  
HETATM    9  C   UNL     1     -11.790  14.348  64.095  1.00  0.00    -0.316 C  
HETATM   10  C   UNL     1     -12.265  11.906  63.907  1.00  0.00    -0.497 C  
HETATM   11  C   UNL     1     -11.246  14.021  68.258  1.00  0.00    -0.293 C  
HETATM   12  C   UNL     1     -10.592  13.984  66.851  1.00  0.00    -0.280 C  
HETATM   13  C   UNL     1     -10.762  15.410  66.250  1.00  0.00    -0.312 C  
HETATM   14  C   UNL     1     -11.264  15.570  64.824  1.00  0.00    -0.399 C  
ENDBRANCH   5   6
ENDBRANCH   2   4
BRANCH   3  15
HETATM   15  C   UNL     1     -10.326   7.858  69.130  1.00  0.00    -0.225 C  
HETATM   16  C   UNL     1     -10.997   7.494  70.232  1.00  0.00    -0.264 C  
BRANCH  16  17
HETATM   17  C   UNL     1     -10.805   6.202  70.907  1.00  0.00    -0.342 C  
HETATM   18  C   UNL     1      -9.786   3.842  70.637  1.00  0.00    -0.165 C  
HETATM   19  O   UNL     1      -9.480   3.024  69.780  1.00  0.00    -0.158 OA 
HETATM   20  C   UNL     1     -10.113   5.239  70.264  1.00  0.00    -0.329 C  
HETATM   21  C   UNL     1     -11.479   6.016  72.247  1.00  0.00    -0.364 C  
HETATM   22  O   UNL     1      -9.783   3.550  71.948  1.00  0.00    -0.145 OA 
ENDBRANCH  16  17
ENDBRANCH   3  15
TORSDOF 4
ENDMDL
MODEL       51
REMARK 921   NORMALIZED FREE ENERGY PREDICTED BY IDOCK:   -5.25 KCAL/MOL
REMARK 922        TOTAL FREE ENERGY PREDICTED BY IDOCK:   -7.09 KCAL/MOL
REMARK 923 INTER-LIGAND FREE ENERGY PREDICTED BY IDOCK:   -6.46 KCAL/MOL
REMARK 924 INTRA-LIGAND FREE ENERGY PREDICTED BY IDOCK:   -0.63 KCAL/MOL
REMARK 927      BINDING AFFINITY PREDICTED BY RF-SCORE:    0.00 PKD
ROOT
HETATM    1  C   UNL     1      -7.973  12.515  67.673  1.00  0.00    -0.170 C  
HETATM    2  C   UNL     1      -9.004  13.618  67.778  1.00  0.00    -0.196 C  
HETATM    3  C   UNL     1     -10.229  13.367  68.299  1.00  0.00    -0.250 C  
ENDROOT
BRANCH   2   4
HETATM    4  C   UNL     1      -8.667  14.965  67.312  1.00  0.00    -0.224 C  
HETATM    5  C   UNL     1      -8.567  16.079  68.061  1.00  0.00    -0.165 C  
BRANCH   5   6
HETATM    6  C   UNL     1      -8.221  17.407  67.548  1.00  0.00    -0.209 C  
HETATM    7  C   UNL     1     -10.079  18.687  68.711  1.00  0.00    -0.398 C  
HETATM    8  C   UNL     1      -6.936  17.754  67.322  1.00  0.00    -0.197 C  
HETATM    9  C   UNL     1      -6.521  19.099  66.801  1.00  0.00    -0.195 C  
HETATM   10  C   UNL     1      -5.738  16.865  67.588  1.00  0.00    -0.159 C  
HETATM   11  C   UNL     1     -10.476  17.699  66.447  1.00  0.00    -0.286 C  
HETATM   12  C   UNL     1      -9.407  18.371  67.349  1.00  0.00    -0.275 C  
HETATM   13  C   UNL     1      -9.054  19.728  66.675  1.00  0.00    -0.452 C  
HETATM   14  C   UNL     1      -7.597  20.127  66.506  1.00  0.00    -0.316 C  
ENDBRANCH   5   6
ENDBRANCH   2   4
BRANCH   3  15
HETATM   15  C   UNL     1     -10.632  12.070  68.818  1.00  0.00    -0.237 C  
HETATM   16  C   UNL     1     -11.544  11.840  69.774  1.00  0.00    -0.372 C  
BRANCH  16  17
HETATM   17  C   UNL     1     -11.856  10.499  70.290  1.00  0.00    -0.418 C  
HETATM   18  C   UNL     1     -13.509   9.166  71.764  1.00  0.00    -0.416 C  
HETATM   19  O   UNL     1     -14.281   9.307  72.703  1.00  0.00    -0.498 OA 
HETATM   20  C   UNL     1     -12.950  10.348  71.064  1.00  0.00    -0.490 C  
HETATM   21  C   UNL     1     -10.868   9.396  69.987  1.00  0.00    -0.271 C  
HETATM   22  O   UNL     1     -13.174   7.960  71.279  1.00  0.00    -0.270 OA 
ENDBRANCH  16  17
ENDBRANCH   3  15
TORSDOF 4
ENDMDL
MODEL       52
REMARK 921   NORMALIZED FREE ENERGY PREDICTED BY IDOCK:   -5.22 KCAL/MOL
REMARK 922        TOTAL FREE ENERGY PREDICTED BY IDOCK:   -7.06 KCAL/MOL
REMARK 923 INTER-LIGAND FREE ENERGY PREDICTED BY IDOCK:   -6.40 KCAL/MOL
REMARK 924 INTRA-LIGAND FREE ENERGY PREDICTED BY IDOCK:   -0.66 KCAL/MOL
REMARK 927      BINDING AFFINITY PREDICTED BY RF-SCORE:    0.00 PKD
ROOT
HETATM    1  C   UNL     1     -11.061  10.227  69.978  1.00  0.00    -0.373 C  
HETATM    2  C   UNL     1     -10.499   9.086  69.161  1.00  0.00    -0.239 C  
HETATM    3  C   UNL     1     -10.392   9.191  67.814  1.00  0.00    -0.302 C  
ENDROOT
BRANCH   2   4
HETATM    4  C   UNL     1     -10.067   7.860  69.837  1.00  0.00    -0.197 C  
HETATM    5  C   UNL     1     -10.570   6.623  69.668  1.00  0.00    -0.276 C  
BRANCH   5   6
HETATM    6  C   UNL     1     -10.101   5.423  70.366  1.00  0.00    -0.314 C  
HETATM    7  C   UNL     1      -7.773   5.362  69.356  1.00  0.00    -0.085 C  
HETATM    8  C   UNL     1     -10.512   5.141  71.621  1.00  0.00    -0.255 C  
HETATM    9  C   UNL     1     -10.063   3.931  72.387  1.00  0.00    -0.237 C  
HETATM   10  C   UNL     1     -11.444   6.008  72.443  1.00  0.00    -0.357 C  
HETATM   11  C   UNL     1      -9.661   4.193  68.203  1.00  0.00    -0.195 C  
HETATM   12  C   UNL     1      -9.081   4.563  69.594  1.00  0.00    -0.166 C  
HETATM   13  C   UNL     1      -8.692   3.221  70.279  1.00  0.00    -0.125 C  
HETATM   14  C   UNL     1      -9.102   2.965  71.721  1.00  0.00    -0.157 C  
ENDBRANCH   5   6
ENDBRANCH   2   4
BRANCH   3  15
HETATM   15  C   UNL     1     -10.762  10.383  67.069  1.00  0.00    -0.298 C  
HETATM   16  C   UNL     1     -10.399  10.687  65.814  1.00  0.00    -0.287 C  
BRANCH  16  17
HETATM   17  C   UNL     1     -10.764  11.945  65.147  1.00  0.00    -0.339 C  
HETATM   18  C   UNL     1     -12.425  13.924  65.199  1.00  0.00    -0.453 C  
HETATM   19  O   UNL     1     -13.558  14.214  65.561  1.00  0.00    -0.568 OA 
HETATM   20  C   UNL     1     -11.790  12.663  65.650  1.00  0.00    -0.488 C  
HETATM   21  C   UNL     1     -10.016  12.298  63.883  1.00  0.00    -0.303 C  
HETATM   22  O   UNL     1     -11.679  14.742  64.440  1.00  0.00    -0.391 OA 
ENDBRANCH  16  17
ENDBRANCH   3  15
TORSDOF 4
ENDMDL
MODEL       53
REMARK 921   NORMALIZED FREE ENERGY PREDICTED BY IDOCK:   -5.17 KCAL/MOL
REMARK 922        TOTAL FREE ENERGY PREDICTED BY IDOCK:   -7.00 KCAL/MOL
REMARK 923 INTER-LIGAND FREE ENERGY PREDICTED BY IDOCK:   -6.34 KCAL/MOL
REMARK 924 INTRA-LIGAND FREE ENERGY PREDICTED BY IDOCK:   -0.66 KCAL/MOL
REMARK 927      BINDING AFFINITY PREDICTED BY RF-SCORE:    0.00 PKD
ROOT
HETATM    1  C   UNL     1     -12.014   9.527  71.619  1.00  0.00    -0.474 C  
HETATM    2  C   UNL     1     -11.284   8.870  70.469  1.00  0.00    -0.287 C  
HETATM    3  C   UNL     1     -10.809   9.613  69.440  1.00  0.00    -0.239 C  
ENDROOT
BRANCH   2   4
HETATM    4  C   UNL     1     -11.090   7.417  70.474  1.00  0.00    -0.280 C  
HETATM    5  C   UNL     1      -9.917   6.757  70.482  1.00  0.00    -0.197 C  
BRANCH   5   6
HETATM    6  C   UNL     1      -9.774   5.299  70.492  1.00  0.00    -0.254 C  
HETATM    7  C   UNL     1      -7.824   5.162  68.874  1.00  0.00    -0.082 C  
HETATM    8  C   UNL     1     -10.031   4.582  71.607  1.00  0.00    -0.266 C  
HETATM    9  C   UNL     1      -9.899   3.088  71.679  1.00  0.00    -0.214 C  
HETATM   10  C   UNL     1     -10.449   5.170  72.939  1.00  0.00    -0.255 C  
HETATM   11  C   UNL     1     -10.170   5.124  68.003  1.00  0.00    -0.178 C  
HETATM   12  C   UNL     1      -9.264   4.673  69.180  1.00  0.00    -0.184 C  
HETATM   13  C   UNL     1      -9.246   3.118  69.149  1.00  0.00    -0.222 C  
HETATM   14  C   UNL     1      -9.460   2.338  70.437  1.00  0.00    -0.166 C  
ENDBRANCH   5   6
ENDBRANCH   2   4
BRANCH   3  15
HETATM   15  C   UNL     1     -10.926  11.060  69.373  1.00  0.00    -0.301 C  
HETATM   16  C   UNL     1     -11.826  11.758  68.665  1.00  0.00    -0.369 C  
BRANCH  16  17
HETATM   17  C   UNL     1     -11.843  13.227  68.600  1.00  0.00    -0.380 C  
HETATM   18  C   UNL     1     -12.175  15.371  70.006  1.00  0.00    -0.361 C  
HETATM   19  O   UNL     1     -12.732  15.775  71.018  1.00  0.00    -0.463 OA 
HETATM   20  C   UNL     1     -12.057  13.917  69.740  1.00  0.00    -0.404 C  
HETATM   21  C   UNL     1     -11.708  13.859  67.235  1.00  0.00    -0.418 C  
HETATM   22  O   UNL     1     -11.594  16.198  69.123  1.00  0.00    -0.342 OA 
ENDBRANCH  16  17
ENDBRANCH   3  15
TORSDOF 4
ENDMDL
MODEL       54
REMARK 921   NORMALIZED FREE ENERGY PREDICTED BY IDOCK:   -5.13 KCAL/MOL
REMARK 922        TOTAL FREE ENERGY PREDICTED BY IDOCK:   -6.96 KCAL/MOL
REMARK 923 INTER-LIGAND FREE ENERGY PREDICTED BY IDOCK:   -6.35 KCAL/MOL
REMARK 924 INTRA-LIGAND FREE ENERGY PREDICTED BY IDOCK:   -0.60 KCAL/MOL
REMARK 927      BINDING AFFINITY PREDICTED BY RF-SCORE:    0.00 PKD
ROOT
HETATM    1  C   UNL     1     -10.417  14.048  65.575  1.00  0.00    -0.339 C  
HETATM    2  C   UNL     1      -9.333  14.221  66.615  1.00  0.00    -0.302 C  
HETATM    3  C   UNL     1      -8.792  13.143  67.231  1.00  0.00    -0.208 C  
ENDROOT
BRANCH   2   4
HETATM    4  C   UNL     1      -8.868  15.569  66.954  1.00  0.00    -0.284 C  
HETATM    5  C   UNL     1      -8.898  16.658  66.163  1.00  0.00    -0.323 C  
BRANCH   5   6
HETATM    6  C   UNL     1      -8.424  17.989  66.550  1.00  0.00    -0.285 C  
HETATM    7  C   UNL     1     -10.246  18.494  68.243  1.00  0.00    -0.412 C  
HETATM    8  C   UNL     1      -7.105  18.277  66.580  1.00  0.00    -0.241 C  
HETATM    9  C   UNL     1      -6.560  19.620  66.970  1.00  0.00    -0.208 C  
HETATM   10  C   UNL     1      -5.995  17.295  66.263  1.00  0.00    -0.176 C  
HETATM   11  C   UNL     1     -10.581  19.094  65.837  1.00  0.00    -0.495 C  
HETATM   12  C   UNL     1      -9.520  18.989  66.965  1.00  0.00    -0.358 C  
HETATM   13  C   UNL     1      -9.027  20.439  67.239  1.00  0.00    -0.460 C  
HETATM   14  C   UNL     1      -7.536  20.719  67.347  1.00  0.00    -0.349 C  
ENDBRANCH   5   6
ENDBRANCH   2   4
BRANCH   3  15
HETATM   15  C   UNL     1      -9.169  11.771  66.929  1.00  0.00    -0.189 C  
HETATM   16  C   UNL     1      -9.511  10.823  67.814  1.00  0.00    -0.165 C  
BRANCH  16  17
HETATM   17  C   UNL     1      -9.822   9.437  67.435  1.00  0.00    -0.222 C  
HETATM   18  C   UNL     1     -10.778   7.202  68.314  1.00  0.00    -0.153 C  
HETATM   19  O   UNL     1     -10.925   6.565  69.349  1.00  0.00    -0.275 OA 
HETATM   20  C   UNL     1     -10.388   8.631  68.358  1.00  0.00    -0.239 C  
HETATM   21  C   UNL     1      -9.398   8.986  66.057  1.00  0.00    -0.305 C  
HETATM   22  O   UNL     1     -11.015   6.675  67.102  1.00  0.00    -0.363 OA 
ENDBRANCH  16  17
ENDBRANCH   3  15
TORSDOF 4
ENDMDL
MODEL       55
REMARK 921   NORMALIZED FREE ENERGY PREDICTED BY IDOCK:   -5.13 KCAL/MOL
REMARK 922        TOTAL FREE ENERGY PREDICTED BY IDOCK:   -6.95 KCAL/MOL
REMARK 923 INTER-LIGAND FREE ENERGY PREDICTED BY IDOCK:   -6.28 KCAL/MOL
REMARK 924 INTRA-LIGAND FREE ENERGY PREDICTED BY IDOCK:   -0.67 KCAL/MOL
REMARK 927      BINDING AFFINITY PREDICTED BY RF-SCORE:    0.00 PKD
ROOT
HETATM    1  C   UNL     1      -9.171   8.466  68.930  1.00  0.00    -0.147 C  
HETATM    2  C   UNL     1     -10.308   8.805  69.868  1.00  0.00    -0.212 C  
HETATM    3  C   UNL     1     -11.022   7.823  70.468  1.00  0.00    -0.251 C  
ENDROOT
BRANCH   2   4
HETATM    4  C   UNL     1     -10.634  10.210  70.125  1.00  0.00    -0.337 C  
HETATM    5  C   UNL     1     -11.518  10.972  69.454  1.00  0.00    -0.364 C  
BRANCH   5   6
HETATM    6  C   UNL     1     -11.814  12.375  69.752  1.00  0.00    -0.387 C  
HETATM    7  C   UNL     1     -11.998  13.177  67.352  1.00  0.00    -0.379 C  
HETATM    8  C   UNL     1     -12.535  12.719  70.841  1.00  0.00    -0.373 C  
HETATM    9  C   UNL     1     -12.873  14.137  71.197  1.00  0.00    -0.431 C  
HETATM   10  C   UNL     1     -13.131  11.738  71.831  1.00  0.00    -0.482 C  
HETATM   11  C   UNL     1      -9.777  13.195  68.503  1.00  0.00    -0.138 C  
HETATM   12  C   UNL     1     -11.300  13.397  68.719  1.00  0.00    -0.332 C  
HETATM   13  C   UNL     1     -11.495  14.890  69.109  1.00  0.00    -0.324 C  
HETATM   14  C   UNL     1     -12.377  15.250  70.294  1.00  0.00    -0.407 C  
ENDBRANCH   5   6
ENDBRANCH   2   4
BRANCH   3  15
HETATM   15  C   UNL     1     -10.742   6.406  70.297  1.00  0.00    -0.322 C  
HETATM   16  C   UNL     1     -10.202   5.582  71.207  1.00  0.00    -0.283 C  
BRANCH  16  17
HETATM   17  C   UNL     1      -9.892   4.171  70.939  1.00  0.00    -0.247 C  
HETATM   18  C   UNL     1      -9.287   2.490  69.070  1.00  0.00    -0.141 C  
HETATM   19  O   UNL     1      -9.414   2.311  67.866  1.00  0.00    -0.200 OA 
HETATM   20  C   UNL     1      -9.596   3.809  69.673  1.00  0.00    -0.242 C  
HETATM   21  C   UNL     1     -10.017   3.205  72.093  1.00  0.00    -0.232 C  
HETATM   22  O   UNL     1      -8.812   1.543  69.895  1.00  0.00    -0.051 OA 
ENDBRANCH  16  17
ENDBRANCH   3  15
TORSDOF 4
ENDMDL
MODEL       56
REMARK 921   NORMALIZED FREE ENERGY PREDICTED BY IDOCK:   -5.12 KCAL/MOL
REMARK 922        TOTAL FREE ENERGY PREDICTED BY IDOCK:   -6.93 KCAL/MOL
REMARK 923 INTER-LIGAND FREE ENERGY PREDICTED BY IDOCK:   -6.34 KCAL/MOL
REMARK 924 INTRA-LIGAND FREE ENERGY PREDICTED BY IDOCK:   -0.59 KCAL/MOL
REMARK 927      BINDING AFFINITY PREDICTED BY RF-SCORE:    0.00 PKD
ROOT
HETATM    1  C   UNL     1      -9.792   8.829  72.055  1.00  0.00    -0.376 C  
HETATM    2  C   UNL     1     -10.320   8.609  70.655  1.00  0.00    -0.241 C  
HETATM    3  C   UNL     1     -11.268   9.429  70.140  1.00  0.00    -0.253 C  
ENDROOT
BRANCH   2   4
HETATM    4  C   UNL     1      -9.797   7.499  69.853  1.00  0.00    -0.187 C  
HETATM    5  C   UNL     1     -10.182   6.211  69.906  1.00  0.00    -0.246 C  
BRANCH   5   6
HETATM    6  C   UNL     1      -9.630   5.135  69.079  1.00  0.00    -0.204 C  
HETATM    7  C   UNL     1      -9.613   3.337  70.870  1.00  0.00    -0.234 C  
HETATM    8  C   UNL     1      -9.922   5.049  67.763  1.00  0.00    -0.198 C  
HETATM    9  C   UNL     1      -9.391   3.969  66.866  1.00  0.00    -0.200 C  
HETATM   10  C   UNL     1     -10.842   5.993  67.015  1.00  0.00    -0.413 C  
HETATM   11  C   UNL     1      -7.629   4.836  70.591  1.00  0.00    -0.058 C  
HETATM   12  C   UNL     1      -8.761   4.104  69.824  1.00  0.00    -0.117 C  
HETATM   13  C   UNL     1      -8.066   3.045  68.920  1.00  0.00    -0.069 C  
HETATM   14  C   UNL     1      -8.472   2.918  67.461  1.00  0.00    -0.102 C  
ENDBRANCH   5   6
ENDBRANCH   2   4
BRANCH   3  15
HETATM   15  C   UNL     1     -11.814  10.573  70.852  1.00  0.00    -0.455 C  
HETATM   16  C   UNL     1     -12.097  11.777  70.333  1.00  0.00    -0.440 C  
BRANCH  16  17
HETATM   17  C   UNL     1     -12.592  12.907  71.132  1.00  0.00    -0.373 C  
HETATM   18  C   UNL     1     -12.345  15.451  71.519  1.00  0.00    -0.377 C  
HETATM   19  O   UNL     1     -11.537  16.363  71.401  1.00  0.00    -0.418 OA 
HETATM   20  C   UNL     1     -12.096  14.136  70.880  1.00  0.00    -0.416 C  
HETATM   21  C   UNL     1     -13.561  12.592  72.247  1.00  0.00    -0.508 C  
HETATM   22  O   UNL     1     -13.511  15.599  72.168  1.00  0.00    -0.452 OA 
ENDBRANCH  16  17
ENDBRANCH   3  15
TORSDOF 4
ENDMDL
MODEL       57
REMARK 921   NORMALIZED FREE ENERGY PREDICTED BY IDOCK:   -5.09 KCAL/MOL
REMARK 922        TOTAL FREE ENERGY PREDICTED BY IDOCK:   -6.90 KCAL/MOL
REMARK 923 INTER-LIGAND FREE ENERGY PREDICTED BY IDOCK:   -6.25 KCAL/MOL
REMARK 924 INTRA-LIGAND FREE ENERGY PREDICTED BY IDOCK:   -0.65 KCAL/MOL
REMARK 927      BINDING AFFINITY PREDICTED BY RF-SCORE:    0.00 PKD
ROOT
HETATM    1  C   UNL     1     -11.332  11.889  66.639  1.00  0.00    -0.400 C  
HETATM    2  C   UNL     1     -10.999  10.657  67.451  1.00  0.00    -0.361 C  
HETATM    3  C   UNL     1     -11.063  10.686  68.804  1.00  0.00    -0.316 C  
ENDROOT
BRANCH   2   4
HETATM    4  C   UNL     1     -10.605   9.425  66.762  1.00  0.00    -0.210 C  
HETATM    5  C   UNL     1      -9.602   8.594  67.101  1.00  0.00    -0.227 C  
BRANCH   5   6
HETATM    6  C   UNL     1      -9.250   7.367  66.382  1.00  0.00    -0.203 C  
HETATM    7  C   UNL     1      -6.752   7.793  66.237  1.00  0.00    -0.054 C  
HETATM    8  C   UNL     1      -9.924   6.216  66.593  1.00  0.00    -0.207 C  
HETATM    9  C   UNL     1      -9.607   4.929  65.890  1.00  0.00    -0.185 C  
HETATM   10  C   UNL     1     -11.061   6.048  67.582  1.00  0.00    -0.217 C  
HETATM   11  C   UNL     1      -8.267   8.648  64.439  1.00  0.00    -0.163 C  
HETATM   12  C   UNL     1      -8.040   7.478  65.433  1.00  0.00    -0.133 C  
HETATM   13  C   UNL     1      -7.756   6.216  64.569  1.00  0.00    -0.105 C  
HETATM   14  C   UNL     1      -8.473   4.912  64.883  1.00  0.00    -0.144 C  
ENDBRANCH   5   6
ENDBRANCH   2   4
BRANCH   3  15
HETATM   15  C   UNL     1     -11.479  11.854  69.564  1.00  0.00    -0.357 C  
HETATM   16  C   UNL     1     -12.363  11.879  70.572  1.00  0.00    -0.372 C  
BRANCH  16  17
HETATM   17  C   UNL     1     -12.779  13.113  71.254  1.00  0.00    -0.396 C  
HETATM   18  C   UNL     1     -12.353  15.659  71.398  1.00  0.00    -0.426 C  
HETATM   19  O   UNL     1     -11.483  16.496  71.200  1.00  0.00    -0.331 OA 
HETATM   20  C   UNL     1     -12.196  14.274  70.890  1.00  0.00    -0.425 C  
HETATM   21  C   UNL     1     -13.771  12.976  72.385  1.00  0.00    -0.593 C  
HETATM   22  O   UNL     1     -13.508  15.950  72.018  1.00  0.00    -0.424 OA 
ENDBRANCH  16  17
ENDBRANCH   3  15
TORSDOF 4
ENDMDL
MODEL       58
REMARK 921   NORMALIZED FREE ENERGY PREDICTED BY IDOCK:   -5.07 KCAL/MOL
REMARK 922        TOTAL FREE ENERGY PREDICTED BY IDOCK:   -6.88 KCAL/MOL
REMARK 923 INTER-LIGAND FREE ENERGY PREDICTED BY IDOCK:   -6.39 KCAL/MOL
REMARK 924 INTRA-LIGAND FREE ENERGY PREDICTED BY IDOCK:   -0.49 KCAL/MOL
REMARK 927      BINDING AFFINITY PREDICTED BY RF-SCORE:    0.00 PKD
ROOT
HETATM    1  C   UNL     1     -12.064  13.211  66.844  1.00  0.00    -0.377 C  
HETATM    2  C   UNL     1     -10.832  13.551  67.653  1.00  0.00    -0.273 C  
HETATM    3  C   UNL     1     -10.562  12.893  68.806  1.00  0.00    -0.217 C  
ENDROOT
BRANCH   2   4
HETATM    4  C   UNL     1      -9.926  14.600  67.178  1.00  0.00    -0.240 C  
HETATM    5  C   UNL     1      -9.709  15.800  67.748  1.00  0.00    -0.216 C  
BRANCH   5   6
HETATM    6  C   UNL     1      -8.787  16.818  67.237  1.00  0.00    -0.216 C  
HETATM    7  C   UNL     1      -9.956  18.835  68.238  1.00  0.00    -0.432 C  
HETATM    8  C   UNL     1      -7.469  16.557  67.098  1.00  0.00    -0.217 C  
HETATM    9  C   UNL     1      -6.476  17.558  66.583  1.00  0.00    -0.252 C  
HETATM   10  C   UNL     1      -6.801  15.248  67.466  1.00  0.00    -0.218 C  
HETATM   11  C   UNL     1     -10.618  18.011  65.970  1.00  0.00    -0.258 C  
HETATM   12  C   UNL     1      -9.416  18.191  66.935  1.00  0.00    -0.286 C  
HETATM   13  C   UNL     1      -8.465  19.224  66.263  1.00  0.00    -0.328 C  
HETATM   14  C   UNL     1      -6.973  18.937  66.192  1.00  0.00    -0.278 C  
ENDBRANCH   5   6
ENDBRANCH   2   4
BRANCH   3  15
HETATM   15  C   UNL     1     -11.386  11.816  69.329  1.00  0.00    -0.348 C  
HETATM   16  C   UNL     1     -10.985  10.820  70.133  1.00  0.00    -0.230 C  
BRANCH  16  17
HETATM   17  C   UNL     1     -11.866   9.729  70.573  1.00  0.00    -0.316 C  
HETATM   18  C   UNL     1     -12.034   7.163  70.834  1.00  0.00    -0.334 C  
HETATM   19  O   UNL     1     -11.586   6.122  70.370  1.00  0.00    -0.343 OA 
HETATM   20  C   UNL     1     -11.399   8.464  70.515  1.00  0.00    -0.228 C  
HETATM   21  C   UNL     1     -13.275  10.099  70.975  1.00  0.00    -0.412 C  
HETATM   22  O   UNL     1     -13.066   7.185  71.693  1.00  0.00    -0.372 OA 
ENDBRANCH  16  17
ENDBRANCH   3  15
TORSDOF 4
ENDMDL
MODEL       59
REMARK 921   NORMALIZED FREE ENERGY PREDICTED BY IDOCK:   -5.03 KCAL/MOL
REMARK 922        TOTAL FREE ENERGY PREDICTED BY IDOCK:   -6.83 KCAL/MOL
REMARK 923 INTER-LIGAND FREE ENERGY PREDICTED BY IDOCK:   -6.41 KCAL/MOL
REMARK 924 INTRA-LIGAND FREE ENERGY PREDICTED BY IDOCK:   -0.42 KCAL/MOL
REMARK 927      BINDING AFFINITY PREDICTED BY RF-SCORE:    0.00 PKD
ROOT
HETATM    1  C   UNL     1      -8.069  13.565  68.676  1.00  0.00    -0.055 C  
HETATM    2  C   UNL     1      -9.317  14.366  68.379  1.00  0.00    -0.206 C  
HETATM    3  C   UNL     1     -10.543  13.802  68.504  1.00  0.00    -0.261 C  
ENDROOT
BRANCH   2   4
HETATM    4  C   UNL     1      -9.192  15.762  67.954  1.00  0.00    -0.191 C  
HETATM    5  C   UNL     1      -8.601  16.764  68.631  1.00  0.00    -0.263 C  
BRANCH   5   6
HETATM    6  C   UNL     1      -8.497  18.148  68.161  1.00  0.00    -0.282 C  
HETATM    7  C   UNL     1      -6.210  17.943  67.079  1.00  0.00    -0.182 C  
HETATM    8  C   UNL     1      -9.590  18.832  67.760  1.00  0.00    -0.346 C  
HETATM    9  C   UNL     1      -9.546  20.248  67.266  1.00  0.00    -0.581 C  
HETATM   10  C   UNL     1     -10.997  18.269  67.717  1.00  0.00    -0.118 C  
HETATM   11  C   UNL     1      -6.393  18.567  69.494  1.00  0.00    -0.257 C  
HETATM   12  C   UNL     1      -7.069  18.725  68.107  1.00  0.00    -0.269 C  
HETATM   13  C   UNL     1      -6.976  20.234  67.741  1.00  0.00    -0.323 C  
HETATM   14  C   UNL     1      -8.206  20.958  67.217  1.00  0.00    -0.148 C  
ENDBRANCH   5   6
ENDBRANCH   2   4
BRANCH   3  15
HETATM   15  C   UNL     1     -10.757  12.436  68.954  1.00  0.00    -0.202 C  
HETATM   16  C   UNL     1     -11.709  12.013  69.799  1.00  0.00    -0.390 C  
BRANCH  16  17
HETATM   17  C   UNL     1     -11.825  10.621  70.257  1.00  0.00    -0.430 C  
HETATM   18  C   UNL     1     -13.309   8.988  71.604  1.00  0.00    -0.377 C  
HETATM   19  O   UNL     1     -14.134   8.968  72.507  1.00  0.00    -0.483 OA 
HETATM   20  C   UNL     1     -12.915  10.269  70.971  1.00  0.00    -0.488 C  
HETATM   21  C   UNL     1     -10.663   9.700  69.968  1.00  0.00    -0.298 C  
HETATM   22  O   UNL     1     -12.766   7.869  71.098  1.00  0.00    -0.260 OA 
ENDBRANCH  16  17
ENDBRANCH   3  15
TORSDOF 4
ENDMDL
MODEL       60
REMARK 921   NORMALIZED FREE ENERGY PREDICTED BY IDOCK:   -5.01 KCAL/MOL
REMARK 922        TOTAL FREE ENERGY PREDICTED BY IDOCK:   -6.81 KCAL/MOL
REMARK 923 INTER-LIGAND FREE ENERGY PREDICTED BY IDOCK:   -6.21 KCAL/MOL
REMARK 924 INTRA-LIGAND FREE ENERGY PREDICTED BY IDOCK:   -0.60 KCAL/MOL
REMARK 927      BINDING AFFINITY PREDICTED BY RF-SCORE:    0.00 PKD
ROOT
HETATM    1  C   UNL     1     -11.422  10.311  70.561  1.00  0.00    -0.427 C  
HETATM    2  C   UNL     1     -11.093  10.147  69.094  1.00  0.00    -0.257 C  
HETATM    3  C   UNL     1     -10.519   9.006  68.641  1.00  0.00    -0.229 C  
ENDROOT
BRANCH   2   4
HETATM    4  C   UNL     1     -11.400  11.234  68.161  1.00  0.00    -0.372 C  
HETATM    5  C   UNL     1     -10.558  11.807  67.281  1.00  0.00    -0.259 C  
BRANCH   5   6
HETATM    6  C   UNL     1     -10.914  12.891  66.362  1.00  0.00    -0.310 C  
HETATM    7  C   UNL     1      -9.262  14.605  67.242  1.00  0.00    -0.212 C  
HETATM    8  C   UNL     1     -11.306  12.631  65.097  1.00  0.00    -0.343 C  
HETATM    9  C   UNL     1     -11.679  13.699  64.110  1.00  0.00    -0.424 C  
HETATM   10  C   UNL     1     -11.393  11.249  64.483  1.00  0.00    -0.091 C  
HETATM   11  C   UNL     1     -11.545  14.444  68.252  1.00  0.00    -0.359 C  
HETATM   12  C   UNL     1     -10.752  14.317  66.924  1.00  0.00    -0.290 C  
HETATM   13  C   UNL     1     -11.262  15.458  65.997  1.00  0.00    -0.168 C  
HETATM   14  C   UNL     1     -11.621  15.149  64.552  1.00  0.00    -0.330 C  
ENDBRANCH   5   6
ENDBRANCH   2   4
BRANCH   3  15
HETATM   15  C   UNL     1     -10.215   7.866  69.491  1.00  0.00    -0.208 C  
HETATM   16  C   UNL     1     -10.978   6.777  69.671  1.00  0.00    -0.336 C  
BRANCH  16  17
HETATM   17  C   UNL     1     -10.630   5.690  70.597  1.00  0.00    -0.347 C  
HETATM   18  C   UNL     1     -10.631   4.994  73.087  1.00  0.00    -0.225 C  
HETATM   19  O   UNL     1     -10.599   5.470  74.214  1.00  0.00    -0.270 OA 
HETATM   20  C   UNL     1     -10.892   5.858  71.910  1.00  0.00    -0.307 C  
HETATM   21  C   UNL     1      -9.917   4.491  70.018  1.00  0.00    -0.280 C  
HETATM   22  O   UNL     1     -10.497   3.678  72.855  1.00  0.00    -0.161 OA 
ENDBRANCH  16  17
ENDBRANCH   3  15
TORSDOF 4
ENDMDL
MODEL       61
REMARK 921   NORMALIZED FREE ENERGY PREDICTED BY IDOCK:   -4.99 KCAL/MOL
REMARK 922        TOTAL FREE ENERGY PREDICTED BY IDOCK:   -6.78 KCAL/MOL
REMARK 923 INTER-LIGAND FREE ENERGY PREDICTED BY IDOCK:   -6.13 KCAL/MOL
REMARK 924 INTRA-LIGAND FREE ENERGY PREDICTED BY IDOCK:   -0.65 KCAL/MOL
REMARK 927      BINDING AFFINITY PREDICTED BY RF-SCORE:    0.00 PKD
ROOT
HETATM    1  C   UNL     1     -11.932  11.249  69.310  1.00  0.00    -0.411 C  
HETATM    2  C   UNL     1     -11.336  11.809  68.037  1.00  0.00    -0.355 C  
HETATM    3  C   UNL     1     -10.854  10.980  67.079  1.00  0.00    -0.334 C  
ENDROOT
BRANCH   2   4
HETATM    4  C   UNL     1     -11.283  13.261  67.845  1.00  0.00    -0.302 C  
HETATM    5  C   UNL     1     -10.182  14.013  67.658  1.00  0.00    -0.241 C  
BRANCH   5   6
HETATM    6  C   UNL     1     -10.180  15.465  67.465  1.00  0.00    -0.244 C  
HETATM    7  C   UNL     1      -8.305  15.997  69.089  1.00  0.00    -0.244 C  
HETATM    8  C   UNL     1     -10.470  16.008  66.263  1.00  0.00    -0.326 C  
HETATM    9  C   UNL     1     -10.481  17.487  66.003  1.00  0.00    -0.274 C  
HETATM   10  C   UNL     1     -10.788  15.219  65.009  1.00  0.00    -0.457 C  
HETATM   11  C   UNL     1     -10.669  15.909  69.903  1.00  0.00    -0.334 C  
HETATM   12  C   UNL     1      -9.775  16.298  68.696  1.00  0.00    -0.235 C  
HETATM   13  C   UNL     1      -9.908  17.839  68.529  1.00  0.00    -0.355 C  
HETATM   14  C   UNL     1     -10.155  18.427  67.149  1.00  0.00    -0.371 C  
ENDBRANCH   5   6
ENDBRANCH   2   4
BRANCH   3  15
HETATM   15  C   UNL     1     -10.901   9.530  67.173  1.00  0.00    -0.156 C  
HETATM   16  C   UNL     1      -9.855   8.692  67.122  1.00  0.00    -0.269 C  
BRANCH  16  17
HETATM   17  C   UNL     1      -9.988   7.228  67.164  1.00  0.00    -0.279 C  
HETATM   18  C   UNL     1      -9.189   5.032  66.059  1.00  0.00    -0.153 C  
HETATM   19  O   UNL     1      -8.754   4.596  65.001  1.00  0.00    -0.131 OA 
HETATM   20  C   UNL     1      -9.255   6.493  66.301  1.00  0.00    -0.160 C  
HETATM   21  C   UNL     1     -11.011   6.655  68.115  1.00  0.00    -0.323 C  
HETATM   22  O   UNL     1      -9.568   4.232  67.068  1.00  0.00    -0.177 OA 
ENDBRANCH  16  17
ENDBRANCH   3  15
TORSDOF 4
ENDMDL
MODEL       62
REMARK 921   NORMALIZED FREE ENERGY PREDICTED BY IDOCK:   -4.97 KCAL/MOL
REMARK 922        TOTAL FREE ENERGY PREDICTED BY IDOCK:   -6.76 KCAL/MOL
REMARK 923 INTER-LIGAND FREE ENERGY PREDICTED BY IDOCK:   -6.10 KCAL/MOL
REMARK 924 INTRA-LIGAND FREE ENERGY PREDICTED BY IDOCK:   -0.66 KCAL/MOL
REMARK 927      BINDING AFFINITY PREDICTED BY RF-SCORE:    0.00 PKD
ROOT
HETATM    1  C   UNL     1     -10.546  13.276  65.802  1.00  0.00    -0.291 C  
HETATM    2  C   UNL     1      -9.530  13.874  66.750  1.00  0.00    -0.287 C  
HETATM    3  C   UNL     1      -9.092  13.171  67.822  1.00  0.00    -0.200 C  
ENDROOT
BRANCH   2   4
HETATM    4  C   UNL     1      -9.020  15.225  66.500  1.00  0.00    -0.340 C  
HETATM    5  C   UNL     1      -8.871  16.213  67.401  1.00  0.00    -0.199 C  
BRANCH   5   6
HETATM    6  C   UNL     1      -8.350  17.550  67.103  1.00  0.00    -0.232 C  
HETATM    7  C   UNL     1     -10.037  18.859  68.475  1.00  0.00    -0.460 C  
HETATM    8  C   UNL     1      -7.028  17.757  66.922  1.00  0.00    -0.212 C  
HETATM    9  C   UNL     1      -6.435  19.102  66.619  1.00  0.00    -0.199 C  
HETATM   10  C   UNL     1      -5.960  16.688  67.031  1.00  0.00    -0.188 C  
HETATM   11  C   UNL     1     -10.535  18.305  66.086  1.00  0.00    -0.403 C  
HETATM   12  C   UNL     1      -9.398  18.679  67.073  1.00  0.00    -0.301 C  
HETATM   13  C   UNL     1      -8.863  20.068  66.621  1.00  0.00    -0.417 C  
HETATM   14  C   UNL     1      -7.364  20.296  66.502  1.00  0.00    -0.302 C  
ENDBRANCH   5   6
ENDBRANCH   2   4
BRANCH   3  15
HETATM   15  C   UNL     1      -9.518  11.814  68.122  1.00  0.00    -0.193 C  
HETATM   16  C   UNL     1     -10.299  11.429  69.143  1.00  0.00    -0.122 C  
BRANCH  16  17
HETATM   17  C   UNL     1     -10.638  10.025  69.417  1.00  0.00    -0.256 C  
HETATM   18  C   UNL     1     -11.458   8.401  71.254  1.00  0.00    -0.280 C  
HETATM   19  O   UNL     1     -11.472   8.260  72.470  1.00  0.00    -0.378 OA 
HETATM   20  C   UNL     1     -11.080   9.701  70.651  1.00  0.00    -0.384 C  
HETATM   21  C   UNL     1     -10.380   9.024  68.316  1.00  0.00    -0.252 C  
HETATM   22  O   UNL     1     -11.834   7.427  70.410  1.00  0.00    -0.204 OA 
ENDBRANCH  16  17
ENDBRANCH   3  15
TORSDOF 4
ENDMDL
MODEL       63
REMARK 921   NORMALIZED FREE ENERGY PREDICTED BY IDOCK:   -4.94 KCAL/MOL
REMARK 922        TOTAL FREE ENERGY PREDICTED BY IDOCK:   -6.71 KCAL/MOL
REMARK 923 INTER-LIGAND FREE ENERGY PREDICTED BY IDOCK:   -6.05 KCAL/MOL
REMARK 924 INTRA-LIGAND FREE ENERGY PREDICTED BY IDOCK:   -0.66 KCAL/MOL
REMARK 927      BINDING AFFINITY PREDICTED BY RF-SCORE:    0.00 PKD
ROOT
HETATM    1  C   UNL     1      -7.456  12.297  67.397  1.00  0.00    -0.160 C  
HETATM    2  C   UNL     1      -8.832  12.863  67.123  1.00  0.00    -0.210 C  
HETATM    3  C   UNL     1      -9.905  12.042  67.014  1.00  0.00    -0.205 C  
ENDROOT
BRANCH   2   4
HETATM    4  C   UNL     1      -8.999  14.311  66.977  1.00  0.00    -0.251 C  
HETATM    5  C   UNL     1     -10.052  15.048  67.375  1.00  0.00    -0.228 C  
BRANCH   5   6
HETATM    6  C   UNL     1     -10.172  16.499  67.211  1.00  0.00    -0.287 C  
HETATM    7  C   UNL     1      -8.317  17.152  68.816  1.00  0.00    -0.236 C  
HETATM    8  C   UNL     1     -10.525  17.039  66.025  1.00  0.00    -0.280 C  
HETATM    9  C   UNL     1     -10.661  18.516  65.795  1.00  0.00    -0.265 C  
HETATM   10  C   UNL     1     -10.800  16.250  64.761  1.00  0.00    -0.245 C  
HETATM   11  C   UNL     1     -10.652  16.857  69.665  1.00  0.00    -0.172 C  
HETATM   12  C   UNL     1      -9.813  17.339  68.452  1.00  0.00    -0.309 C  
HETATM   13  C   UNL     1     -10.074  18.867  68.317  1.00  0.00    -0.446 C  
HETATM   14  C   UNL     1     -10.393  19.458  66.953  1.00  0.00    -0.541 C  
ENDBRANCH   5   6
ENDBRANCH   2   4
BRANCH   3  15
HETATM   15  C   UNL     1      -9.834  10.600  67.182  1.00  0.00    -0.208 C  
HETATM   16  C   UNL     1      -9.834   9.680  66.205  1.00  0.00    -0.334 C  
BRANCH  16  17
HETATM   17  C   UNL     1      -9.821   8.232  66.456  1.00  0.00    -0.323 C  
HETATM   18  C   UNL     1     -10.855   6.360  67.907  1.00  0.00    -0.322 C  
HETATM   19  O   UNL     1     -11.379   6.173  68.997  1.00  0.00    -0.390 OA 
HETATM   20  C   UNL     1     -10.656   7.736  67.392  1.00  0.00    -0.345 C  
HETATM   21  C   UNL     1      -8.800   7.410  65.704  1.00  0.00    -0.056 C  
HETATM   22  O   UNL     1     -10.492   5.351  67.099  1.00  0.00    -0.232 OA 
ENDBRANCH  16  17
ENDBRANCH   3  15
TORSDOF 4
ENDMDL
MODEL       64
REMARK 921   NORMALIZED FREE ENERGY PREDICTED BY IDOCK:   -4.85 KCAL/MOL
REMARK 922        TOTAL FREE ENERGY PREDICTED BY IDOCK:   -6.61 KCAL/MOL
REMARK 923 INTER-LIGAND FREE ENERGY PREDICTED BY IDOCK:   -5.96 KCAL/MOL
REMARK 924 INTRA-LIGAND FREE ENERGY PREDICTED BY IDOCK:   -0.64 KCAL/MOL
REMARK 927      BINDING AFFINITY PREDICTED BY RF-SCORE:    0.00 PKD
ROOT
HETATM    1  C   UNL     1      -9.860   9.734  68.927  1.00  0.00    -0.177 C  
HETATM    2  C   UNL     1     -10.314   9.693  67.486  1.00  0.00    -0.297 C  
HETATM    3  C   UNL     1     -10.628   8.515  66.895  1.00  0.00    -0.279 C  
ENDROOT
BRANCH   2   4
HETATM    4  C   UNL     1     -10.415  10.943  66.727  1.00  0.00    -0.302 C  
HETATM    5  C   UNL     1     -11.354  11.897  66.862  1.00  0.00    -0.392 C  
BRANCH   5   6
HETATM    6  C   UNL     1     -11.411  13.136  66.081  1.00  0.00    -0.343 C  
HETATM    7  C   UNL     1      -9.168  14.072  66.811  1.00  0.00    -0.280 C  
HETATM    8  C   UNL     1     -12.017  13.172  64.874  1.00  0.00    -0.431 C  
HETATM    9  C   UNL     1     -12.103  14.408  64.028  1.00  0.00    -0.312 C  
HETATM   10  C   UNL     1     -12.659  11.981  64.191  1.00  0.00    -0.413 C  
HETATM   11  C   UNL     1     -11.224  14.584  68.142  1.00  0.00    -0.301 C  
HETATM   12  C   UNL     1     -10.691  14.347  66.704  1.00  0.00    -0.292 C  
HETATM   13  C   UNL     1     -10.871  15.691  65.942  1.00  0.00    -0.297 C  
HETATM   14  C   UNL     1     -11.485  15.691  64.551  1.00  0.00    -0.304 C  
ENDBRANCH   5   6
ENDBRANCH   2   4
BRANCH   3  15
HETATM   15  C   UNL     1     -10.591   7.235  67.585  1.00  0.00    -0.316 C  
HETATM   16  C   UNL     1      -9.575   6.359  67.590  1.00  0.00    -0.126 C  
BRANCH  16  17
HETATM   17  C   UNL     1      -9.635   5.054  68.264  1.00  0.00    -0.187 C  
HETATM   18  C   UNL     1      -9.327   2.512  67.911  1.00  0.00    -0.191 C  
HETATM   19  O   UNL     1      -9.377   1.653  67.040  1.00  0.00    -0.064 OA 
HETATM   20  C   UNL     1      -9.324   3.950  67.552  1.00  0.00    -0.229 C  
HETATM   21  C   UNL     1     -10.132   5.035  69.690  1.00  0.00    -0.321 C  
HETATM   22  O   UNL     1      -9.211   2.212  69.214  1.00  0.00    -0.108 OA 
ENDBRANCH  16  17
ENDBRANCH   3  15
TORSDOF 4
ENDMDL
MODEL       65
REMARK 921   NORMALIZED FREE ENERGY PREDICTED BY IDOCK:   -4.84 KCAL/MOL
REMARK 922        TOTAL FREE ENERGY PREDICTED BY IDOCK:   -6.60 KCAL/MOL
REMARK 923 INTER-LIGAND FREE ENERGY PREDICTED BY IDOCK:   -5.93 KCAL/MOL
REMARK 924 INTRA-LIGAND FREE ENERGY PREDICTED BY IDOCK:   -0.66 KCAL/MOL
REMARK 927      BINDING AFFINITY PREDICTED BY RF-SCORE:    0.00 PKD
ROOT
HETATM    1  C   UNL     1      -9.741   8.158  70.533  1.00  0.00    -0.181 C  
HETATM    2  C   UNL     1     -10.167   9.134  69.459  1.00  0.00    -0.208 C  
HETATM    3  C   UNL     1     -10.178   8.761  68.156  1.00  0.00    -0.250 C  
ENDROOT
BRANCH   2   4
HETATM    4  C   UNL     1     -10.571  10.490  69.837  1.00  0.00    -0.261 C  
HETATM    5  C   UNL     1     -11.545  11.230  69.276  1.00  0.00    -0.390 C  
BRANCH   5   6
HETATM    6  C   UNL     1     -11.916  12.585  69.693  1.00  0.00    -0.339 C  
HETATM    7  C   UNL     1     -12.305  13.534  67.372  1.00  0.00    -0.131 C  
HETATM    8  C   UNL     1     -12.589  12.799  70.844  1.00  0.00    -0.342 C  
HETATM    9  C   UNL     1     -13.000  14.162  71.321  1.00  0.00    -0.426 C  
HETATM   10  C   UNL     1     -13.053  11.712  71.792  1.00  0.00    -0.487 C  
HETATM   11  C   UNL     1     -10.022  13.633  68.391  1.00  0.00    -0.235 C  
HETATM   12  C   UNL     1     -11.539  13.709  68.709  1.00  0.00    -0.359 C  
HETATM   13  C   UNL     1     -11.810  15.155  69.217  1.00  0.00    -0.347 C  
HETATM   14  C   UNL     1     -12.638  15.367  70.474  1.00  0.00    -0.471 C  
ENDBRANCH   5   6
ENDBRANCH   2   4
BRANCH   3  15
HETATM   15  C   UNL     1      -9.828   7.426  67.699  1.00  0.00    -0.194 C  
HETATM   16  C   UNL     1     -10.672   6.404  67.496  1.00  0.00    -0.396 C  
BRANCH  16  17
HETATM   17  C   UNL     1     -10.234   5.060  67.089  1.00  0.00    -0.234 C  
HETATM   18  C   UNL     1      -9.032   2.924  67.910  1.00  0.00    -0.155 C  
HETATM   19  O   UNL     1      -8.206   2.546  68.730  1.00  0.00    -0.055 OA 
HETATM   20  C   UNL     1      -9.621   4.281  68.005  1.00  0.00    -0.204 C  
HETATM   21  C   UNL     1     -10.422   4.682  65.639  1.00  0.00    -0.260 C  
HETATM   22  O   UNL     1      -9.494   2.130  66.931  1.00  0.00    -0.006 OA 
ENDBRANCH  16  17
ENDBRANCH   3  15
TORSDOF 4
ENDMDL
MODEL       66
REMARK 921   NORMALIZED FREE ENERGY PREDICTED BY IDOCK:   -4.80 KCAL/MOL
REMARK 922        TOTAL FREE ENERGY PREDICTED BY IDOCK:   -6.54 KCAL/MOL
REMARK 923 INTER-LIGAND FREE ENERGY PREDICTED BY IDOCK:   -5.85 KCAL/MOL
REMARK 924 INTRA-LIGAND FREE ENERGY PREDICTED BY IDOCK:   -0.69 KCAL/MOL
REMARK 927      BINDING AFFINITY PREDICTED BY RF-SCORE:    0.00 PKD
ROOT
HETATM    1  C   UNL     1     -10.147  13.510  65.743  1.00  0.00    -0.298 C  
HETATM    2  C   UNL     1      -9.362  14.187  66.844  1.00  0.00    -0.274 C  
HETATM    3  C   UNL     1      -8.987  13.496  67.948  1.00  0.00    -0.200 C  
ENDROOT
BRANCH   2   4
HETATM    4  C   UNL     1      -9.006  15.602  66.709  1.00  0.00    -0.291 C  
HETATM    5  C   UNL     1      -8.696  16.456  67.702  1.00  0.00    -0.188 C  
BRANCH   5   6
HETATM    6  C   UNL     1      -8.341  17.865  67.516  1.00  0.00    -0.228 C  
HETATM    7  C   UNL     1      -6.165  17.481  66.268  1.00  0.00    -0.267 C  
HETATM    8  C   UNL     1      -9.293  18.806  67.334  1.00  0.00    -0.308 C  
HETATM    9  C   UNL     1      -8.991  20.262  67.136  1.00  0.00    -0.469 C  
HETATM   10  C   UNL     1     -10.782  18.531  67.270  1.00  0.00    -0.417 C  
HETATM   11  C   UNL     1      -6.162  17.604  68.767  1.00  0.00    -0.197 C  
HETATM   12  C   UNL     1      -6.831  18.171  67.487  1.00  0.00    -0.203 C  
HETATM   13  C   UNL     1      -6.460  19.681  67.430  1.00  0.00    -0.216 C  
HETATM   14  C   UNL     1      -7.542  20.711  67.144  1.00  0.00    -0.364 C  
ENDBRANCH   5   6
ENDBRANCH   2   4
BRANCH   3  15
HETATM   15  C   UNL     1      -9.267  12.082  68.144  1.00  0.00    -0.195 C  
HETATM   16  C   UNL     1     -10.249  11.559  68.893  1.00  0.00    -0.166 C  
BRANCH  16  17
HETATM   17  C   UNL     1     -10.432  10.114  69.093  1.00  0.00    -0.242 C  
HETATM   18  C   UNL     1     -10.451   7.829  67.883  1.00  0.00    -0.201 C  
HETATM   19  O   UNL     1     -10.649   7.331  66.782  1.00  0.00    -0.298 OA 
HETATM   20  C   UNL     1     -10.293   9.296  68.028  1.00  0.00    -0.270 C  
HETATM   21  C   UNL     1     -10.854   9.655  70.469  1.00  0.00    -0.371 C  
HETATM   22  O   UNL     1     -10.306   7.091  68.994  1.00  0.00    -0.187 OA 
ENDBRANCH  16  17
ENDBRANCH   3  15
TORSDOF 4
ENDMDL
MODEL       67
REMARK 921   NORMALIZED FREE ENERGY PREDICTED BY IDOCK:   -4.76 KCAL/MOL
REMARK 922        TOTAL FREE ENERGY PREDICTED BY IDOCK:   -6.50 KCAL/MOL
REMARK 923 INTER-LIGAND FREE ENERGY PREDICTED BY IDOCK:   -5.87 KCAL/MOL
REMARK 924 INTRA-LIGAND FREE ENERGY PREDICTED BY IDOCK:   -0.62 KCAL/MOL
REMARK 927      BINDING AFFINITY PREDICTED BY RF-SCORE:    0.00 PKD
ROOT
HETATM    1  C   UNL     1     -10.888  10.060  70.766  1.00  0.00    -0.330 C  
HETATM    2  C   UNL     1     -10.365   9.090  69.730  1.00  0.00    -0.219 C  
HETATM    3  C   UNL     1     -10.297   9.447  68.425  1.00  0.00    -0.238 C  
ENDROOT
BRANCH   2   4
HETATM    4  C   UNL     1      -9.930   7.755  70.149  1.00  0.00    -0.186 C  
HETATM    5  C   UNL     1     -10.712   6.742  70.566  1.00  0.00    -0.277 C  
BRANCH   5   6
HETATM    6  C   UNL     1     -10.229   5.419  70.971  1.00  0.00    -0.296 C  
HETATM    7  C   UNL     1     -11.658   5.186  73.055  1.00  0.00    -0.301 C  
HETATM    8  C   UNL     1      -9.875   4.496  70.052  1.00  0.00    -0.296 C  
HETATM    9  C   UNL     1      -9.377   3.125  70.405  1.00  0.00    -0.232 C  
HETATM   10  C   UNL     1      -9.958   4.690  68.551  1.00  0.00    -0.130 C  
HETATM   11  C   UNL     1      -9.409   6.272  73.203  1.00  0.00    -0.138 C  
HETATM   12  C   UNL     1     -10.215   5.154  72.488  1.00  0.00    -0.242 C  
HETATM   13  C   UNL     1      -9.573   3.805  72.921  1.00  0.00    -0.170 C  
HETATM   14  C   UNL     1      -9.257   2.751  71.870  1.00  0.00    -0.164 C  
ENDBRANCH   5   6
ENDBRANCH   2   4
BRANCH   3  15
HETATM   15  C   UNL     1     -10.673  10.761  67.930  1.00  0.00    -0.282 C  
HETATM   16  C   UNL     1     -11.153  11.049  66.711  1.00  0.00    -0.240 C  
BRANCH  16  17
HETATM   17  C   UNL     1     -11.455  12.416  66.262  1.00  0.00    -0.423 C  
HETATM   18  C   UNL     1     -11.350  14.906  66.951  1.00  0.00    -0.337 C  
HETATM   19  O   UNL     1     -11.341  15.626  67.941  1.00  0.00    -0.344 OA 
HETATM   20  C   UNL     1     -11.143  13.444  67.080  1.00  0.00    -0.303 C  
HETATM   21  C   UNL     1     -12.181  12.566  64.946  1.00  0.00    -0.534 C  
HETATM   22  O   UNL     1     -11.482  15.392  65.706  1.00  0.00    -0.192 OA 
ENDBRANCH  16  17
ENDBRANCH   3  15
TORSDOF 4
ENDMDL
MODEL       68
REMARK 921   NORMALIZED FREE ENERGY PREDICTED BY IDOCK:   -4.72 KCAL/MOL
REMARK 922        TOTAL FREE ENERGY PREDICTED BY IDOCK:   -6.45 KCAL/MOL
REMARK 923 INTER-LIGAND FREE ENERGY PREDICTED BY IDOCK:   -5.81 KCAL/MOL
REMARK 924 INTRA-LIGAND FREE ENERGY PREDICTED BY IDOCK:   -0.64 KCAL/MOL
REMARK 927      BINDING AFFINITY PREDICTED BY RF-SCORE:    0.00 PKD
ROOT
HETATM    1  C   UNL     1     -11.190  15.614  68.279  1.00  0.00    -0.353 C  
HETATM    2  C   UNL     1      -9.682  15.577  68.395  1.00  0.00    -0.203 C  
HETATM    3  C   UNL     1      -9.014  14.401  68.314  1.00  0.00    -0.187 C  
ENDROOT
BRANCH   2   4
HETATM    4  C   UNL     1      -8.945  16.827  68.595  1.00  0.00    -0.251 C  
HETATM    5  C   UNL     1      -7.843  17.231  67.936  1.00  0.00    -0.197 C  
BRANCH   5   6
HETATM    6  C   UNL     1      -7.142  18.496  68.169  1.00  0.00    -0.261 C  
HETATM    7  C   UNL     1      -9.077  20.039  67.605  1.00  0.00    -0.441 C  
HETATM    8  C   UNL     1      -6.196  18.602  69.127  1.00  0.00    -0.268 C  
HETATM    9  C   UNL     1      -5.447  19.871  69.414  1.00  0.00    -0.254 C  
HETATM   10  C   UNL     1      -5.781  17.485  70.062  1.00  0.00    -0.245 C  
HETATM   11  C   UNL     1      -7.522  19.281  65.798  1.00  0.00    -0.228 C  
HETATM   12  C   UNL     1      -7.600  19.680  67.295  1.00  0.00    -0.280 C  
HETATM   13  C   UNL     1      -6.761  20.982  67.447  1.00  0.00    -0.446 C  
HETATM   14  C   UNL     1      -5.759  21.102  68.585  1.00  0.00    -0.306 C  
ENDBRANCH   5   6
ENDBRANCH   2   4
BRANCH   3  15
HETATM   15  C   UNL     1      -9.664  13.122  68.081  1.00  0.00    -0.228 C  
HETATM   16  C   UNL     1      -9.061  11.964  67.772  1.00  0.00    -0.180 C  
BRANCH  16  17
HETATM   17  C   UNL     1      -9.793  10.720  67.490  1.00  0.00    -0.197 C  
HETATM   18  C   UNL     1      -9.556   8.340  66.510  1.00  0.00    -0.244 C  
HETATM   19  O   UNL     1      -8.887   7.696  65.713  1.00  0.00    -0.162 OA 
HETATM   20  C   UNL     1      -9.116   9.687  66.947  1.00  0.00    -0.160 C  
HETATM   21  C   UNL     1     -11.282  10.722  67.747  1.00  0.00    -0.385 C  
HETATM   22  O   UNL     1     -10.673   7.854  67.074  1.00  0.00    -0.339 OA 
ENDBRANCH  16  17
ENDBRANCH   3  15
TORSDOF 4
ENDMDL
MODEL       69
REMARK 921   NORMALIZED FREE ENERGY PREDICTED BY IDOCK:   -4.70 KCAL/MOL
REMARK 922        TOTAL FREE ENERGY PREDICTED BY IDOCK:   -6.42 KCAL/MOL
REMARK 923 INTER-LIGAND FREE ENERGY PREDICTED BY IDOCK:   -5.82 KCAL/MOL
REMARK 924 INTRA-LIGAND FREE ENERGY PREDICTED BY IDOCK:   -0.60 KCAL/MOL
REMARK 927      BINDING AFFINITY PREDICTED BY RF-SCORE:    0.00 PKD
ROOT
HETATM    1  C   UNL     1      -8.988   8.753  65.344  1.00  0.00    -0.211 C  
HETATM    2  C   UNL     1      -9.956   9.668  66.060  1.00  0.00    -0.344 C  
HETATM    3  C   UNL     1     -10.738   9.197  67.061  1.00  0.00    -0.189 C  
ENDROOT
BRANCH   2   4
HETATM    4  C   UNL     1     -10.043  11.076  65.664  1.00  0.00    -0.310 C  
HETATM    5  C   UNL     1     -10.688  12.062  66.315  1.00  0.00    -0.302 C  
BRANCH   5   6
HETATM    6  C   UNL     1     -10.743  13.460  65.880  1.00  0.00    -0.285 C  
HETATM    7  C   UNL     1     -13.258  13.597  65.571  1.00  0.00     0.059 C  
HETATM    8  C   UNL     1      -9.875  14.375  66.365  1.00  0.00    -0.309 C  
HETATM    9  C   UNL     1      -9.884  15.820  65.961  1.00  0.00    -0.366 C  
HETATM   10  C   UNL     1      -8.804  14.091  67.398  1.00  0.00    -0.210 C  
HETATM   11  C   UNL     1     -11.809  12.856  63.671  1.00  0.00    -0.599 C  
HETATM   12  C   UNL     1     -11.877  13.805  64.896  1.00  0.00    -0.394 C  
HETATM   13  C   UNL     1     -11.847  15.255  64.331  1.00  0.00    -0.288 C  
HETATM   14  C   UNL     1     -10.916  16.285  64.950  1.00  0.00    -0.321 C  
ENDBRANCH   5   6
ENDBRANCH   2   4
BRANCH   3  15
HETATM   15  C   UNL     1     -10.689   7.825  67.541  1.00  0.00    -0.265 C  
HETATM   16  C   UNL     1     -10.247   7.412  68.738  1.00  0.00    -0.199 C  
BRANCH  16  17
HETATM   17  C   UNL     1     -10.171   5.997  69.129  1.00  0.00    -0.258 C  
HETATM   18  C   UNL     1      -9.504   3.640  68.303  1.00  0.00    -0.152 C  
HETATM   19  O   UNL     1      -9.386   2.983  67.277  1.00  0.00    -0.189 OA 
HETATM   20  C   UNL     1      -9.673   5.112  68.241  1.00  0.00    -0.191 C  
HETATM   21  C   UNL     1     -10.746   5.621  70.475  1.00  0.00    -0.344 C  
HETATM   22  O   UNL     1      -9.428   3.089  69.525  1.00  0.00    -0.154 OA 
ENDBRANCH  16  17
ENDBRANCH   3  15
TORSDOF 4
ENDMDL
MODEL       70
REMARK 921   NORMALIZED FREE ENERGY PREDICTED BY IDOCK:   -4.70 KCAL/MOL
REMARK 922        TOTAL FREE ENERGY PREDICTED BY IDOCK:   -6.41 KCAL/MOL
REMARK 923 INTER-LIGAND FREE ENERGY PREDICTED BY IDOCK:   -6.13 KCAL/MOL
REMARK 924 INTRA-LIGAND FREE ENERGY PREDICTED BY IDOCK:   -0.28 KCAL/MOL
REMARK 927      BINDING AFFINITY PREDICTED BY RF-SCORE:    0.00 PKD
ROOT
HETATM    1  C   UNL     1     -12.836   9.647  71.837  1.00  0.00    -0.515 C  
HETATM    2  C   UNL     1     -11.581   9.866  71.021  1.00  0.00    -0.470 C  
HETATM    3  C   UNL     1     -10.606   8.926  70.992  1.00  0.00    -0.315 C  
ENDROOT
BRANCH   2   4
HETATM    4  C   UNL     1     -11.427  11.107  70.257  1.00  0.00    -0.329 C  
HETATM    5  C   UNL     1     -12.249  12.172  70.269  1.00  0.00    -0.344 C  
BRANCH   5   6
HETATM    6  C   UNL     1     -12.049  13.396  69.489  1.00  0.00    -0.334 C  
HETATM    7  C   UNL     1     -11.095  14.815  71.364  1.00  0.00     0.131 C  
HETATM    8  C   UNL     1     -11.712  13.342  68.182  1.00  0.00    -0.397 C  
HETATM    9  C   UNL     1     -11.491  14.559  67.333  1.00  0.00    -0.385 C  
HETATM   10  C   UNL     1     -11.477  12.065  67.400  1.00  0.00    -0.406 C  
HETATM   11  C   UNL     1     -13.568  14.744  70.991  1.00  0.00    -0.364 C  
HETATM   12  C   UNL     1     -12.193  14.714  70.273  1.00  0.00    -0.389 C  
HETATM   13  C   UNL     1     -12.118  16.010  69.414  1.00  0.00    -0.090 C  
HETATM   14  C   UNL     1     -11.659  15.927  67.967  1.00  0.00    -0.168 C  
ENDBRANCH   5   6
ENDBRANCH   2   4
BRANCH   3  15
HETATM   15  C   UNL     1     -10.694   7.654  71.690  1.00  0.00    -0.243 C  
HETATM   16  C   UNL     1     -10.281   6.462  71.236  1.00  0.00    -0.232 C  
BRANCH  16  17
HETATM   17  C   UNL     1     -10.460   5.206  71.978  1.00  0.00    -0.278 C  
HETATM   18  C   UNL     1      -9.891   2.684  71.972  1.00  0.00    -0.163 C  
HETATM   19  O   UNL     1      -9.613   1.767  71.210  1.00  0.00    -0.122 OA 
HETATM   20  C   UNL     1      -9.873   4.089  71.499  1.00  0.00    -0.251 C  
HETATM   21  C   UNL     1     -11.371   5.239  73.182  1.00  0.00    -0.358 C  
HETATM   22  O   UNL     1     -10.164   2.485  73.272  1.00  0.00    -0.107 OA 
ENDBRANCH  16  17
ENDBRANCH   3  15
TORSDOF 4
ENDMDL
MODEL       71
REMARK 921   NORMALIZED FREE ENERGY PREDICTED BY IDOCK:   -4.69 KCAL/MOL
REMARK 922        TOTAL FREE ENERGY PREDICTED BY IDOCK:   -6.41 KCAL/MOL
REMARK 923 INTER-LIGAND FREE ENERGY PREDICTED BY IDOCK:   -5.99 KCAL/MOL
REMARK 924 INTRA-LIGAND FREE ENERGY PREDICTED BY IDOCK:   -0.42 KCAL/MOL
REMARK 927      BINDING AFFINITY PREDICTED BY RF-SCORE:    0.00 PKD
ROOT
HETATM    1  C   UNL     1     -12.017  12.129  69.925  1.00  0.00    -0.380 C  
HETATM    2  C   UNL     1     -10.920  11.304  69.291  1.00  0.00    -0.297 C  
HETATM    3  C   UNL     1      -9.937  11.899  68.574  1.00  0.00    -0.196 C  
ENDROOT
BRANCH   2   4
HETATM    4  C   UNL     1     -10.926   9.848  69.459  1.00  0.00    -0.274 C  
HETATM    5  C   UNL     1     -10.220   9.134  70.355  1.00  0.00    -0.268 C  
BRANCH   5   6
HETATM    6  C   UNL     1     -10.263   7.675  70.488  1.00  0.00    -0.201 C  
HETATM    7  C   UNL     1     -12.584   7.519  71.503  1.00  0.00    -0.385 C  
HETATM    8  C   UNL     1      -9.653   6.876  69.587  1.00  0.00    -0.146 C  
HETATM    9  C   UNL     1      -9.665   5.377  69.668  1.00  0.00    -0.240 C  
HETATM   10  C   UNL     1      -8.906   7.362  68.362  1.00  0.00    -0.121 C  
HETATM   11  C   UNL     1     -10.590   7.794  72.990  1.00  0.00    -0.441 C  
HETATM   12  C   UNL     1     -11.089   7.141  71.674  1.00  0.00    -0.264 C  
HETATM   13  C   UNL     1     -11.018   5.602  71.892  1.00  0.00    -0.297 C  
HETATM   14  C   UNL     1     -10.395   4.718  70.823  1.00  0.00    -0.184 C  
ENDBRANCH   5   6
ENDBRANCH   2   4
BRANCH   3  15
HETATM   15  C   UNL     1      -9.835  13.338  68.390  1.00  0.00    -0.218 C  
HETATM   16  C   UNL     1     -10.699  14.122  67.727  1.00  0.00    -0.251 C  
BRANCH  16  17
HETATM   17  C   UNL     1     -10.496  15.564  67.530  1.00  0.00    -0.282 C  
HETATM   18  C   UNL     1      -9.048  17.316  66.299  1.00  0.00    -0.215 C  
HETATM   19  O   UNL     1      -7.936  17.466  65.811  1.00  0.00    -0.538 OA 
HETATM   20  C   UNL     1      -9.529  15.966  66.680  1.00  0.00    -0.263 C  
HETATM   21  C   UNL     1     -11.334  16.500  68.371  1.00  0.00    -0.209 C  
HETATM   22  O   UNL     1      -9.909  18.334  66.459  1.00  0.00    -0.326 OA 
ENDBRANCH  16  17
ENDBRANCH   3  15
TORSDOF 4
ENDMDL
MODEL       72
REMARK 921   NORMALIZED FREE ENERGY PREDICTED BY IDOCK:   -4.63 KCAL/MOL
REMARK 922        TOTAL FREE ENERGY PREDICTED BY IDOCK:   -6.33 KCAL/MOL
REMARK 923 INTER-LIGAND FREE ENERGY PREDICTED BY IDOCK:   -5.77 KCAL/MOL
REMARK 924 INTRA-LIGAND FREE ENERGY PREDICTED BY IDOCK:   -0.56 KCAL/MOL
REMARK 927      BINDING AFFINITY PREDICTED BY RF-SCORE:    0.00 PKD
ROOT
HETATM    1  C   UNL     1      -7.981  11.543  67.717  1.00  0.00    -0.128 C  
HETATM    2  C   UNL     1      -9.122  10.571  67.915  1.00  0.00    -0.136 C  
HETATM    3  C   UNL     1     -10.391  10.925  67.601  1.00  0.00    -0.232 C  
ENDROOT
BRANCH   2   4
HETATM    4  C   UNL     1      -8.845   9.235  68.450  1.00  0.00    -0.129 C  
HETATM    5  C   UNL     1      -9.590   8.547  69.335  1.00  0.00    -0.170 C  
BRANCH   5   6
HETATM    6  C   UNL     1      -9.274   7.208  69.837  1.00  0.00    -0.141 C  
HETATM    7  C   UNL     1      -8.549   6.202  67.623  1.00  0.00    -0.106 C  
HETATM    8  C   UNL     1      -8.772   7.030  71.078  1.00  0.00    -0.139 C  
HETATM    9  C   UNL     1      -8.425   5.685  71.647  1.00  0.00    -0.131 C  
HETATM   10  C   UNL     1      -8.456   8.146  72.054  1.00  0.00    -0.206 C  
HETATM   11  C   UNL     1     -10.954   6.106  68.306  1.00  0.00    -0.397 C  
HETATM   12  C   UNL     1      -9.498   6.055  68.841  1.00  0.00    -0.140 C  
HETATM   13  C   UNL     1      -9.294   4.626  69.421  1.00  0.00    -0.208 C  
HETATM   14  C   UNL     1      -8.653   4.454  70.790  1.00  0.00    -0.117 C  
ENDBRANCH   5   6
ENDBRANCH   2   4
BRANCH   3  15
HETATM   15  C   UNL     1     -10.748  12.215  67.033  1.00  0.00    -0.272 C  
HETATM   16  C   UNL     1     -10.813  12.524  65.729  1.00  0.00    -0.310 C  
BRANCH  16  17
HETATM   17  C   UNL     1     -11.124  13.871  65.230  1.00  0.00    -0.318 C  
HETATM   18  C   UNL     1     -10.631  16.385  65.576  1.00  0.00    -0.330 C  
HETATM   19  O   UNL     1     -10.281  17.182  66.437  1.00  0.00    -0.311 OA 
HETATM   20  C   UNL     1     -10.510  14.926  65.808  1.00  0.00    -0.345 C  
HETATM   21  C   UNL     1     -12.183  13.984  64.160  1.00  0.00    -0.433 C  
HETATM   22  O   UNL     1     -11.077  16.773  64.371  1.00  0.00    -1.072 OA 
ENDBRANCH  16  17
ENDBRANCH   3  15
TORSDOF 4
ENDMDL
MODEL       73
REMARK 921   NORMALIZED FREE ENERGY PREDICTED BY IDOCK:   -4.59 KCAL/MOL
REMARK 922        TOTAL FREE ENERGY PREDICTED BY IDOCK:   -6.29 KCAL/MOL
REMARK 923 INTER-LIGAND FREE ENERGY PREDICTED BY IDOCK:   -5.65 KCAL/MOL
REMARK 924 INTRA-LIGAND FREE ENERGY PREDICTED BY IDOCK:   -0.63 KCAL/MOL
REMARK 927      BINDING AFFINITY PREDICTED BY RF-SCORE:    0.00 PKD
ROOT
HETATM    1  C   UNL     1      -8.038  11.178  66.507  1.00  0.00    -0.163 C  
HETATM    2  C   UNL     1      -9.078  11.929  67.309  1.00  0.00    -0.178 C  
HETATM    3  C   UNL     1      -9.895  11.270  68.166  1.00  0.00    -0.190 C  
ENDROOT
BRANCH   2   4
HETATM    4  C   UNL     1      -9.197  13.381  67.153  1.00  0.00    -0.240 C  
HETATM    5  C   UNL     1     -10.196  14.164  67.602  1.00  0.00    -0.241 C  
BRANCH   5   6
HETATM    6  C   UNL     1     -10.269  15.616  67.426  1.00  0.00    -0.264 C  
HETATM    7  C   UNL     1      -8.482  16.229  69.121  1.00  0.00    -0.218 C  
HETATM    8  C   UNL     1     -10.547  16.159  66.221  1.00  0.00    -0.276 C  
HETATM    9  C   UNL     1     -10.631  17.637  65.978  1.00  0.00    -0.220 C  
HETATM   10  C   UNL     1     -10.778  15.370  64.948  1.00  0.00    -0.416 C  
HETATM   11  C   UNL     1     -10.864  16.000  69.851  1.00  0.00    -0.351 C  
HETATM   12  C   UNL     1      -9.952  16.454  68.680  1.00  0.00    -0.235 C  
HETATM   13  C   UNL     1     -10.165  17.987  68.526  1.00  0.00    -0.392 C  
HETATM   14  C   UNL     1     -10.398  18.579  67.145  1.00  0.00    -0.433 C  
ENDBRANCH   5   6
ENDBRANCH   2   4
BRANCH   3  15
HETATM   15  C   UNL     1      -9.820   9.838  68.407  1.00  0.00    -0.168 C  
HETATM   16  C   UNL     1     -10.533   8.884  67.789  1.00  0.00    -0.300 C  
BRANCH  16  17
HETATM   17  C   UNL     1     -10.444   7.457  68.132  1.00  0.00    -0.241 C  
HETATM   18  C   UNL     1      -9.684   5.797  69.961  1.00  0.00    -0.169 C  
HETATM   19  O   UNL     1      -8.894   5.693  70.891  1.00  0.00    -0.136 OA 
HETATM   20  C   UNL     1      -9.944   7.117  69.338  1.00  0.00    -0.164 C  
HETATM   21  C   UNL     1     -10.840   6.466  67.063  1.00  0.00    -0.464 C  
HETATM   22  O   UNL     1     -10.396   4.757  69.499  1.00  0.00    -0.196 OA 
ENDBRANCH  16  17
ENDBRANCH   3  15
TORSDOF 4
ENDMDL
MODEL       74
REMARK 921   NORMALIZED FREE ENERGY PREDICTED BY IDOCK:   -4.59 KCAL/MOL
REMARK 922        TOTAL FREE ENERGY PREDICTED BY IDOCK:   -6.28 KCAL/MOL
REMARK 923 INTER-LIGAND FREE ENERGY PREDICTED BY IDOCK:   -5.63 KCAL/MOL
REMARK 924 INTRA-LIGAND FREE ENERGY PREDICTED BY IDOCK:   -0.65 KCAL/MOL
REMARK 927      BINDING AFFINITY PREDICTED BY RF-SCORE:    0.00 PKD
ROOT
HETATM    1  C   UNL     1      -9.814   9.664  68.738  1.00  0.00    -0.173 C  
HETATM    2  C   UNL     1     -10.518  10.819  68.060  1.00  0.00    -0.225 C  
HETATM    3  C   UNL     1     -10.289  11.093  66.753  1.00  0.00    -0.284 C  
ENDROOT
BRANCH   2   4
HETATM    4  C   UNL     1     -11.455  11.642  68.828  1.00  0.00    -0.346 C  
HETATM    5  C   UNL     1     -11.172  12.404  69.900  1.00  0.00     0.067 C  
BRANCH   5   6
HETATM    6  C   UNL     1     -12.146  13.217  70.634  1.00  0.00    -0.346 C  
HETATM    7  C   UNL     1     -12.506  14.975  68.840  1.00  0.00     0.109 C  
HETATM    8  C   UNL     1     -13.028  12.648  71.484  1.00  0.00    -0.380 C  
HETATM    9  C   UNL     1     -14.050  13.427  72.260  1.00  0.00    -0.515 C  
HETATM   10  C   UNL     1     -13.139  11.160  71.750  1.00  0.00    -0.536 C  
HETATM   11  C   UNL     1     -10.685  15.275  70.530  1.00  0.00    -0.247 C  
HETATM   12  C   UNL     1     -12.121  14.725  70.322  1.00  0.00    -0.380 C  
HETATM   13  C   UNL     1     -13.059  15.601  71.202  1.00  0.00    -0.523 C  
HETATM   14  C   UNL     1     -14.096  14.933  72.091  1.00  0.00    -0.616 C  
ENDBRANCH   5   6
ENDBRANCH   2   4
BRANCH   3  15
HETATM   15  C   UNL     1      -9.404  10.305  65.910  1.00  0.00    -0.226 C  
HETATM   16  C   UNL     1      -9.558  10.057  64.601  1.00  0.00    -0.363 C  
BRANCH  16  17
HETATM   17  C   UNL     1      -8.651   9.198  63.827  1.00  0.00    -0.185 C  
HETATM   18  C   UNL     1      -6.551   7.699  63.996  1.00  0.00    -0.053 C  
HETATM   19  O   UNL     1      -5.538   7.544  64.664  1.00  0.00    -0.033 OA 
HETATM   20  C   UNL     1      -7.644   8.578  64.477  1.00  0.00    -0.115 C  
HETATM   21  C   UNL     1      -8.859   9.144  62.332  1.00  0.00    -0.212 C  
HETATM   22  O   UNL     1      -6.761   7.049  62.840  1.00  0.00    -0.049 OA 
ENDBRANCH  16  17
ENDBRANCH   3  15
TORSDOF 4
ENDMDL
MODEL       75
REMARK 921   NORMALIZED FREE ENERGY PREDICTED BY IDOCK:   -4.58 KCAL/MOL
REMARK 922        TOTAL FREE ENERGY PREDICTED BY IDOCK:   -6.27 KCAL/MOL
REMARK 923 INTER-LIGAND FREE ENERGY PREDICTED BY IDOCK:   -5.64 KCAL/MOL
REMARK 924 INTRA-LIGAND FREE ENERGY PREDICTED BY IDOCK:   -0.64 KCAL/MOL
REMARK 927      BINDING AFFINITY PREDICTED BY RF-SCORE:    0.00 PKD
ROOT
HETATM    1  C   UNL     1     -10.512  10.758  64.376  1.00  0.00    -0.344 C  
HETATM    2  C   UNL     1     -10.366  11.047  65.854  1.00  0.00    -0.315 C  
HETATM    3  C   UNL     1      -9.912  10.091  66.701  1.00  0.00    -0.274 C  
ENDROOT
BRANCH   2   4
HETATM    4  C   UNL     1     -10.718  12.373  66.367  1.00  0.00    -0.277 C  
HETATM    5  C   UNL     1      -9.963  13.164  67.152  1.00  0.00    -0.236 C  
BRANCH   5   6
HETATM    6  C   UNL     1     -10.359  14.489  67.637  1.00  0.00    -0.237 C  
HETATM    7  C   UNL     1     -10.345  15.665  65.388  1.00  0.00    -0.421 C  
HETATM    8  C   UNL     1     -11.200  14.625  68.684  1.00  0.00    -0.293 C  
HETATM    9  C   UNL     1     -11.643  15.954  69.223  1.00  0.00    -0.372 C  
HETATM   10  C   UNL     1     -11.840  13.476  69.437  1.00  0.00    -0.389 C  
HETATM   11  C   UNL     1      -8.253  15.570  66.755  1.00  0.00    -0.277 C  
HETATM   12  C   UNL     1      -9.798  15.682  66.839  1.00  0.00    -0.245 C  
HETATM   13  C   UNL     1     -10.106  17.085  67.438  1.00  0.00    -0.291 C  
HETATM   14  C   UNL     1     -11.118  17.216  68.565  1.00  0.00    -0.092 C  
ENDBRANCH   5   6
ENDBRANCH   2   4
BRANCH   3  15
HETATM   15  C   UNL     1      -9.506   8.763  66.270  1.00  0.00    -0.300 C  
HETATM   16  C   UNL     1      -9.738   7.609  66.913  1.00  0.00    -0.277 C  
BRANCH  16  17
HETATM   17  C   UNL     1      -9.242   6.307  66.444  1.00  0.00    -0.173 C  
HETATM   18  C   UNL     1      -9.339   3.761  66.880  1.00  0.00    -0.193 C  
HETATM   19  O   UNL     1      -9.539   2.950  67.774  1.00  0.00    -0.189 OA 
HETATM   20  C   UNL     1      -9.672   5.193  67.072  1.00  0.00    -0.173 C  
HETATM   21  C   UNL     1      -8.208   6.318  65.343  1.00  0.00    -0.142 C  
HETATM   22  O   UNL     1      -8.873   3.403  65.672  1.00  0.00    -0.123 OA 
ENDBRANCH  16  17
ENDBRANCH   3  15
TORSDOF 4
ENDMDL
MODEL       76
REMARK 921   NORMALIZED FREE ENERGY PREDICTED BY IDOCK:   -4.57 KCAL/MOL
REMARK 922        TOTAL FREE ENERGY PREDICTED BY IDOCK:   -6.26 KCAL/MOL
REMARK 923 INTER-LIGAND FREE ENERGY PREDICTED BY IDOCK:   -5.67 KCAL/MOL
REMARK 924 INTRA-LIGAND FREE ENERGY PREDICTED BY IDOCK:   -0.59 KCAL/MOL
REMARK 927      BINDING AFFINITY PREDICTED BY RF-SCORE:    0.00 PKD
ROOT
HETATM    1  C   UNL     1     -10.985   6.644  67.479  1.00  0.00    -0.416 C  
HETATM    2  C   UNL     1     -10.359   7.445  68.599  1.00  0.00    -0.215 C  
HETATM    3  C   UNL     1     -10.238   8.791  68.498  1.00  0.00    -0.220 C  
ENDROOT
BRANCH   2   4
HETATM    4  C   UNL     1      -9.884   6.755  69.801  1.00  0.00    -0.175 C  
HETATM    5  C   UNL     1      -9.620   7.306  71.000  1.00  0.00    -0.158 C  
BRANCH   5   6
HETATM    6  C   UNL     1      -9.151   6.571  72.177  1.00  0.00    -0.139 C  
HETATM    7  C   UNL     1      -7.444   8.280  72.956  1.00  0.00    -0.158 C  
HETATM    8  C   UNL     1      -9.990   5.792  72.893  1.00  0.00    -0.194 C  
HETATM    9  C   UNL     1      -9.568   5.019  74.108  1.00  0.00    -0.141 C  
HETATM   10  C   UNL     1     -11.466   5.612  72.602  1.00  0.00    -0.339 C  
HETATM   11  C   UNL     1      -6.772   6.500  71.331  1.00  0.00    -0.058 C  
HETATM   12  C   UNL     1      -7.675   6.799  72.556  1.00  0.00    -0.096 C  
HETATM   13  C   UNL     1      -7.143   5.913  73.720  1.00  0.00    -0.082 C  
HETATM   14  C   UNL     1      -8.122   5.107  74.559  1.00  0.00    -0.101 C  
ENDBRANCH   5   6
ENDBRANCH   2   4
BRANCH   3  15
HETATM   15  C   UNL     1     -10.715   9.558  67.359  1.00  0.00    -0.297 C  
HETATM   16  C   UNL     1     -10.283  10.767  66.972  1.00  0.00    -0.261 C  
BRANCH  16  17
HETATM   17  C   UNL     1     -10.859  11.509  65.840  1.00  0.00    -0.316 C  
HETATM   18  C   UNL     1     -12.352  13.523  65.214  1.00  0.00    -0.467 C  
HETATM   19  O   UNL     1     -13.261  14.215  65.655  1.00  0.00    -0.615 OA 
HETATM   20  C   UNL     1     -11.609  12.599  66.103  1.00  0.00    -0.445 C  
HETATM   21  C   UNL     1     -10.641  10.938  64.459  1.00  0.00    -0.335 C  
HETATM   22  O   UNL     1     -11.939  13.601  63.939  1.00  0.00    -0.445 OA 
ENDBRANCH  16  17
ENDBRANCH   3  15
TORSDOF 4
ENDMDL
MODEL       77
REMARK 921   NORMALIZED FREE ENERGY PREDICTED BY IDOCK:   -4.55 KCAL/MOL
REMARK 922        TOTAL FREE ENERGY PREDICTED BY IDOCK:   -6.23 KCAL/MOL
REMARK 923 INTER-LIGAND FREE ENERGY PREDICTED BY IDOCK:   -5.68 KCAL/MOL
REMARK 924 INTRA-LIGAND FREE ENERGY PREDICTED BY IDOCK:   -0.55 KCAL/MOL
REMARK 927      BINDING AFFINITY PREDICTED BY RF-SCORE:    0.00 PKD
ROOT
HETATM    1  C   UNL     1     -10.673   7.028  67.632  1.00  0.00    -0.331 C  
HETATM    2  C   UNL     1     -10.078   7.939  68.683  1.00  0.00    -0.210 C  
HETATM    3  C   UNL     1     -10.102   9.284  68.523  1.00  0.00    -0.211 C  
ENDROOT
BRANCH   2   4
HETATM    4  C   UNL     1      -9.472   7.354  69.882  1.00  0.00    -0.153 C  
HETATM    5  C   UNL     1      -9.114   6.070  70.063  1.00  0.00    -0.152 C  
BRANCH   5   6
HETATM    6  C   UNL     1      -8.505   5.532  71.283  1.00  0.00    -0.127 C  
HETATM    7  C   UNL     1      -9.691   3.289  71.265  1.00  0.00    -0.222 C  
HETATM    8  C   UNL     1      -7.235   5.841  71.622  1.00  0.00    -0.086 C  
HETATM    9  C   UNL     1      -6.557   5.319  72.855  1.00  0.00    -0.069 C  
HETATM   10  C   UNL     1      -6.308   6.719  70.805  1.00  0.00    -0.043 C  
HETATM   11  C   UNL     1     -10.744   5.245  72.416  1.00  0.00    -0.286 C  
HETATM   12  C   UNL     1      -9.387   4.564  72.094  1.00  0.00    -0.175 C  
HETATM   13  C   UNL     1      -8.791   4.105  73.456  1.00  0.00    -0.093 C  
HETATM   14  C   UNL     1      -7.334   4.399  73.777  1.00  0.00    -0.076 C  
ENDBRANCH   5   6
ENDBRANCH   2   4
BRANCH   3  15
HETATM   15  C   UNL     1     -10.715   9.947  67.383  1.00  0.00    -0.323 C  
HETATM   16  C   UNL     1     -10.183  10.938  66.653  1.00  0.00    -0.282 C  
BRANCH  16  17
HETATM   17  C   UNL     1     -10.891  11.602  65.549  1.00  0.00    -0.334 C  
HETATM   18  C   UNL     1     -12.589  13.467  64.986  1.00  0.00    -0.391 C  
HETATM   19  O   UNL     1     -13.524  14.090  65.473  1.00  0.00    -0.677 OA 
HETATM   20  C   UNL     1     -11.714  12.631  65.841  1.00  0.00    -0.470 C  
HETATM   21  C   UNL     1     -10.714  11.019  64.167  1.00  0.00    -0.344 C  
HETATM   22  O   UNL     1     -12.267  13.550  63.685  1.00  0.00    -0.625 OA 
ENDBRANCH  16  17
ENDBRANCH   3  15
TORSDOF 4
ENDMDL
MODEL       78
REMARK 921   NORMALIZED FREE ENERGY PREDICTED BY IDOCK:   -4.54 KCAL/MOL
REMARK 922        TOTAL FREE ENERGY PREDICTED BY IDOCK:   -6.22 KCAL/MOL
REMARK 923 INTER-LIGAND FREE ENERGY PREDICTED BY IDOCK:   -5.64 KCAL/MOL
REMARK 924 INTRA-LIGAND FREE ENERGY PREDICTED BY IDOCK:   -0.59 KCAL/MOL
REMARK 927      BINDING AFFINITY PREDICTED BY RF-SCORE:    0.00 PKD
ROOT
HETATM    1  C   UNL     1     -11.665  11.683  68.212  1.00  0.00    -0.374 C  
HETATM    2  C   UNL     1     -11.126  10.846  67.073  1.00  0.00    -0.271 C  
HETATM    3  C   UNL     1     -10.989  11.375  65.834  1.00  0.00    -0.268 C  
ENDROOT
BRANCH   2   4
HETATM    4  C   UNL     1     -10.750   9.451  67.321  1.00  0.00    -0.258 C  
HETATM    5  C   UNL     1      -9.733   9.011  68.085  1.00  0.00    -0.172 C  
BRANCH   5   6
HETATM    6  C   UNL     1      -9.398   7.602  68.306  1.00  0.00    -0.145 C  
HETATM    7  C   UNL     1      -6.926   7.775  67.758  1.00  0.00    -0.081 C  
HETATM    8  C   UNL     1     -10.030   6.876  69.253  1.00  0.00    -0.164 C  
HETATM    9  C   UNL     1      -9.728   5.432  69.529  1.00  0.00    -0.238 C  
HETATM   10  C   UNL     1     -11.095   7.412  70.189  1.00  0.00    -0.265 C  
HETATM   11  C   UNL     1      -8.575   7.302  65.936  1.00  0.00    -0.159 C  
HETATM   12  C   UNL     1      -8.257   7.046  67.433  1.00  0.00    -0.119 C  
HETATM   13  C   UNL     1      -7.998   5.518  67.572  1.00  0.00    -0.101 C  
HETATM   14  C   UNL     1      -8.663   4.742  68.698  1.00  0.00    -0.111 C  
ENDBRANCH   5   6
ENDBRANCH   2   4
BRANCH   3  15
HETATM   15  C   UNL     1     -11.303  12.757  65.511  1.00  0.00    -0.347 C  
HETATM   16  C   UNL     1     -10.497  13.818  65.666  1.00  0.00    -0.312 C  
BRANCH  16  17
HETATM   17  C   UNL     1     -10.909  15.198  65.373  1.00  0.00    -0.393 C  
HETATM   18  C   UNL     1     -10.479  17.674  65.979  1.00  0.00    -0.278 C  
HETATM   19  O   UNL     1     -10.072  18.379  66.894  1.00  0.00    -0.328 OA 
HETATM   20  C   UNL     1     -10.279  16.205  66.014  1.00  0.00    -0.374 C  
HETATM   21  C   UNL     1     -12.078  15.385  64.434  1.00  0.00    -0.205 C  
HETATM   22  O   UNL     1     -11.063  18.181  64.882  1.00  0.00    -0.673 OA 
ENDBRANCH  16  17
ENDBRANCH   3  15
TORSDOF 4
ENDMDL
MODEL       79
REMARK 921   NORMALIZED FREE ENERGY PREDICTED BY IDOCK:   -4.51 KCAL/MOL
REMARK 922        TOTAL FREE ENERGY PREDICTED BY IDOCK:   -6.18 KCAL/MOL
REMARK 923 INTER-LIGAND FREE ENERGY PREDICTED BY IDOCK:   -5.56 KCAL/MOL
REMARK 924 INTRA-LIGAND FREE ENERGY PREDICTED BY IDOCK:   -0.62 KCAL/MOL
REMARK 927      BINDING AFFINITY PREDICTED BY RF-SCORE:    0.00 PKD
ROOT
HETATM    1  C   UNL     1     -10.869   8.669  68.287  1.00  0.00    -0.005 C  
HETATM    2  C   UNL     1     -10.476   9.634  69.383  1.00  0.00    -0.236 C  
HETATM    3  C   UNL     1     -10.131   9.178  70.611  1.00  0.00    -0.307 C  
ENDROOT
BRANCH   2   4
HETATM    4  C   UNL     1     -10.470  11.073  69.108  1.00  0.00    -0.238 C  
HETATM    5  C   UNL     1     -11.458  11.794  68.545  1.00  0.00    -0.353 C  
BRANCH   5   6
HETATM    6  C   UNL     1     -11.407  13.236  68.294  1.00  0.00    -0.335 C  
HETATM    7  C   UNL     1     -12.175  13.163  65.876  1.00  0.00    -0.497 C  
HETATM    8  C   UNL     1     -11.693  14.124  69.270  1.00  0.00    -0.368 C  
HETATM    9  C   UNL     1     -11.661  15.611  69.072  1.00  0.00    -0.396 C  
HETATM   10  C   UNL     1     -12.115  13.757  70.679  1.00  0.00    -0.405 C  
HETATM   11  C   UNL     1      -9.740  12.970  66.415  1.00  0.00    -0.268 C  
HETATM   12  C   UNL     1     -11.067  13.646  66.848  1.00  0.00    -0.314 C  
HETATM   13  C   UNL     1     -10.878  15.174  66.618  1.00  0.00    -0.318 C  
HETATM   14  C   UNL     1     -11.283  16.154  67.707  1.00  0.00    -0.199 C  
ENDBRANCH   5   6
ENDBRANCH   2   4
BRANCH   3  15
HETATM   15  C   UNL     1     -10.075   7.767  70.958  1.00  0.00    -0.199 C  
HETATM   16  C   UNL     1      -8.982   6.989  70.971  1.00  0.00    -0.151 C  
BRANCH  16  17
HETATM   17  C   UNL     1      -9.015   5.551  71.275  1.00  0.00    -0.153 C  
HETATM   18  C   UNL     1     -10.364   3.708  72.484  1.00  0.00    -0.127 C  
HETATM   19  O   UNL     1     -11.150   3.548  73.409  1.00  0.00    -0.211 OA 
HETATM   20  C   UNL     1     -10.057   5.069  71.984  1.00  0.00    -0.255 C  
HETATM   21  C   UNL     1      -7.823   4.728  70.845  1.00  0.00    -0.081 C  
HETATM   22  O   UNL     1      -9.791   2.680  71.838  1.00  0.00    -0.146 OA 
ENDBRANCH  16  17
ENDBRANCH   3  15
TORSDOF 4
ENDMDL
MODEL       80
REMARK 921   NORMALIZED FREE ENERGY PREDICTED BY IDOCK:   -4.49 KCAL/MOL
REMARK 922        TOTAL FREE ENERGY PREDICTED BY IDOCK:   -6.16 KCAL/MOL
REMARK 923 INTER-LIGAND FREE ENERGY PREDICTED BY IDOCK:   -5.56 KCAL/MOL
REMARK 924 INTRA-LIGAND FREE ENERGY PREDICTED BY IDOCK:   -0.60 KCAL/MOL
REMARK 927      BINDING AFFINITY PREDICTED BY RF-SCORE:    0.00 PKD
ROOT
HETATM    1  C   UNL     1      -9.320  15.247  69.324  1.00  0.00    -0.239 C  
HETATM    2  C   UNL     1      -8.249  14.568  68.500  1.00  0.00    -0.154 C  
HETATM    3  C   UNL     1      -7.109  15.225  68.174  1.00  0.00    -0.126 C  
ENDROOT
BRANCH   2   4
HETATM    4  C   UNL     1      -8.451  13.187  68.054  1.00  0.00    -0.181 C  
HETATM    5  C   UNL     1      -9.592  12.475  68.116  1.00  0.00    -0.215 C  
BRANCH   5   6
HETATM    6  C   UNL     1      -9.746  11.094  67.652  1.00  0.00    -0.184 C  
HETATM    7  C   UNL     1     -11.144  10.261  69.599  1.00  0.00    -0.323 C  
HETATM    8  C   UNL     1      -9.832  10.807  66.335  1.00  0.00    -0.254 C  
HETATM    9  C   UNL     1      -9.994   9.415  65.800  1.00  0.00    -0.278 C  
HETATM   10  C   UNL     1      -9.811  11.834  65.221  1.00  0.00    -0.267 C  
HETATM   11  C   UNL     1      -8.648  10.150  69.722  1.00  0.00    -0.148 C  
HETATM   12  C   UNL     1      -9.860  10.030  68.761  1.00  0.00    -0.173 C  
HETATM   13  C   UNL     1      -9.884   8.555  68.265  1.00  0.00    -0.190 C  
HETATM   14  C   UNL     1     -10.061   8.262  66.784  1.00  0.00    -0.373 C  
ENDBRANCH   5   6
ENDBRANCH   2   4
BRANCH   3  15
HETATM   15  C   UNL     1      -6.813  16.581  68.606  1.00  0.00    -0.160 C  
HETATM   16  C   UNL     1      -6.483  17.616  67.819  1.00  0.00    -0.181 C  
BRANCH  16  17
HETATM   17  C   UNL     1      -6.137  18.948  68.336  1.00  0.00    -0.228 C  
HETATM   18  C   UNL     1      -5.879  20.342  70.498  1.00  0.00    -0.336 C  
HETATM   19  O   UNL     1      -6.284  20.402  71.651  1.00  0.00    -0.621 OA 
HETATM   20  C   UNL     1      -6.134  19.137  69.672  1.00  0.00    -0.295 C  
HETATM   21  C   UNL     1      -5.896  20.041  67.321  1.00  0.00    -0.188 C  
HETATM   22  O   UNL     1      -5.140  21.314  69.940  1.00  0.00    -0.445 OA 
ENDBRANCH  16  17
ENDBRANCH   3  15
TORSDOF 4
ENDMDL
MODEL       81
REMARK 921   NORMALIZED FREE ENERGY PREDICTED BY IDOCK:   -4.48 KCAL/MOL
REMARK 922        TOTAL FREE ENERGY PREDICTED BY IDOCK:   -6.14 KCAL/MOL
REMARK 923 INTER-LIGAND FREE ENERGY PREDICTED BY IDOCK:   -5.65 KCAL/MOL
REMARK 924 INTRA-LIGAND FREE ENERGY PREDICTED BY IDOCK:   -0.50 KCAL/MOL
REMARK 927      BINDING AFFINITY PREDICTED BY RF-SCORE:    0.00 PKD
ROOT
HETATM    1  C   UNL     1     -10.702   9.342  70.503  1.00  0.00    -0.335 C  
HETATM    2  C   UNL     1     -10.565   8.082  69.679  1.00  0.00    -0.223 C  
HETATM    3  C   UNL     1     -10.299   8.152  68.352  1.00  0.00    -0.236 C  
ENDROOT
BRANCH   2   4
HETATM    4  C   UNL     1     -10.720   6.777  70.327  1.00  0.00    -0.284 C  
HETATM    5  C   UNL     1      -9.836   6.165  71.137  1.00  0.00    -0.210 C  
BRANCH   5   6
HETATM    6  C   UNL     1     -10.038   4.858  71.767  1.00  0.00    -0.267 C  
HETATM    7  C   UNL     1     -12.297   5.358  72.811  1.00  0.00     0.225 C  
HETATM    8  C   UNL     1      -9.579   3.727  71.189  1.00  0.00    -0.246 C  
HETATM    9  C   UNL     1      -9.759   2.361  71.784  1.00  0.00    -0.220 C  
HETATM   10  C   UNL     1      -8.855   3.666  69.859  1.00  0.00    -0.151 C  
HETATM   11  C   UNL     1     -10.200   5.865  74.078  1.00  0.00    -0.279 C  
HETATM   12  C   UNL     1     -10.849   4.872  73.077  1.00  0.00    -0.331 C  
HETATM   13  C   UNL     1     -10.943   3.505  73.814  1.00  0.00    -0.308 C  
HETATM   14  C   UNL     1     -10.490   2.237  73.108  1.00  0.00    -0.234 C  
ENDBRANCH   5   6
ENDBRANCH   2   4
BRANCH   3  15
HETATM   15  C   UNL     1     -10.094   9.402  67.639  1.00  0.00    -0.262 C  
HETATM   16  C   UNL     1     -11.043  10.273  67.263  1.00  0.00    -0.215 C  
BRANCH  16  17
HETATM   17  C   UNL     1     -10.764  11.491  66.489  1.00  0.00    -0.318 C  
HETATM   18  C   UNL     1     -10.232  12.376  64.119  1.00  0.00    -0.351 C  
HETATM   19  O   UNL     1      -9.737  12.027  63.056  1.00  0.00    -0.383 OA 
HETATM   20  C   UNL     1     -10.569  11.374  65.159  1.00  0.00    -0.352 C  
HETATM   21  C   UNL     1     -10.624  12.783  67.260  1.00  0.00    -0.245 C  
HETATM   22  O   UNL     1     -10.552  13.654  64.381  1.00  0.00    -0.423 OA 
ENDBRANCH  16  17
ENDBRANCH   3  15
TORSDOF 4
ENDMDL
MODEL       82
REMARK 921   NORMALIZED FREE ENERGY PREDICTED BY IDOCK:   -4.47 KCAL/MOL
REMARK 922        TOTAL FREE ENERGY PREDICTED BY IDOCK:   -6.14 KCAL/MOL
REMARK 923 INTER-LIGAND FREE ENERGY PREDICTED BY IDOCK:   -5.54 KCAL/MOL
REMARK 924 INTRA-LIGAND FREE ENERGY PREDICTED BY IDOCK:   -0.60 KCAL/MOL
REMARK 927      BINDING AFFINITY PREDICTED BY RF-SCORE:    0.00 PKD
ROOT
HETATM    1  C   UNL     1      -8.640  12.092  67.069  1.00  0.00    -0.185 C  
HETATM    2  C   UNL     1      -9.807  12.864  67.643  1.00  0.00    -0.211 C  
HETATM    3  C   UNL     1     -10.816  12.218  68.277  1.00  0.00    -0.254 C  
ENDROOT
BRANCH   2   4
HETATM    4  C   UNL     1      -9.841  14.323  67.511  1.00  0.00    -0.231 C  
HETATM    5  C   UNL     1      -9.055  15.082  66.725  1.00  0.00    -0.287 C  
BRANCH   5   6
HETATM    6  C   UNL     1      -9.129  16.542  66.623  1.00  0.00    -0.283 C  
HETATM    7  C   UNL     1      -6.631  16.987  66.635  1.00  0.00    -0.272 C  
HETATM    8  C   UNL     1     -10.116  17.142  65.923  1.00  0.00    -0.257 C  
HETATM    9  C   UNL     1     -10.242  18.630  65.779  1.00  0.00    -0.135 C  
HETATM   10  C   UNL     1     -11.204  16.413  65.161  1.00  0.00    -0.070 C  
HETATM   11  C   UNL     1      -7.886  16.876  68.797  1.00  0.00    -0.250 C  
HETATM   12  C   UNL     1      -7.988  17.314  67.312  1.00  0.00    -0.207 C  
HETATM   13  C   UNL     1      -8.144  18.862  67.320  1.00  0.00    -0.277 C  
HETATM   14  C   UNL     1      -9.214  19.515  66.459  1.00  0.00    -0.424 C  
ENDBRANCH   5   6
ENDBRANCH   2   4
BRANCH   3  15
HETATM   15  C   UNL     1     -10.844  10.779  68.484  1.00  0.00    -0.270 C  
HETATM   16  C   UNL     1     -10.447  10.122  69.584  1.00  0.00    -0.282 C  
BRANCH  16  17
HETATM   17  C   UNL     1     -10.449   8.656  69.696  1.00  0.00    -0.220 C  
HETATM   18  C   UNL     1     -11.643   6.654  70.813  1.00  0.00    -0.376 C  
HETATM   19  O   UNL     1     -12.305   6.364  71.801  1.00  0.00    -0.333 OA 
HETATM   20  C   UNL     1     -11.394   8.073  70.462  1.00  0.00    -0.229 C  
HETATM   21  C   UNL     1      -9.327   7.910  69.012  1.00  0.00    -0.151 C  
HETATM   22  O   UNL     1     -11.163   5.727  69.969  1.00  0.00    -0.335 OA 
ENDBRANCH  16  17
ENDBRANCH   3  15
TORSDOF 4
ENDMDL
MODEL       83
REMARK 921   NORMALIZED FREE ENERGY PREDICTED BY IDOCK:   -4.41 KCAL/MOL
REMARK 922        TOTAL FREE ENERGY PREDICTED BY IDOCK:   -6.07 KCAL/MOL
REMARK 923 INTER-LIGAND FREE ENERGY PREDICTED BY IDOCK:   -5.51 KCAL/MOL
REMARK 924 INTRA-LIGAND FREE ENERGY PREDICTED BY IDOCK:   -0.56 KCAL/MOL
REMARK 927      BINDING AFFINITY PREDICTED BY RF-SCORE:    0.00 PKD
ROOT
HETATM    1  C   UNL     1     -10.916   9.588  70.753  1.00  0.00    -0.389 C  
HETATM    2  C   UNL     1     -10.715   8.539  69.682  1.00  0.00    -0.200 C  
HETATM    3  C   UNL     1     -10.574   8.898  68.383  1.00  0.00    -0.190 C  
ENDROOT
BRANCH   2   4
HETATM    4  C   UNL     1     -10.671   7.124  70.060  1.00  0.00    -0.268 C  
HETATM    5  C   UNL     1      -9.709   6.505  70.770  1.00  0.00    -0.194 C  
BRANCH   5   6
HETATM    6  C   UNL     1      -9.712   5.084  71.128  1.00  0.00    -0.241 C  
HETATM    7  C   UNL     1      -7.493   4.484  70.054  1.00  0.00    -0.054 C  
HETATM    8  C   UNL     1     -10.261   4.659  72.286  1.00  0.00    -0.256 C  
HETATM    9  C   UNL     1     -10.291   3.219  72.708  1.00  0.00    -0.237 C  
HETATM   10  C   UNL     1     -10.887   5.560  73.332  1.00  0.00    -0.332 C  
HETATM   11  C   UNL     1      -9.600   4.354  68.713  1.00  0.00    -0.224 C  
HETATM   12  C   UNL     1      -9.005   4.147  70.130  1.00  0.00    -0.150 C  
HETATM   13  C   UNL     1      -9.130   2.628  70.443  1.00  0.00    -0.180 C  
HETATM   14  C   UNL     1      -9.679   2.180  71.788  1.00  0.00    -0.214 C  
ENDBRANCH   5   6
ENDBRANCH   2   4
BRANCH   3  15
HETATM   15  C   UNL     1     -10.569  10.279  67.927  1.00  0.00    -0.282 C  
HETATM   16  C   UNL     1     -10.899  10.718  66.704  1.00  0.00    -0.228 C  
BRANCH  16  17
HETATM   17  C   UNL     1     -10.810  12.128  66.299  1.00  0.00    -0.317 C  
HETATM   18  C   UNL     1      -9.380  14.271  66.512  1.00  0.00    -0.271 C  
HETATM   19  O   UNL     1      -8.578  14.816  67.259  1.00  0.00    -0.185 OA 
HETATM   20  C   UNL     1      -9.743  12.847  66.706  1.00  0.00    -0.246 C  
HETATM   21  C   UNL     1     -11.975  12.699  65.525  1.00  0.00    -0.509 C  
HETATM   22  O   UNL     1      -9.923  14.897  65.456  1.00  0.00    -0.341 OA 
ENDBRANCH  16  17
ENDBRANCH   3  15
TORSDOF 4
ENDMDL
MODEL       84
REMARK 921   NORMALIZED FREE ENERGY PREDICTED BY IDOCK:   -4.38 KCAL/MOL
REMARK 922        TOTAL FREE ENERGY PREDICTED BY IDOCK:   -6.02 KCAL/MOL
REMARK 923 INTER-LIGAND FREE ENERGY PREDICTED BY IDOCK:   -5.99 KCAL/MOL
REMARK 924 INTRA-LIGAND FREE ENERGY PREDICTED BY IDOCK:   -0.04 KCAL/MOL
REMARK 927      BINDING AFFINITY PREDICTED BY RF-SCORE:    0.00 PKD
ROOT
HETATM    1  C   UNL     1      -9.105  11.795  68.250  1.00  0.00    -0.187 C  
HETATM    2  C   UNL     1     -10.128  12.880  68.507  1.00  0.00    -0.193 C  
HETATM    3  C   UNL     1     -11.301  12.589  69.119  1.00  0.00    -0.331 C  
ENDROOT
BRANCH   2   4
HETATM    4  C   UNL     1      -9.840  14.254  68.088  1.00  0.00    -0.226 C  
HETATM    5  C   UNL     1      -8.628  14.826  67.965  1.00  0.00    -0.166 C  
BRANCH   5   6
HETATM    6  C   UNL     1      -8.391  16.207  67.537  1.00  0.00    -0.175 C  
HETATM    7  C   UNL     1      -5.867  16.043  67.330  1.00  0.00    -0.140 C  
HETATM    8  C   UNL     1      -9.285  16.861  66.766  1.00  0.00    -0.266 C  
HETATM    9  C   UNL     1      -9.096  18.273  66.293  1.00  0.00    -0.205 C  
HETATM   10  C   UNL     1     -10.577  16.266  66.242  1.00  0.00    -0.256 C  
HETATM   11  C   UNL     1      -6.897  16.689  69.516  1.00  0.00    -0.157 C  
HETATM   12  C   UNL     1      -7.045  16.816  67.977  1.00  0.00    -0.159 C  
HETATM   13  C   UNL     1      -6.857  18.323  67.640  1.00  0.00    -0.203 C  
HETATM   14  C   UNL     1      -7.838  19.013  66.705  1.00  0.00    -0.274 C  
ENDBRANCH   5   6
ENDBRANCH   2   4
BRANCH   3  15
HETATM   15  C   UNL     1     -11.650  11.262  69.598  1.00  0.00    -0.401 C  
HETATM   16  C   UNL     1     -12.185  10.957  70.790  1.00  0.00    -0.483 C  
BRANCH  16  17
HETATM   17  C   UNL     1     -12.455   9.580  71.229  1.00  0.00    -0.432 C  
HETATM   18  C   UNL     1     -11.798   7.109  70.855  1.00  0.00    -0.339 C  
HETATM   19  O   UNL     1     -11.341   6.358  70.003  1.00  0.00    -0.370 OA 
HETATM   20  C   UNL     1     -11.743   8.579  70.672  1.00  0.00    -0.161 C  
HETATM   21  C   UNL     1     -13.583   9.378  72.213  1.00  0.00    -0.532 C  
HETATM   22  O   UNL     1     -12.309   6.660  72.013  1.00  0.00    -0.330 OA 
ENDBRANCH  16  17
ENDBRANCH   3  15
TORSDOF 4
ENDMDL
MODEL       85
REMARK 921   NORMALIZED FREE ENERGY PREDICTED BY IDOCK:   -4.36 KCAL/MOL
REMARK 922        TOTAL FREE ENERGY PREDICTED BY IDOCK:   -6.00 KCAL/MOL
REMARK 923 INTER-LIGAND FREE ENERGY PREDICTED BY IDOCK:   -5.36 KCAL/MOL
REMARK 924 INTRA-LIGAND FREE ENERGY PREDICTED BY IDOCK:   -0.64 KCAL/MOL
REMARK 927      BINDING AFFINITY PREDICTED BY RF-SCORE:    0.00 PKD
ROOT
HETATM    1  C   UNL     1     -10.497  11.091  64.441  1.00  0.00    -0.422 C  
HETATM    2  C   UNL     1     -10.314  11.245  65.935  1.00  0.00    -0.304 C  
HETATM    3  C   UNL     1      -9.963  10.183  66.699  1.00  0.00    -0.272 C  
ENDROOT
BRANCH   2   4
HETATM    4  C   UNL     1     -10.518  12.558  66.553  1.00  0.00    -0.258 C  
HETATM    5  C   UNL     1      -9.774  13.119  67.524  1.00  0.00    -0.213 C  
BRANCH   5   6
HETATM    6  C   UNL     1     -10.015  14.440  68.110  1.00  0.00    -0.223 C  
HETATM    7  C   UNL     1      -9.400  15.809  66.063  1.00  0.00    -0.384 C  
HETATM    8  C   UNL     1     -10.994  14.630  69.021  1.00  0.00    -0.269 C  
HETATM    9  C   UNL     1     -11.290  15.959  69.652  1.00  0.00    -0.342 C  
HETATM   10  C   UNL     1     -11.945  13.556  69.508  1.00  0.00    -0.390 C  
HETATM   11  C   UNL     1      -7.632  15.180  67.718  1.00  0.00    -0.171 C  
HETATM   12  C   UNL     1      -9.125  15.577  67.572  1.00  0.00    -0.198 C  
HETATM   13  C   UNL     1      -9.288  16.946  68.293  1.00  0.00    -0.248 C  
HETATM   14  C   UNL     1     -10.447  17.156  69.255  1.00  0.00    -0.267 C  
ENDBRANCH   5   6
ENDBRANCH   2   4
BRANCH   3  15
HETATM   15  C   UNL     1      -9.706   8.857  66.162  1.00  0.00    -0.338 C  
HETATM   16  C   UNL     1      -9.786   7.695  66.828  1.00  0.00    -0.307 C  
BRANCH  16  17
HETATM   17  C   UNL     1      -9.451   6.394  66.230  1.00  0.00    -0.133 C  
HETATM   18  C   UNL     1      -8.057   5.249  64.379  1.00  0.00    -0.121 C  
HETATM   19  O   UNL     1      -7.558   5.469  63.283  1.00  0.00    -0.062 OA 
HETATM   20  C   UNL     1      -8.567   6.365  65.211  1.00  0.00    -0.051 C  
HETATM   21  C   UNL     1     -10.197   5.185  66.745  1.00  0.00    -0.289 C  
HETATM   22  O   UNL     1      -8.117   4.018  64.911  1.00  0.00    -0.092 OA 
ENDBRANCH  16  17
ENDBRANCH   3  15
TORSDOF 4
ENDMDL
MODEL       86
REMARK 921   NORMALIZED FREE ENERGY PREDICTED BY IDOCK:   -4.33 KCAL/MOL
REMARK 922        TOTAL FREE ENERGY PREDICTED BY IDOCK:   -5.97 KCAL/MOL
REMARK 923 INTER-LIGAND FREE ENERGY PREDICTED BY IDOCK:   -5.32 KCAL/MOL
REMARK 924 INTRA-LIGAND FREE ENERGY PREDICTED BY IDOCK:   -0.65 KCAL/MOL
REMARK 927      BINDING AFFINITY PREDICTED BY RF-SCORE:    0.00 PKD
ROOT
HETATM    1  C   UNL     1     -10.376  10.326  67.957  1.00  0.00    -0.215 C  
HETATM    2  C   UNL     1      -9.767   9.517  66.834  1.00  0.00    -0.237 C  
HETATM    3  C   UNL     1      -9.903   9.915  65.546  1.00  0.00    -0.381 C  
ENDROOT
BRANCH   2   4
HETATM    4  C   UNL     1      -9.023   8.294  67.149  1.00  0.00    -0.154 C  
HETATM    5  C   UNL     1      -8.205   7.611  66.327  1.00  0.00    -0.120 C  
BRANCH   5   6
HETATM    6  C   UNL     1      -7.478   6.392  66.690  1.00  0.00    -0.083 C  
HETATM    7  C   UNL     1      -6.089   7.398  68.561  1.00  0.00    -0.028 C  
HETATM    8  C   UNL     1      -8.062   5.178  66.597  1.00  0.00    -0.108 C  
HETATM    9  C   UNL     1      -7.369   3.896  66.957  1.00  0.00    -0.072 C  
HETATM   10  C   UNL     1      -9.491   4.935  66.156  1.00  0.00    -0.165 C  
HETATM   11  C   UNL     1      -5.233   7.447  66.211  1.00  0.00    -0.024 C  
HETATM   12  C   UNL     1      -6.050   6.607  67.228  1.00  0.00    -0.028 C  
HETATM   13  C   UNL     1      -5.233   5.307  67.480  1.00  0.00    -0.004 C  
HETATM   14  C   UNL     1      -5.935   3.959  67.446  1.00  0.00    -0.024 C  
ENDBRANCH   5   6
ENDBRANCH   2   4
BRANCH   3  15
HETATM   15  C   UNL     1     -10.593  11.132  65.150  1.00  0.00    -0.319 C  
HETATM   16  C   UNL     1     -10.037  12.336  64.947  1.00  0.00    -0.274 C  
BRANCH  16  17
HETATM   17  C   UNL     1     -10.811  13.538  64.605  1.00  0.00    -0.416 C  
HETATM   18  C   UNL     1     -10.963  16.092  64.975  1.00  0.00    -0.344 C  
HETATM   19  O   UNL     1     -10.661  16.962  65.780  1.00  0.00    -0.352 OA 
HETATM   20  C   UNL     1     -10.397  14.727  65.091  1.00  0.00    -0.439 C  
HETATM   21  C   UNL     1     -12.075  13.340  63.803  1.00  0.00    -0.546 C  
HETATM   22  O   UNL     1     -11.761  16.329  63.921  1.00  0.00    -0.986 OA 
ENDBRANCH  16  17
ENDBRANCH   3  15
TORSDOF 4
ENDMDL
MODEL       87
REMARK 921   NORMALIZED FREE ENERGY PREDICTED BY IDOCK:   -4.32 KCAL/MOL
REMARK 922        TOTAL FREE ENERGY PREDICTED BY IDOCK:   -5.95 KCAL/MOL
REMARK 923 INTER-LIGAND FREE ENERGY PREDICTED BY IDOCK:   -5.57 KCAL/MOL
REMARK 924 INTRA-LIGAND FREE ENERGY PREDICTED BY IDOCK:   -0.38 KCAL/MOL
REMARK 927      BINDING AFFINITY PREDICTED BY RF-SCORE:    0.00 PKD
ROOT
HETATM    1  C   UNL     1     -12.969  10.409  71.300  1.00  0.00    -0.517 C  
HETATM    2  C   UNL     1     -11.779   9.860  70.546  1.00  0.00    -0.373 C  
HETATM    3  C   UNL     1     -11.070  10.653  69.707  1.00  0.00    -0.358 C  
ENDROOT
BRANCH   2   4
HETATM    4  C   UNL     1     -11.394   8.458  70.730  1.00  0.00    -0.290 C  
HETATM    5  C   UNL     1     -10.313   7.842  70.217  1.00  0.00    -0.215 C  
BRANCH   5   6
HETATM    6  C   UNL     1      -9.967   6.435  70.434  1.00  0.00    -0.213 C  
HETATM    7  C   UNL     1     -10.915   6.235  72.779  1.00  0.00    -0.291 C  
HETATM    8  C   UNL     1      -9.976   5.550  69.414  1.00  0.00    -0.276 C  
HETATM    9  C   UNL     1      -9.634   4.097  69.575  1.00  0.00    -0.274 C  
HETATM   10  C   UNL     1     -10.359   5.878  67.985  1.00  0.00    -0.257 C  
HETATM   11  C   UNL     1      -8.547   6.973  72.453  1.00  0.00    -0.130 C  
HETATM   12  C   UNL     1      -9.657   6.045  71.892  1.00  0.00    -0.166 C  
HETATM   13  C   UNL     1      -9.156   4.587  72.097  1.00  0.00    -0.153 C  
HETATM   14  C   UNL     1      -9.252   3.590  70.953  1.00  0.00    -0.201 C  
ENDBRANCH   5   6
ENDBRANCH   2   4
BRANCH   3  15
HETATM   15  C   UNL     1     -11.361  12.061  69.494  1.00  0.00    -0.298 C  
HETATM   16  C   UNL     1     -10.582  12.952  68.863  1.00  0.00    -0.154 C  
BRANCH  16  17
HETATM   17  C   UNL     1     -10.918  14.378  68.740  1.00  0.00    -0.264 C  
HETATM   18  C   UNL     1      -9.905  16.743  68.488  1.00  0.00    -0.257 C  
HETATM   19  O   UNL     1      -8.889  17.380  68.733  1.00  0.00    -0.274 OA 
HETATM   20  C   UNL     1      -9.911  15.264  68.593  1.00  0.00    -0.211 C  
HETATM   21  C   UNL     1     -12.373  14.759  68.880  1.00  0.00    -0.049 C  
HETATM   22  O   UNL     1     -11.036  17.325  68.058  1.00  0.00    -0.350 OA 
ENDBRANCH  16  17
ENDBRANCH   3  15
TORSDOF 4
ENDMDL
MODEL       88
REMARK 921   NORMALIZED FREE ENERGY PREDICTED BY IDOCK:   -4.30 KCAL/MOL
REMARK 922        TOTAL FREE ENERGY PREDICTED BY IDOCK:   -5.92 KCAL/MOL
REMARK 923 INTER-LIGAND FREE ENERGY PREDICTED BY IDOCK:   -5.35 KCAL/MOL
REMARK 924 INTRA-LIGAND FREE ENERGY PREDICTED BY IDOCK:   -0.57 KCAL/MOL
REMARK 927      BINDING AFFINITY PREDICTED BY RF-SCORE:    0.00 PKD
ROOT
HETATM    1  C   UNL     1     -10.630  13.749  65.996  1.00  0.00    -0.290 C  
HETATM    2  C   UNL     1      -9.339  13.986  66.746  1.00  0.00    -0.289 C  
HETATM    3  C   UNL     1      -8.547  12.945  67.100  1.00  0.00    -0.198 C  
ENDROOT
BRANCH   2   4
HETATM    4  C   UNL     1      -8.946  15.355  67.089  1.00  0.00    -0.236 C  
HETATM    5  C   UNL     1      -8.756  16.380  66.238  1.00  0.00    -0.369 C  
BRANCH   5   6
HETATM    6  C   UNL     1      -8.366  17.737  66.630  1.00  0.00    -0.285 C  
HETATM    7  C   UNL     1     -10.257  18.145  68.274  1.00  0.00    -0.402 C  
HETATM    8  C   UNL     1      -7.067  18.098  66.693  1.00  0.00    -0.243 C  
HETATM    9  C   UNL     1      -6.607  19.470  67.091  1.00  0.00    -0.209 C  
HETATM   10  C   UNL     1      -5.897  17.177  66.409  1.00  0.00    -0.166 C  
HETATM   11  C   UNL     1     -10.562  18.718  65.858  1.00  0.00    -0.405 C  
HETATM   12  C   UNL     1      -9.526  18.676  67.012  1.00  0.00    -0.309 C  
HETATM   13  C   UNL     1      -9.121  20.151  67.293  1.00  0.00    -0.480 C  
HETATM   14  C   UNL     1      -7.651  20.513  67.437  1.00  0.00    -0.380 C  
ENDBRANCH   5   6
ENDBRANCH   2   4
BRANCH   3  15
HETATM   15  C   UNL     1      -8.843  11.561  66.768  1.00  0.00    -0.183 C  
HETATM   16  C   UNL     1      -8.005  10.518  66.865  1.00  0.00    -0.121 C  
BRANCH  16  17
HETATM   17  C   UNL     1      -8.360   9.153  66.451  1.00  0.00    -0.124 C  
HETATM   18  C   UNL     1      -7.542   7.107  65.098  1.00  0.00    -0.102 C  
HETATM   19  O   UNL     1      -6.814   6.809  64.161  1.00  0.00    -0.046 OA 
HETATM   20  C   UNL     1      -7.476   8.459  65.703  1.00  0.00    -0.081 C  
HETATM   21  C   UNL     1      -9.738   8.655  66.821  1.00  0.00    -0.298 C  
HETATM   22  O   UNL     1      -8.385   6.229  65.665  1.00  0.00    -0.136 OA 
ENDBRANCH  16  17
ENDBRANCH   3  15
TORSDOF 4
ENDMDL
MODEL       89
REMARK 921   NORMALIZED FREE ENERGY PREDICTED BY IDOCK:   -4.24 KCAL/MOL
REMARK 922        TOTAL FREE ENERGY PREDICTED BY IDOCK:   -5.86 KCAL/MOL
REMARK 923 INTER-LIGAND FREE ENERGY PREDICTED BY IDOCK:   -5.26 KCAL/MOL
REMARK 924 INTRA-LIGAND FREE ENERGY PREDICTED BY IDOCK:   -0.60 KCAL/MOL
REMARK 927      BINDING AFFINITY PREDICTED BY RF-SCORE:    0.00 PKD
ROOT
HETATM    1  C   UNL     1      -9.048  10.061  69.566  1.00  0.00    -0.236 C  
HETATM    2  C   UNL     1     -10.175   9.658  68.642  1.00  0.00    -0.209 C  
HETATM    3  C   UNL     1     -11.442  10.075  68.878  1.00  0.00    -0.057 C  
ENDROOT
BRANCH   2   4
HETATM    4  C   UNL     1      -9.887   8.809  67.482  1.00  0.00    -0.232 C  
HETATM    5  C   UNL     1      -8.886   7.918  67.361  1.00  0.00    -0.129 C  
BRANCH   5   6
HETATM    6  C   UNL     1      -8.641   7.087  66.179  1.00  0.00    -0.148 C  
HETATM    7  C   UNL     1     -10.578   5.483  66.515  1.00  0.00    -0.343 C  
HETATM    8  C   UNL     1      -8.140   7.620  65.044  1.00  0.00    -0.133 C  
HETATM    9  C   UNL     1      -7.871   6.820  63.802  1.00  0.00    -0.107 C  
HETATM   10  C   UNL     1      -7.812   9.086  64.846  1.00  0.00    -0.119 C  
HETATM   11  C   UNL     1      -8.361   4.993  67.565  1.00  0.00    -0.105 C  
HETATM   12  C   UNL     1      -9.045   5.606  66.314  1.00  0.00    -0.153 C  
HETATM   13  C   UNL     1      -8.657   4.699  65.111  1.00  0.00    -0.135 C  
HETATM   14  C   UNL     1      -8.170   5.333  63.818  1.00  0.00    -0.123 C  
ENDBRANCH   5   6
ENDBRANCH   2   4
BRANCH   3  15
HETATM   15  C   UNL     1     -11.808  10.947  69.982  1.00  0.00    -0.428 C  
HETATM   16  C   UNL     1     -12.363  12.165  69.890  1.00  0.00    -0.129 C  
BRANCH  16  17
HETATM   17  C   UNL     1     -12.649  13.015  71.054  1.00  0.00    -0.386 C  
HETATM   18  C   UNL     1     -12.359  15.397  72.017  1.00  0.00    -0.373 C  
HETATM   19  O   UNL     1     -11.631  16.378  71.941  1.00  0.00    -0.450 OA 
HETATM   20  C   UNL     1     -12.264  14.308  71.015  1.00  0.00    -0.428 C  
HETATM   21  C   UNL     1     -13.280  12.351  72.255  1.00  0.00    -0.392 C  
HETATM   22  O   UNL     1     -13.313  15.276  72.954  1.00  0.00    -0.443 OA 
ENDBRANCH  16  17
ENDBRANCH   3  15
TORSDOF 4
ENDMDL
MODEL       90
REMARK 921   NORMALIZED FREE ENERGY PREDICTED BY IDOCK:   -4.24 KCAL/MOL
REMARK 922        TOTAL FREE ENERGY PREDICTED BY IDOCK:   -5.85 KCAL/MOL
REMARK 923 INTER-LIGAND FREE ENERGY PREDICTED BY IDOCK:   -5.20 KCAL/MOL
REMARK 924 INTRA-LIGAND FREE ENERGY PREDICTED BY IDOCK:   -0.65 KCAL/MOL
REMARK 927      BINDING AFFINITY PREDICTED BY RF-SCORE:    0.00 PKD
ROOT
HETATM    1  C   UNL     1     -10.755  14.107  66.048  1.00  0.00    -0.299 C  
HETATM    2  C   UNL     1      -9.505  14.331  66.870  1.00  0.00    -0.272 C  
HETATM    3  C   UNL     1      -8.784  13.279  67.328  1.00  0.00    -0.214 C  
ENDROOT
BRANCH   2   4
HETATM    4  C   UNL     1      -9.076  15.700  67.169  1.00  0.00    -0.227 C  
HETATM    5  C   UNL     1      -8.406  16.535  66.353  1.00  0.00    -0.358 C  
BRANCH   5   6
HETATM    6  C   UNL     1      -8.002  17.900  66.697  1.00  0.00    -0.278 C  
HETATM    7  C   UNL     1      -5.632  17.763  65.798  1.00  0.00    -0.180 C  
HETATM    8  C   UNL     1      -8.888  18.919  66.662  1.00  0.00    -0.319 C  
HETATM    9  C   UNL     1      -8.532  20.337  67.000  1.00  0.00    -0.388 C  
HETATM   10  C   UNL     1     -10.340  18.791  66.249  1.00  0.00    -0.497 C  
HETATM   11  C   UNL     1      -6.108  17.097  68.163  1.00  0.00    -0.128 C  
HETATM   12  C   UNL     1      -6.510  18.085  67.036  1.00  0.00    -0.198 C  
HETATM   13  C   UNL     1      -6.113  19.505  67.534  1.00  0.00    -0.208 C  
HETATM   14  C   UNL     1      -7.105  20.650  67.409  1.00  0.00    -0.399 C  
ENDBRANCH   5   6
ENDBRANCH   2   4
BRANCH   3  15
HETATM   15  C   UNL     1      -9.118  11.892  67.046  1.00  0.00    -0.191 C  
HETATM   16  C   UNL     1      -8.330  10.985  66.452  1.00  0.00    -0.165 C  
BRANCH  16  17
HETATM   17  C   UNL     1      -8.762   9.613  66.146  1.00  0.00    -0.152 C  
HETATM   18  C   UNL     1      -8.073   7.433  64.940  1.00  0.00    -0.114 C  
HETATM   19  O   UNL     1      -7.376   7.027  64.019  1.00  0.00    -0.070 OA 
HETATM   20  C   UNL     1      -7.927   8.820  65.442  1.00  0.00    -0.112 C  
HETATM   21  C   UNL     1     -10.157   9.219  66.568  1.00  0.00    -0.343 C  
HETATM   22  O   UNL     1      -8.952   6.645  65.581  1.00  0.00    -0.093 OA 
ENDBRANCH  16  17
ENDBRANCH   3  15
TORSDOF 4
ENDMDL
MODEL       91
REMARK 921   NORMALIZED FREE ENERGY PREDICTED BY IDOCK:   -4.24 KCAL/MOL
REMARK 922        TOTAL FREE ENERGY PREDICTED BY IDOCK:   -5.85 KCAL/MOL
REMARK 923 INTER-LIGAND FREE ENERGY PREDICTED BY IDOCK:   -5.21 KCAL/MOL
REMARK 924 INTRA-LIGAND FREE ENERGY PREDICTED BY IDOCK:   -0.64 KCAL/MOL
REMARK 927      BINDING AFFINITY PREDICTED BY RF-SCORE:    0.00 PKD
ROOT
HETATM    1  C   UNL     1     -10.628   8.957  70.499  1.00  0.00    -0.262 C  
HETATM    2  C   UNL     1     -10.462   8.891  68.997  1.00  0.00    -0.231 C  
HETATM    3  C   UNL     1     -10.990   9.855  68.203  1.00  0.00    -0.261 C  
ENDROOT
BRANCH   2   4
HETATM    4  C   UNL     1      -9.723   7.775  68.402  1.00  0.00    -0.167 C  
HETATM    5  C   UNL     1      -9.388   7.625  67.108  1.00  0.00    -0.180 C  
BRANCH   5   6
HETATM    6  C   UNL     1      -8.642   6.489  66.560  1.00  0.00    -0.123 C  
HETATM    7  C   UNL     1      -6.591   6.717  68.037  1.00  0.00    -0.062 C  
HETATM    8  C   UNL     1      -9.280   5.382  66.123  1.00  0.00    -0.162 C  
HETATM    9  C   UNL     1      -8.570   4.187  65.555  1.00  0.00    -0.118 C  
HETATM   10  C   UNL     1     -10.779   5.170  66.170  1.00  0.00    -0.247 C  
HETATM   11  C   UNL     1      -6.701   7.948  65.862  1.00  0.00    -0.049 C  
HETATM   12  C   UNL     1      -7.108   6.632  66.577  1.00  0.00    -0.068 C  
HETATM   13  C   UNL     1      -6.326   5.488  65.870  1.00  0.00    -0.035 C  
HETATM   14  C   UNL     1      -7.057   4.219  65.460  1.00  0.00    -0.063 C  
ENDBRANCH   5   6
ENDBRANCH   2   4
BRANCH   3  15
HETATM   15  C   UNL     1     -11.704  11.014  68.712  1.00  0.00    -0.383 C  
HETATM   16  C   UNL     1     -11.163  12.170  69.123  1.00  0.00    -0.303 C  
BRANCH  16  17
HETATM   17  C   UNL     1     -11.949  13.278  69.685  1.00  0.00    -0.376 C  
HETATM   18  C   UNL     1     -13.342  14.016  71.734  1.00  0.00    -0.386 C  
HETATM   19  O   UNL     1     -14.016  13.559  72.647  1.00  0.00    -0.752 OA 
HETATM   20  C   UNL     1     -12.480  13.128  70.916  1.00  0.00    -0.407 C  
HETATM   21  C   UNL     1     -12.182  14.478  68.797  1.00  0.00    -0.173 C  
HETATM   22  O   UNL     1     -13.291  15.330  71.460  1.00  0.00    -0.400 OA 
ENDBRANCH  16  17
ENDBRANCH   3  15
TORSDOF 4
ENDMDL
MODEL       92
REMARK 921   NORMALIZED FREE ENERGY PREDICTED BY IDOCK:   -4.21 KCAL/MOL
REMARK 922        TOTAL FREE ENERGY PREDICTED BY IDOCK:   -5.81 KCAL/MOL
REMARK 923 INTER-LIGAND FREE ENERGY PREDICTED BY IDOCK:   -5.13 KCAL/MOL
REMARK 924 INTRA-LIGAND FREE ENERGY PREDICTED BY IDOCK:   -0.68 KCAL/MOL
REMARK 927      BINDING AFFINITY PREDICTED BY RF-SCORE:    0.00 PKD
ROOT
HETATM    1  C   UNL     1      -8.277  10.345  66.231  1.00  0.00    -0.144 C  
HETATM    2  C   UNL     1      -9.463  11.020  66.883  1.00  0.00    -0.197 C  
HETATM    3  C   UNL     1     -10.486  10.284  67.382  1.00  0.00    -0.303 C  
ENDROOT
BRANCH   2   4
HETATM    4  C   UNL     1      -9.500  12.482  66.974  1.00  0.00    -0.217 C  
HETATM    5  C   UNL     1      -9.400  13.226  68.090  1.00  0.00    -0.220 C  
BRANCH   5   6
HETATM    6  C   UNL     1      -9.437  14.691  68.130  1.00  0.00    -0.212 C  
HETATM    7  C   UNL     1     -11.242  14.912  69.900  1.00  0.00    -0.307 C  
HETATM    8  C   UNL     1      -8.319  15.422  67.932  1.00  0.00    -0.148 C  
HETATM    9  C   UNL     1      -8.294  16.922  67.964  1.00  0.00    -0.204 C  
HETATM   10  C   UNL     1      -6.939  14.846  67.686  1.00  0.00    -0.207 C  
HETATM   11  C   UNL     1     -11.878  14.764  67.485  1.00  0.00    -0.326 C  
HETATM   12  C   UNL     1     -10.807  15.310  68.465  1.00  0.00    -0.253 C  
HETATM   13  C   UNL     1     -10.875  16.862  68.370  1.00  0.00    -0.347 C  
HETATM   14  C   UNL     1      -9.591  17.664  68.227  1.00  0.00    -0.306 C  
ENDBRANCH   5   6
ENDBRANCH   2   4
BRANCH   3  15
HETATM   15  C   UNL     1     -10.513   8.831  67.366  1.00  0.00    -0.349 C  
HETATM   16  C   UNL     1     -10.193   8.014  68.381  1.00  0.00    -0.239 C  
BRANCH  16  17
HETATM   17  C   UNL     1     -10.186   6.548  68.270  1.00  0.00    -0.195 C  
HETATM   18  C   UNL     1      -9.443   4.576  66.773  1.00  0.00    -0.174 C  
HETATM   19  O   UNL     1      -9.198   4.300  65.607  1.00  0.00    -0.131 OA 
HETATM   20  C   UNL     1      -9.585   5.989  67.199  1.00  0.00    -0.134 C  
HETATM   21  C   UNL     1     -10.938   5.773  69.326  1.00  0.00    -0.330 C  
HETATM   22  O   UNL     1      -9.535   3.642  67.733  1.00  0.00    -0.189 OA 
ENDBRANCH  16  17
ENDBRANCH   3  15
TORSDOF 4
ENDMDL
MODEL       93
REMARK 921   NORMALIZED FREE ENERGY PREDICTED BY IDOCK:   -4.19 KCAL/MOL
REMARK 922        TOTAL FREE ENERGY PREDICTED BY IDOCK:   -5.79 KCAL/MOL
REMARK 923 INTER-LIGAND FREE ENERGY PREDICTED BY IDOCK:   -5.14 KCAL/MOL
REMARK 924 INTRA-LIGAND FREE ENERGY PREDICTED BY IDOCK:   -0.65 KCAL/MOL
REMARK 927      BINDING AFFINITY PREDICTED BY RF-SCORE:    0.00 PKD
ROOT
HETATM    1  C   UNL     1      -8.182   8.528  64.691  1.00  0.00    -0.162 C  
HETATM    2  C   UNL     1      -9.163   8.813  65.806  1.00  0.00    -0.269 C  
HETATM    3  C   UNL     1      -9.659   7.803  66.562  1.00  0.00    -0.270 C  
ENDROOT
BRANCH   2   4
HETATM    4  C   UNL     1      -9.576  10.194  66.067  1.00  0.00    -0.265 C  
HETATM    5  C   UNL     1     -10.775  10.609  66.517  1.00  0.00    -0.218 C  
BRANCH   5   6
HETATM    6  C   UNL     1     -11.140  12.006  66.768  1.00  0.00    -0.353 C  
HETATM    7  C   UNL     1      -9.120  12.612  68.179  1.00  0.00    -0.204 C  
HETATM    8  C   UNL     1     -11.801  12.731  65.840  1.00  0.00    -0.490 C  
HETATM    9  C   UNL     1     -12.198  14.164  66.038  1.00  0.00    -0.464 C  
HETATM   10  C   UNL     1     -12.203  12.224  64.469  1.00  0.00    -0.469 C  
HETATM   11  C   UNL     1     -11.165  11.674  69.272  1.00  0.00    -0.328 C  
HETATM   12  C   UNL     1     -10.669  12.583  68.117  1.00  0.00    -0.246 C  
HETATM   13  C   UNL     1     -11.177  14.018  68.439  1.00  0.00    -0.292 C  
HETATM   14  C   UNL     1     -11.847  14.840  67.349  1.00  0.00    -0.320 C  
ENDBRANCH   5   6
ENDBRANCH   2   4
BRANCH   3  15
HETATM   15  C   UNL     1      -9.275   6.411  66.395  1.00  0.00    -0.176 C  
HETATM   16  C   UNL     1      -8.388   5.731  67.137  1.00  0.00    -0.104 C  
BRANCH  16  17
HETATM   17  C   UNL     1      -8.006   4.338  66.868  1.00  0.00    -0.098 C  
HETATM   18  C   UNL     1      -8.304   2.380  65.206  1.00  0.00    -0.096 C  
HETATM   19  O   UNL     1      -9.088   1.940  64.376  1.00  0.00    -0.106 OA 
HETATM   20  C   UNL     1      -8.463   3.753  65.741  1.00  0.00    -0.110 C  
HETATM   21  C   UNL     1      -7.196   3.627  67.927  1.00  0.00    -0.055 C  
HETATM   22  O   UNL     1      -7.236   1.685  65.630  1.00  0.00    -0.049 OA 
ENDBRANCH  16  17
ENDBRANCH   3  15
TORSDOF 4
ENDMDL
MODEL       94
REMARK 921   NORMALIZED FREE ENERGY PREDICTED BY IDOCK:   -4.18 KCAL/MOL
REMARK 922        TOTAL FREE ENERGY PREDICTED BY IDOCK:   -5.78 KCAL/MOL
REMARK 923 INTER-LIGAND FREE ENERGY PREDICTED BY IDOCK:   -5.21 KCAL/MOL
REMARK 924 INTRA-LIGAND FREE ENERGY PREDICTED BY IDOCK:   -0.58 KCAL/MOL
REMARK 927      BINDING AFFINITY PREDICTED BY RF-SCORE:    0.00 PKD
ROOT
HETATM    1  C   UNL     1     -10.178  10.956  67.703  1.00  0.00    -0.214 C  
HETATM    2  C   UNL     1     -10.232  10.552  66.246  1.00  0.00    -0.296 C  
HETATM    3  C   UNL     1     -10.602  11.445  65.297  1.00  0.00    -0.336 C  
ENDROOT
BRANCH   2   4
HETATM    4  C   UNL     1      -9.879   9.182  65.866  1.00  0.00    -0.305 C  
HETATM    5  C   UNL     1      -8.889   8.429  66.379  1.00  0.00    -0.181 C  
BRANCH   5   6
HETATM    6  C   UNL     1      -8.577   7.058  65.968  1.00  0.00    -0.154 C  
HETATM    7  C   UNL     1     -10.741   5.992  66.756  1.00  0.00    -0.374 C  
HETATM    8  C   UNL     1      -7.838   6.812  64.864  1.00  0.00    -0.119 C  
HETATM    9  C   UNL     1      -7.489   5.431  64.392  1.00  0.00    -0.067 C  
HETATM   10  C   UNL     1      -7.290   7.876  63.934  1.00  0.00    -0.099 C  
HETATM   11  C   UNL     1      -8.800   6.174  68.324  1.00  0.00    -0.112 C  
HETATM   12  C   UNL     1      -9.193   5.947  66.840  1.00  0.00    -0.128 C  
HETATM   13  C   UNL     1      -8.747   4.499  66.484  1.00  0.00    -0.112 C  
HETATM   14  C   UNL     1      -7.985   4.243  65.194  1.00  0.00    -0.097 C  
ENDBRANCH   5   6
ENDBRANCH   2   4
BRANCH   3  15
HETATM   15  C   UNL     1     -10.932  12.832  65.583  1.00  0.00    -0.302 C  
HETATM   16  C   UNL     1     -10.065  13.836  65.782  1.00  0.00    -0.322 C  
BRANCH  16  17
HETATM   17  C   UNL     1     -10.475  15.204  66.128  1.00  0.00    -0.320 C  
HETATM   18  C   UNL     1     -10.671  16.890  68.078  1.00  0.00    -0.364 C  
HETATM   19  O   UNL     1     -10.800  16.936  69.294  1.00  0.00    -0.311 OA 
HETATM   20  C   UNL     1     -10.324  15.616  67.404  1.00  0.00    -0.275 C  
HETATM   21  C   UNL     1     -11.126  16.026  65.040  1.00  0.00    -0.345 C  
HETATM   22  O   UNL     1     -10.772  17.980  67.299  1.00  0.00    -0.372 OA 
ENDBRANCH  16  17
ENDBRANCH   3  15
TORSDOF 4
ENDMDL
MODEL       95
REMARK 921   NORMALIZED FREE ENERGY PREDICTED BY IDOCK:   -4.17 KCAL/MOL
REMARK 922        TOTAL FREE ENERGY PREDICTED BY IDOCK:   -5.77 KCAL/MOL
REMARK 923 INTER-LIGAND FREE ENERGY PREDICTED BY IDOCK:   -5.17 KCAL/MOL
REMARK 924 INTRA-LIGAND FREE ENERGY PREDICTED BY IDOCK:   -0.60 KCAL/MOL
REMARK 927      BINDING AFFINITY PREDICTED BY RF-SCORE:    0.00 PKD
ROOT
HETATM    1  C   UNL     1      -8.176   9.522  67.587  1.00  0.00    -0.121 C  
HETATM    2  C   UNL     1      -9.169  10.564  68.050  1.00  0.00    -0.143 C  
HETATM    3  C   UNL     1      -9.939  10.343  69.143  1.00  0.00    -0.237 C  
ENDROOT
BRANCH   2   4
HETATM    4  C   UNL     1      -9.294  11.821  67.308  1.00  0.00    -0.171 C  
HETATM    5  C   UNL     1     -10.372  12.625  67.253  1.00  0.00    -0.230 C  
BRANCH   5   6
HETATM    6  C   UNL     1     -10.448  13.878  66.498  1.00  0.00    -0.282 C  
HETATM    7  C   UNL     1     -12.774  13.532  65.544  1.00  0.00    -0.493 C  
HETATM    8  C   UNL     1      -9.853  15.002  66.953  1.00  0.00    -0.244 C  
HETATM    9  C   UNL     1      -9.898  16.315  66.226  1.00  0.00    -0.334 C  
HETATM   10  C   UNL     1      -9.092  15.113  68.259  1.00  0.00    -0.183 C  
HETATM   11  C   UNL     1     -10.779  12.674  64.303  1.00  0.00    -0.409 C  
HETATM   12  C   UNL     1     -11.288  13.826  65.208  1.00  0.00    -0.310 C  
HETATM   13  C   UNL     1     -11.252  15.116  64.339  1.00  0.00    -0.181 C  
HETATM   14  C   UNL     1     -10.646  16.389  64.908  1.00  0.00    -0.116 C  
ENDBRANCH   5   6
ENDBRANCH   2   4
BRANCH   3  15
HETATM   15  C   UNL     1      -9.853   9.142  69.957  1.00  0.00    -0.217 C  
HETATM   16  C   UNL     1     -10.282   8.999  71.220  1.00  0.00    -0.384 C  
BRANCH  16  17
HETATM   17  C   UNL     1     -10.105   7.766  72.001  1.00  0.00    -0.244 C  
HETATM   18  C   UNL     1      -8.577   6.595  73.727  1.00  0.00    -0.128 C  
HETATM   19  O   UNL     1      -7.420   6.578  74.124  1.00  0.00    -0.088 OA 
HETATM   20  C   UNL     1      -9.056   7.688  72.846  1.00  0.00    -0.231 C  
HETATM   21  C   UNL     1     -11.067   6.633  71.731  1.00  0.00    -0.287 C  
HETATM   22  O   UNL     1      -9.484   5.680  74.105  1.00  0.00    -0.133 OA 
ENDBRANCH  16  17
ENDBRANCH   3  15
TORSDOF 4
ENDMDL
MODEL       96
REMARK 921   NORMALIZED FREE ENERGY PREDICTED BY IDOCK:   -4.16 KCAL/MOL
REMARK 922        TOTAL FREE ENERGY PREDICTED BY IDOCK:   -5.75 KCAL/MOL
REMARK 923 INTER-LIGAND FREE ENERGY PREDICTED BY IDOCK:   -5.12 KCAL/MOL
REMARK 924 INTRA-LIGAND FREE ENERGY PREDICTED BY IDOCK:   -0.64 KCAL/MOL
REMARK 927      BINDING AFFINITY PREDICTED BY RF-SCORE:    0.00 PKD
ROOT
HETATM    1  C   UNL     1     -11.055  13.236  67.409  1.00  0.00    -0.300 C  
HETATM    2  C   UNL     1      -9.782  13.352  68.217  1.00  0.00    -0.226 C  
HETATM    3  C   UNL     1      -9.131  12.242  68.640  1.00  0.00     0.013 C  
ENDROOT
BRANCH   2   4
HETATM    4  C   UNL     1      -9.254  14.680  68.541  1.00  0.00    -0.193 C  
HETATM    5  C   UNL     1      -8.609  15.519  67.710  1.00  0.00    -0.158 C  
BRANCH   5   6
HETATM    6  C   UNL     1      -8.102  16.843  68.080  1.00  0.00    -0.201 C  
HETATM    7  C   UNL     1      -5.730  16.520  67.236  1.00  0.00    -0.180 C  
HETATM    8  C   UNL     1      -8.899  17.932  68.036  1.00  0.00    -0.268 C  
HETATM    9  C   UNL     1      -8.436  19.312  68.400  1.00  0.00    -0.386 C  
HETATM   10  C   UNL     1     -10.347  17.929  67.588  1.00  0.00    -0.387 C  
HETATM   11  C   UNL     1      -6.317  15.870  69.580  1.00  0.00    -0.186 C  
HETATM   12  C   UNL     1      -6.609  16.900  68.457  1.00  0.00    -0.165 C  
HETATM   13  C   UNL     1      -6.109  18.277  68.982  1.00  0.00    -0.228 C  
HETATM   14  C   UNL     1      -6.999  19.502  68.847  1.00  0.00    -0.386 C  
ENDBRANCH   5   6
ENDBRANCH   2   4
BRANCH   3  15
HETATM   15  C   UNL     1      -9.566  10.889  68.333  1.00  0.00    -0.177 C  
HETATM   16  C   UNL     1      -8.902   9.984  67.598  1.00  0.00    -0.121 C  
BRANCH  16  17
HETATM   17  C   UNL     1      -9.436   8.652  67.279  1.00  0.00    -0.198 C  
HETATM   18  C   UNL     1     -11.008   6.781  68.122  1.00  0.00    -0.201 C  
HETATM   19  O   UNL     1     -11.482   6.321  69.152  1.00  0.00    -0.394 OA 
HETATM   20  C   UNL     1     -10.327   8.098  68.128  1.00  0.00    -0.251 C  
HETATM   21  C   UNL     1      -8.874   7.957  66.061  1.00  0.00    -0.191 C  
HETATM   22  O   UNL     1     -11.127   6.165  66.935  1.00  0.00    -0.334 OA 
ENDBRANCH  16  17
ENDBRANCH   3  15
TORSDOF 4
ENDMDL
MODEL       97
REMARK 921   NORMALIZED FREE ENERGY PREDICTED BY IDOCK:   -4.15 KCAL/MOL
REMARK 922        TOTAL FREE ENERGY PREDICTED BY IDOCK:   -5.74 KCAL/MOL
REMARK 923 INTER-LIGAND FREE ENERGY PREDICTED BY IDOCK:   -5.42 KCAL/MOL
REMARK 924 INTRA-LIGAND FREE ENERGY PREDICTED BY IDOCK:   -0.33 KCAL/MOL
REMARK 927      BINDING AFFINITY PREDICTED BY RF-SCORE:    0.00 PKD
ROOT
HETATM    1  C   UNL     1      -9.165   8.671  66.337  1.00  0.00    -0.245 C  
HETATM    2  C   UNL     1     -10.427   8.540  67.160  1.00  0.00    -0.370 C  
HETATM    3  C   UNL     1     -10.996   7.326  67.358  1.00  0.00    -0.257 C  
ENDROOT
BRANCH   2   4
HETATM    4  C   UNL     1     -11.032   9.738  67.748  1.00  0.00    -0.242 C  
HETATM    5  C   UNL     1     -10.553  10.467  68.772  1.00  0.00    -0.232 C  
BRANCH   5   6
HETATM    6  C   UNL     1     -11.193  11.664  69.323  1.00  0.00    -0.328 C  
HETATM    7  C   UNL     1     -11.625  12.836  67.113  1.00  0.00    -0.426 C  
HETATM    8  C   UNL     1     -11.957  11.597  70.435  1.00  0.00    -0.448 C  
HETATM    9  C   UNL     1     -12.640  12.786  71.043  1.00  0.00    -0.362 C  
HETATM   10  C   UNL     1     -12.260  10.325  71.202  1.00  0.00    -0.500 C  
HETATM   11  C   UNL     1      -9.461  13.200  68.314  1.00  0.00    -0.210 C  
HETATM   12  C   UNL     1     -10.980  12.961  68.518  1.00  0.00    -0.288 C  
HETATM   13  C   UNL     1     -11.544  14.252  69.178  1.00  0.00    -0.346 C  
HETATM   14  C   UNL     1     -12.465  14.140  70.383  1.00  0.00    -0.424 C  
ENDBRANCH   5   6
ENDBRANCH   2   4
BRANCH   3  15
HETATM   15  C   UNL     1     -10.442   6.085  66.843  1.00  0.00    -0.344 C  
HETATM   16  C   UNL     1      -9.241   5.563  67.135  1.00  0.00    -0.111 C  
BRANCH  16  17
HETATM   17  C   UNL     1      -8.724   4.330  66.525  1.00  0.00    -0.113 C  
HETATM   18  C   UNL     1      -6.559   3.041  65.946  1.00  0.00    -0.039 C  
HETATM   19  O   UNL     1      -5.373   3.222  65.706  1.00  0.00    -0.008 OA 
HETATM   20  C   UNL     1      -7.389   4.132  66.510  1.00  0.00    -0.080 C  
HETATM   21  C   UNL     1      -9.728   3.408  65.874  1.00  0.00     0.003 C  
HETATM   22  O   UNL     1      -7.156   1.850  65.777  1.00  0.00    -0.049 OA 
ENDBRANCH  16  17
ENDBRANCH   3  15
TORSDOF 4
ENDMDL
MODEL       98
REMARK 921   NORMALIZED FREE ENERGY PREDICTED BY IDOCK:   -4.15 KCAL/MOL
REMARK 922        TOTAL FREE ENERGY PREDICTED BY IDOCK:   -5.74 KCAL/MOL
REMARK 923 INTER-LIGAND FREE ENERGY PREDICTED BY IDOCK:   -5.42 KCAL/MOL
REMARK 924 INTRA-LIGAND FREE ENERGY PREDICTED BY IDOCK:   -0.32 KCAL/MOL
REMARK 927      BINDING AFFINITY PREDICTED BY RF-SCORE:    0.00 PKD
ROOT
HETATM    1  C   UNL     1     -11.571  11.604  68.559  1.00  0.00    -0.379 C  
HETATM    2  C   UNL     1     -10.415  10.880  67.906  1.00  0.00    -0.227 C  
HETATM    3  C   UNL     1      -9.841  11.372  66.782  1.00  0.00    -0.232 C  
ENDROOT
BRANCH   2   4
HETATM    4  C   UNL     1      -9.915   9.638  68.501  1.00  0.00    -0.182 C  
HETATM    5  C   UNL     1      -9.642   8.487  67.860  1.00  0.00    -0.177 C  
BRANCH   5   6
HETATM    6  C   UNL     1      -9.137   7.269  68.499  1.00  0.00    -0.136 C  
HETATM    7  C   UNL     1     -11.236   5.871  68.215  1.00  0.00     0.058 C  
HETATM    8  C   UNL     1      -7.838   6.916  68.399  1.00  0.00    -0.121 C  
HETATM    9  C   UNL     1      -7.264   5.680  69.028  1.00  0.00    -0.073 C  
HETATM   10  C   UNL     1      -6.789   7.684  67.620  1.00  0.00    -0.069 C  
HETATM   11  C   UNL     1     -10.955   7.294  70.253  1.00  0.00    -0.281 C  
HETATM   12  C   UNL     1     -10.194   6.415  69.226  1.00  0.00    -0.229 C  
HETATM   13  C   UNL     1      -9.633   5.199  70.019  1.00  0.00    -0.247 C  
HETATM   14  C   UNL     1      -8.185   4.777  69.826  1.00  0.00    -0.068 C  
ENDBRANCH   5   6
ENDBRANCH   2   4
BRANCH   3  15
HETATM   15  C   UNL     1     -10.251  12.615  66.148  1.00  0.00    -0.272 C  
HETATM   16  C   UNL     1     -10.071  13.855  66.629  1.00  0.00    -0.273 C  
BRANCH  16  17
HETATM   17  C   UNL     1     -10.569  15.064  65.957  1.00  0.00    -0.329 C  
HETATM   18  C   UNL     1     -10.645  17.644  66.098  1.00  0.00    -0.220 C  
HETATM   19  O   UNL     1     -10.592  18.560  66.908  1.00  0.00    -0.391 OA 
HETATM   20  C   UNL     1     -10.270  16.265  66.494  1.00  0.00    -0.307 C  
HETATM   21  C   UNL     1     -11.462  14.867  64.754  1.00  0.00    -0.410 C  
HETATM   22  O   UNL     1     -10.980  17.836  64.812  1.00  0.00    -0.855 OA 
ENDBRANCH  16  17
ENDBRANCH   3  15
TORSDOF 4
ENDMDL
MODEL       99
REMARK 921   NORMALIZED FREE ENERGY PREDICTED BY IDOCK:   -4.15 KCAL/MOL
REMARK 922        TOTAL FREE ENERGY PREDICTED BY IDOCK:   -5.74 KCAL/MOL
REMARK 923 INTER-LIGAND FREE ENERGY PREDICTED BY IDOCK:   -5.05 KCAL/MOL
REMARK 924 INTRA-LIGAND FREE ENERGY PREDICTED BY IDOCK:   -0.69 KCAL/MOL
REMARK 927      BINDING AFFINITY PREDICTED BY RF-SCORE:    0.00 PKD
ROOT
HETATM    1  C   UNL     1      -8.347  10.420  65.731  1.00  0.00    -0.158 C  
HETATM    2  C   UNL     1      -9.358  11.045  66.666  1.00  0.00    -0.196 C  
HETATM    3  C   UNL     1     -10.250  10.273  67.332  1.00  0.00    -0.265 C  
ENDROOT
BRANCH   2   4
HETATM    4  C   UNL     1      -9.367  12.499  66.850  1.00  0.00    -0.219 C  
HETATM    5  C   UNL     1      -9.468  13.167  68.014  1.00  0.00    -0.220 C  
BRANCH   5   6
HETATM    6  C   UNL     1      -9.467  14.626  68.148  1.00  0.00    -0.212 C  
HETATM    7  C   UNL     1      -7.192  15.038  67.103  1.00  0.00    -0.051 C  
HETATM    8  C   UNL     1     -10.612  15.335  68.046  1.00  0.00    -0.261 C  
HETATM    9  C   UNL     1     -10.674  16.830  68.170  1.00  0.00    -0.361 C  
HETATM   10  C   UNL     1     -11.977  14.742  67.761  1.00  0.00    -0.247 C  
HETATM   11  C   UNL     1      -7.374  14.614  69.562  1.00  0.00    -0.107 C  
HETATM   12  C   UNL     1      -8.084  15.273  68.349  1.00  0.00    -0.137 C  
HETATM   13  C   UNL     1      -8.101  16.804  68.629  1.00  0.00    -0.251 C  
HETATM   14  C   UNL     1      -9.387  17.590  68.430  1.00  0.00    -0.287 C  
ENDBRANCH   5   6
ENDBRANCH   2   4
BRANCH   3  15
HETATM   15  C   UNL     1     -10.287   8.822  67.235  1.00  0.00    -0.360 C  
HETATM   16  C   UNL     1     -10.291   7.953  68.257  1.00  0.00    -0.239 C  
BRANCH  16  17
HETATM   17  C   UNL     1     -10.268   6.494  68.079  1.00  0.00    -0.192 C  
HETATM   18  C   UNL     1     -10.332   4.610  66.310  1.00  0.00    -0.255 C  
HETATM   19  O   UNL     1     -10.731   4.374  65.177  1.00  0.00    -0.255 OA 
HETATM   20  C   UNL     1     -10.300   6.001  66.823  1.00  0.00    -0.296 C  
HETATM   21  C   UNL     1     -10.300   5.645  69.328  1.00  0.00    -0.340 C  
HETATM   22  O   UNL     1      -9.850   3.654  67.119  1.00  0.00    -0.140 OA 
ENDBRANCH  16  17
ENDBRANCH   3  15
TORSDOF 4
ENDMDL
MODEL      100
REMARK 921   NORMALIZED FREE ENERGY PREDICTED BY IDOCK:   -4.14 KCAL/MOL
REMARK 922        TOTAL FREE ENERGY PREDICTED BY IDOCK:   -5.73 KCAL/MOL
REMARK 923 INTER-LIGAND FREE ENERGY PREDICTED BY IDOCK:   -5.07 KCAL/MOL
REMARK 924 INTRA-LIGAND FREE ENERGY PREDICTED BY IDOCK:   -0.66 KCAL/MOL
REMARK 927      BINDING AFFINITY PREDICTED BY RF-SCORE:    0.00 PKD
ROOT
HETATM    1  C   UNL     1     -10.570  14.351  68.900  1.00  0.00    -0.250 C  
HETATM    2  C   UNL     1      -9.831  13.313  68.086  1.00  0.00    -0.231 C  
HETATM    3  C   UNL     1      -8.786  13.669  67.300  1.00  0.00    -0.227 C  
ENDROOT
BRANCH   2   4
HETATM    4  C   UNL     1     -10.252  11.911  68.153  1.00  0.00    -0.203 C  
HETATM    5  C   UNL     1      -9.478  10.846  68.431  1.00  0.00    -0.178 C  
BRANCH   5   6
HETATM    6  C   UNL     1      -9.948   9.459  68.492  1.00  0.00    -0.190 C  
HETATM    7  C   UNL     1      -8.029   8.419  67.196  1.00  0.00    -0.104 C  
HETATM    8  C   UNL     1     -10.621   8.999  69.568  1.00  0.00    -0.231 C  
HETATM    9  C   UNL     1     -11.123   7.590  69.690  1.00  0.00    -0.099 C  
HETATM   10  C   UNL     1     -10.934   9.812  70.808  1.00  0.00    -0.406 C  
HETATM   11  C   UNL     1     -10.046   9.257  65.976  1.00  0.00    -0.262 C  
HETATM   12  C   UNL     1      -9.570   8.577  67.287  1.00  0.00    -0.220 C  
HETATM   13  C   UNL     1     -10.187   7.149  67.290  1.00  0.00    -0.315 C  
HETATM   14  C   UNL     1     -10.870   6.628  68.545  1.00  0.00    -0.319 C  
ENDBRANCH   5   6
ENDBRANCH   2   4
BRANCH   3  15
HETATM   15  C   UNL     1      -8.281  15.029  67.203  1.00  0.00    -0.251 C  
HETATM   16  C   UNL     1      -7.308  15.575  67.947  1.00  0.00    -0.155 C  
BRANCH  16  17
HETATM   17  C   UNL     1      -6.892  16.981  67.831  1.00  0.00    -0.162 C  
HETATM   18  C   UNL     1      -7.100  19.100  66.366  1.00  0.00    -0.224 C  
HETATM   19  O   UNL     1      -7.310  19.450  65.212  1.00  0.00    -0.414 OA 
HETATM   20  C   UNL     1      -7.355  17.703  66.790  1.00  0.00    -0.245 C  
HETATM   21  C   UNL     1      -5.895  17.491  68.845  1.00  0.00    -0.181 C  
HETATM   22  O   UNL     1      -6.692  19.957  67.316  1.00  0.00    -0.204 OA 
ENDBRANCH  16  17
ENDBRANCH   3  15
TORSDOF 4
ENDMDL
MODEL      101
REMARK 921   NORMALIZED FREE ENERGY PREDICTED BY IDOCK:   -4.12 KCAL/MOL
REMARK 922        TOTAL FREE ENERGY PREDICTED BY IDOCK:   -5.70 KCAL/MOL
REMARK 923 INTER-LIGAND FREE ENERGY PREDICTED BY IDOCK:   -5.06 KCAL/MOL
REMARK 924 INTRA-LIGAND FREE ENERGY PREDICTED BY IDOCK:   -0.64 KCAL/MOL
REMARK 927      BINDING AFFINITY PREDICTED BY RF-SCORE:    0.00 PKD
ROOT
HETATM    1  C   UNL     1      -7.886  11.816  67.648  1.00  0.00    -0.138 C  
HETATM    2  C   UNL     1      -8.990  11.003  68.286  1.00  0.00    -0.155 C  
HETATM    3  C   UNL     1     -10.281  11.406  68.199  1.00  0.00    -0.200 C  
ENDROOT
BRANCH   2   4
HETATM    4  C   UNL     1      -8.654   9.769  69.001  1.00  0.00    -0.146 C  
HETATM    5  C   UNL     1      -8.333   8.580  68.457  1.00  0.00    -0.123 C  
BRANCH   5   6
HETATM    6  C   UNL     1      -7.999   7.372  69.216  1.00  0.00    -0.118 C  
HETATM    7  C   UNL     1      -5.911   8.274  70.342  1.00  0.00    -0.028 C  
HETATM    8  C   UNL     1      -8.966   6.563  69.698  1.00  0.00    -0.141 C  
HETATM    9  C   UNL     1      -8.686   5.316  70.485  1.00  0.00    -0.132 C  
HETATM   10  C   UNL     1     -10.454   6.807  69.550  1.00  0.00    -0.248 C  
HETATM   11  C   UNL     1      -5.738   7.159  68.109  1.00  0.00    -0.022 C  
HETATM   12  C   UNL     1      -6.496   7.138  69.463  1.00  0.00    -0.040 C  
HETATM   13  C   UNL     1      -6.138   5.787  70.146  1.00  0.00    -0.026 C  
HETATM   14  C   UNL     1      -7.242   4.934  70.751  1.00  0.00    -0.059 C  
ENDBRANCH   5   6
ENDBRANCH   2   4
BRANCH   3  15
HETATM   15  C   UNL     1     -10.705  12.595  67.478  1.00  0.00    -0.247 C  
HETATM   16  C   UNL     1     -10.910  12.699  66.157  1.00  0.00    -0.301 C  
BRANCH  16  17
HETATM   17  C   UNL     1     -11.281  13.956  65.491  1.00  0.00    -0.307 C  
HETATM   18  C   UNL     1     -10.600  16.431  65.187  1.00  0.00    -0.264 C  
HETATM   19  O   UNL     1      -9.998  17.335  65.752  1.00  0.00    -0.532 OA 
HETATM   20  C   UNL     1     -10.489  15.034  65.670  1.00  0.00    -0.368 C  
HETATM   21  C   UNL     1     -12.581  13.973  64.723  1.00  0.00    -0.326 C  
HETATM   22  O   UNL     1     -11.333  16.634  64.080  1.00  0.00    -1.141 OA 
ENDBRANCH  16  17
ENDBRANCH   3  15
TORSDOF 4
ENDMDL
MODEL      102
REMARK 921   NORMALIZED FREE ENERGY PREDICTED BY IDOCK:   -4.10 KCAL/MOL
REMARK 922        TOTAL FREE ENERGY PREDICTED BY IDOCK:   -5.68 KCAL/MOL
REMARK 923 INTER-LIGAND FREE ENERGY PREDICTED BY IDOCK:   -5.04 KCAL/MOL
REMARK 924 INTRA-LIGAND FREE ENERGY PREDICTED BY IDOCK:   -0.65 KCAL/MOL
REMARK 927      BINDING AFFINITY PREDICTED BY RF-SCORE:    0.00 PKD
ROOT
HETATM    1  C   UNL     1      -9.729   8.747  69.705  1.00  0.00    -0.179 C  
HETATM    2  C   UNL     1      -9.953   8.996  68.230  1.00  0.00    -0.198 C  
HETATM    3  C   UNL     1     -10.076   7.959  67.367  1.00  0.00    -0.292 C  
ENDROOT
BRANCH   2   4
HETATM    4  C   UNL     1     -10.038  10.374  67.738  1.00  0.00    -0.212 C  
HETATM    5  C   UNL     1     -11.015  10.903  66.979  1.00  0.00    -0.310 C  
BRANCH   5   6
HETATM    6  C   UNL     1     -11.059  12.291  66.514  1.00  0.00    -0.343 C  
HETATM    7  C   UNL     1     -11.921  11.814  64.175  1.00  0.00    -0.331 C  
HETATM    8  C   UNL     1     -11.355  13.301  67.360  1.00  0.00    -0.337 C  
HETATM    9  C   UNL     1     -11.418  14.741  66.942  1.00  0.00    -0.354 C  
HETATM   10  C   UNL     1     -11.697  13.131  68.827  1.00  0.00    -0.363 C  
HETATM   11  C   UNL     1      -9.458  11.830  64.615  1.00  0.00    -0.009 C  
HETATM   12  C   UNL     1     -10.804  12.495  65.008  1.00  0.00    -0.324 C  
HETATM   13  C   UNL     1     -10.713  13.977  64.544  1.00  0.00    -0.355 C  
HETATM   14  C   UNL     1     -11.129  15.089  65.494  1.00  0.00    -0.358 C  
ENDBRANCH   5   6
ENDBRANCH   2   4
BRANCH   3  15
HETATM   15  C   UNL     1     -10.040   6.564  67.777  1.00  0.00    -0.176 C  
HETATM   16  C   UNL     1      -9.325   5.582  67.209  1.00  0.00    -0.114 C  
BRANCH  16  17
HETATM   17  C   UNL     1      -9.388   4.179  67.643  1.00  0.00    -0.208 C  
HETATM   18  C   UNL     1      -9.427   2.641  69.721  1.00  0.00    -0.075 C  
HETATM   19  O   UNL     1      -9.073   2.605  70.892  1.00  0.00    -0.090 OA 
HETATM   20  C   UNL     1      -9.410   3.918  68.967  1.00  0.00    -0.237 C  
HETATM   21  C   UNL     1      -9.332   3.120  66.567  1.00  0.00    -0.120 C  
HETATM   22  O   UNL     1      -9.903   1.563  69.077  1.00  0.00    -0.050 OA 
ENDBRANCH  16  17
ENDBRANCH   3  15
TORSDOF 4
ENDMDL
MODEL      103
REMARK 921   NORMALIZED FREE ENERGY PREDICTED BY IDOCK:   -4.07 KCAL/MOL
REMARK 922        TOTAL FREE ENERGY PREDICTED BY IDOCK:   -5.64 KCAL/MOL
REMARK 923 INTER-LIGAND FREE ENERGY PREDICTED BY IDOCK:   -5.11 KCAL/MOL
REMARK 924 INTRA-LIGAND FREE ENERGY PREDICTED BY IDOCK:   -0.53 KCAL/MOL
REMARK 927      BINDING AFFINITY PREDICTED BY RF-SCORE:    0.00 PKD
ROOT
HETATM    1  C   UNL     1     -10.187  10.965  67.695  1.00  0.00    -0.214 C  
HETATM    2  C   UNL     1     -10.196  10.581  66.232  1.00  0.00    -0.296 C  
HETATM    3  C   UNL     1     -10.491  11.500  65.281  1.00  0.00    -0.336 C  
ENDROOT
BRANCH   2   4
HETATM    4  C   UNL     1      -9.879   9.204  65.846  1.00  0.00    -0.305 C  
HETATM    5  C   UNL     1      -8.975   8.390  66.421  1.00  0.00    -0.207 C  
BRANCH   5   6
HETATM    6  C   UNL     1      -8.697   7.014  66.002  1.00  0.00    -0.156 C  
HETATM    7  C   UNL     1      -6.206   7.301  65.609  1.00  0.00    -0.038 C  
HETATM    8  C   UNL     1      -9.380   5.974  66.527  1.00  0.00    -0.166 C  
HETATM    9  C   UNL     1      -9.138   4.544  66.140  1.00  0.00    -0.128 C  
HETATM   10  C   UNL     1     -10.451   6.090  67.593  1.00  0.00    -0.297 C  
HETATM   11  C   UNL     1      -7.819   7.751  63.751  1.00  0.00    -0.132 C  
HETATM   12  C   UNL     1      -7.552   6.849  64.984  1.00  0.00    -0.104 C  
HETATM   13  C   UNL     1      -7.352   5.406  64.438  1.00  0.00    -0.060 C  
HETATM   14  C   UNL     1      -8.075   4.244  65.101  1.00  0.00    -0.101 C  
ENDBRANCH   5   6
ENDBRANCH   2   4
BRANCH   3  15
HETATM   15  C   UNL     1     -10.780  12.895  65.573  1.00  0.00    -0.301 C  
HETATM   16  C   UNL     1      -9.884  13.862  65.820  1.00  0.00    -0.262 C  
BRANCH  16  17
HETATM   17  C   UNL     1     -10.257  15.241  66.168  1.00  0.00    -0.320 C  
HETATM   18  C   UNL     1     -10.491  16.902  68.136  1.00  0.00    -0.350 C  
HETATM   19  O   UNL     1     -10.686  16.933  69.344  1.00  0.00    -0.335 OA 
HETATM   20  C   UNL     1     -10.160  15.625  67.458  1.00  0.00    -0.253 C  
HETATM   21  C   UNL     1     -10.811  16.107  65.062  1.00  0.00    -0.380 C  
HETATM   22  O   UNL     1     -10.503  18.007  67.374  1.00  0.00    -0.369 OA 
ENDBRANCH  16  17
ENDBRANCH   3  15
TORSDOF 4
ENDMDL
MODEL      104
REMARK 921   NORMALIZED FREE ENERGY PREDICTED BY IDOCK:   -4.05 KCAL/MOL
REMARK 922        TOTAL FREE ENERGY PREDICTED BY IDOCK:   -5.62 KCAL/MOL
REMARK 923 INTER-LIGAND FREE ENERGY PREDICTED BY IDOCK:   -5.48 KCAL/MOL
REMARK 924 INTRA-LIGAND FREE ENERGY PREDICTED BY IDOCK:   -0.14 KCAL/MOL
REMARK 927      BINDING AFFINITY PREDICTED BY RF-SCORE:    0.00 PKD
ROOT
HETATM    1  C   UNL     1     -10.391  10.328  67.947  1.00  0.00    -0.234 C  
HETATM    2  C   UNL     1      -9.814   9.506  66.816  1.00  0.00    -0.277 C  
HETATM    3  C   UNL     1      -9.968   9.900  65.529  1.00  0.00    -0.363 C  
ENDROOT
BRANCH   2   4
HETATM    4  C   UNL     1      -9.081   8.274  67.123  1.00  0.00    -0.162 C  
HETATM    5  C   UNL     1      -8.291   7.574  66.288  1.00  0.00    -0.134 C  
BRANCH   5   6
HETATM    6  C   UNL     1      -7.573   6.347  66.644  1.00  0.00    -0.094 C  
HETATM    7  C   UNL     1      -6.398   6.013  64.419  1.00  0.00    -0.030 C  
HETATM    8  C   UNL     1      -7.128   6.139  67.901  1.00  0.00    -0.078 C  
HETATM    9  C   UNL     1      -6.385   4.906  68.324  1.00  0.00    -0.036 C  
HETATM   10  C   UNL     1      -7.280   7.119  69.047  1.00  0.00    -0.086 C  
HETATM   11  C   UNL     1      -8.668   5.028  64.788  1.00  0.00    -0.149 C  
HETATM   12  C   UNL     1      -7.322   5.365  65.483  1.00  0.00    -0.073 C  
HETATM   13  C   UNL     1      -6.685   4.005  65.889  1.00  0.00    -0.049 C  
HETATM   14  C   UNL     1      -6.121   3.828  67.290  1.00  0.00    -0.028 C  
ENDBRANCH   5   6
ENDBRANCH   2   4
BRANCH   3  15
HETATM   15  C   UNL     1     -10.647  11.125  65.140  1.00  0.00    -0.319 C  
HETATM   16  C   UNL     1     -10.078  12.317  64.911  1.00  0.00    -0.274 C  
BRANCH  16  17
HETATM   17  C   UNL     1     -10.841  13.529  64.579  1.00  0.00    -0.422 C  
HETATM   18  C   UNL     1     -10.938  16.089  64.923  1.00  0.00    -0.384 C  
HETATM   19  O   UNL     1     -10.596  16.963  65.709  1.00  0.00    -0.352 OA 
HETATM   20  C   UNL     1     -10.392  14.716  65.038  1.00  0.00    -0.432 C  
HETATM   21  C   UNL     1     -12.132  13.345  63.816  1.00  0.00    -0.516 C  
HETATM   22  O   UNL     1     -11.763  16.329  63.891  1.00  0.00    -0.986 OA 
ENDBRANCH  16  17
ENDBRANCH   3  15
TORSDOF 4
ENDMDL
MODEL      105
REMARK 921   NORMALIZED FREE ENERGY PREDICTED BY IDOCK:   -4.00 KCAL/MOL
REMARK 922        TOTAL FREE ENERGY PREDICTED BY IDOCK:   -5.56 KCAL/MOL
REMARK 923 INTER-LIGAND FREE ENERGY PREDICTED BY IDOCK:   -5.00 KCAL/MOL
REMARK 924 INTRA-LIGAND FREE ENERGY PREDICTED BY IDOCK:   -0.56 KCAL/MOL
REMARK 927      BINDING AFFINITY PREDICTED BY RF-SCORE:    0.00 PKD
ROOT
HETATM    1  C   UNL     1     -11.596  10.413  70.636  1.00  0.00    -0.440 C  
HETATM    2  C   UNL     1     -10.481  10.748  69.670  1.00  0.00    -0.183 C  
HETATM    3  C   UNL     1      -9.388   9.952  69.578  1.00  0.00    -0.236 C  
ENDROOT
BRANCH   2   4
HETATM    4  C   UNL     1     -10.590  11.943  68.830  1.00  0.00    -0.234 C  
HETATM    5  C   UNL     1      -9.663  12.422  67.980  1.00  0.00    -0.210 C  
BRANCH   5   6
HETATM    6  C   UNL     1      -9.821  13.622  67.155  1.00  0.00    -0.242 C  
HETATM    7  C   UNL     1     -12.113  13.063  66.220  1.00  0.00    -0.453 C  
HETATM    8  C   UNL     1      -9.307  14.808  67.544  1.00  0.00    -0.194 C  
HETATM    9  C   UNL     1      -9.439  16.071  66.744  1.00  0.00    -0.250 C  
HETATM   10  C   UNL     1      -8.562  15.045  68.843  1.00  0.00    -0.189 C  
HETATM   11  C   UNL     1     -10.058  12.275  65.031  1.00  0.00    -0.277 C  
HETATM   12  C   UNL     1     -10.650  13.439  65.869  1.00  0.00    -0.286 C  
HETATM   13  C   UNL     1     -10.698  14.677  64.928  1.00  0.00    -0.447 C  
HETATM   14  C   UNL     1     -10.183  16.019  65.424  1.00  0.00    -0.333 C  
ENDBRANCH   5   6
ENDBRANCH   2   4
BRANCH   3  15
HETATM   15  C   UNL     1      -9.217   8.730  70.347  1.00  0.00    -0.204 C  
HETATM   16  C   UNL     1      -8.687   7.578  69.910  1.00  0.00    -0.140 C  
BRANCH  16  17
HETATM   17  C   UNL     1      -8.602   6.362  70.733  1.00  0.00    -0.135 C  
HETATM   18  C   UNL     1      -7.147   5.120  72.471  1.00  0.00    -0.086 C  
HETATM   19  O   UNL     1      -5.987   5.014  72.847  1.00  0.00    -0.024 OA 
HETATM   20  C   UNL     1      -7.546   6.220  71.560  1.00  0.00    -0.099 C  
HETATM   21  C   UNL     1      -9.666   5.311  70.522  1.00  0.00    -0.254 C  
HETATM   22  O   UNL     1      -8.122   4.303  72.899  1.00  0.00    -0.088 OA 
ENDBRANCH  16  17
ENDBRANCH   3  15
TORSDOF 4
ENDMDL
MODEL      106
REMARK 921   NORMALIZED FREE ENERGY PREDICTED BY IDOCK:   -3.91 KCAL/MOL
REMARK 922        TOTAL FREE ENERGY PREDICTED BY IDOCK:   -5.45 KCAL/MOL
REMARK 923 INTER-LIGAND FREE ENERGY PREDICTED BY IDOCK:   -4.78 KCAL/MOL
REMARK 924 INTRA-LIGAND FREE ENERGY PREDICTED BY IDOCK:   -0.66 KCAL/MOL
REMARK 927      BINDING AFFINITY PREDICTED BY RF-SCORE:    0.00 PKD
ROOT
HETATM    1  C   UNL     1      -9.307  15.250  69.341  1.00  0.00    -0.228 C  
HETATM    2  C   UNL     1      -8.218  14.549  68.559  1.00  0.00    -0.154 C  
HETATM    3  C   UNL     1      -7.077  15.201  68.231  1.00  0.00    -0.114 C  
ENDROOT
BRANCH   2   4
HETATM    4  C   UNL     1      -8.406  13.152  68.157  1.00  0.00    -0.161 C  
HETATM    5  C   UNL     1      -8.419  12.666  66.903  1.00  0.00    -0.118 C  
BRANCH   5   6
HETATM    6  C   UNL     1      -8.606  11.256  66.550  1.00  0.00    -0.170 C  
HETATM    7  C   UNL     1     -10.196  11.625  64.607  1.00  0.00    -0.327 C  
HETATM    8  C   UNL     1      -7.604  10.363  66.696  1.00  0.00    -0.114 C  
HETATM    9  C   UNL     1      -7.734   8.909  66.349  1.00  0.00    -0.095 C  
HETATM   10  C   UNL     1      -6.210  10.697  67.190  1.00  0.00    -0.062 C  
HETATM   11  C   UNL     1     -11.101  11.370  66.926  1.00  0.00    -0.356 C  
HETATM   12  C   UNL     1      -9.983  10.897  65.960  1.00  0.00    -0.290 C  
HETATM   13  C   UNL     1     -10.225   9.379  65.717  1.00  0.00    -0.024 C  
HETATM   14  C   UNL     1      -9.060   8.407  65.811  1.00  0.00    -0.195 C  
ENDBRANCH   5   6
ENDBRANCH   2   4
BRANCH   3  15
HETATM   15  C   UNL     1      -6.795  16.573  68.621  1.00  0.00    -0.160 C  
HETATM   16  C   UNL     1      -6.389  17.566  67.816  1.00  0.00    -0.163 C  
BRANCH  16  17
HETATM   17  C   UNL     1      -6.064  18.917  68.296  1.00  0.00    -0.221 C  
HETATM   18  C   UNL     1      -5.926  20.399  70.409  1.00  0.00    -0.291 C  
HETATM   19  O   UNL     1      -6.398  20.511  71.533  1.00  0.00    -0.631 OA 
HETATM   20  C   UNL     1      -6.140  19.162  69.621  1.00  0.00    -0.295 C  
HETATM   21  C   UNL     1      -5.755  19.964  67.252  1.00  0.00    -0.176 C  
HETATM   22  O   UNL     1      -5.148  21.344  69.856  1.00  0.00    -0.440 OA 
ENDBRANCH  16  17
ENDBRANCH   3  15
TORSDOF 4
ENDMDL
MODEL      107
REMARK 921   NORMALIZED FREE ENERGY PREDICTED BY IDOCK:   -3.91 KCAL/MOL
REMARK 922        TOTAL FREE ENERGY PREDICTED BY IDOCK:   -5.44 KCAL/MOL
REMARK 923 INTER-LIGAND FREE ENERGY PREDICTED BY IDOCK:   -4.84 KCAL/MOL
REMARK 924 INTRA-LIGAND FREE ENERGY PREDICTED BY IDOCK:   -0.60 KCAL/MOL
REMARK 927      BINDING AFFINITY PREDICTED BY RF-SCORE:    0.00 PKD
ROOT
HETATM    1  C   UNL     1      -6.151  13.874  70.368  1.00  0.00    -0.143 C  
HETATM    2  C   UNL     1      -6.925  14.199  69.110  1.00  0.00    -0.111 C  
HETATM    3  C   UNL     1      -7.662  13.246  68.489  1.00  0.00    -0.120 C  
ENDROOT
BRANCH   2   4
HETATM    4  C   UNL     1      -6.874  15.558  68.563  1.00  0.00    -0.114 C  
HETATM    5  C   UNL     1      -7.679  16.588  68.880  1.00  0.00    -0.236 C  
BRANCH   5   6
HETATM    6  C   UNL     1      -7.585  17.934  68.308  1.00  0.00    -0.266 C  
HETATM    7  C   UNL     1     -10.051  18.225  67.780  1.00  0.00    -0.369 C  
HETATM    8  C   UNL     1      -6.685  18.827  68.772  1.00  0.00    -0.292 C  
HETATM    9  C   UNL     1      -6.544  20.219  68.230  1.00  0.00    -0.335 C  
HETATM   10  C   UNL     1      -5.720  18.572  69.913  1.00  0.00    -0.249 C  
HETATM   11  C   UNL     1      -8.529  17.185  66.088  1.00  0.00    -0.238 C  
HETATM   12  C   UNL     1      -8.611  18.259  67.205  1.00  0.00    -0.254 C  
HETATM   13  C   UNL     1      -8.419  19.636  66.506  1.00  0.00    -0.374 C  
HETATM   14  C   UNL     1      -7.455  20.652  67.097  1.00  0.00    -0.381 C  
ENDBRANCH   5   6
ENDBRANCH   2   4
BRANCH   3  15
HETATM   15  C   UNL     1      -7.797  11.886  68.983  1.00  0.00     0.099 C  
HETATM   16  C   UNL     1      -8.811  11.043  68.738  1.00  0.00    -0.149 C  
BRANCH  16  17
HETATM   17  C   UNL     1      -8.907   9.698  69.325  1.00  0.00    -0.164 C  
HETATM   18  C   UNL     1      -9.938   8.342  71.269  1.00  0.00    -0.204 C  
HETATM   19  O   UNL     1     -10.347   8.473  72.415  1.00  0.00    -0.320 OA 
HETATM   20  C   UNL     1      -9.670   9.532  70.425  1.00  0.00    -0.328 C  
HETATM   21  C   UNL     1      -8.064   8.611  68.700  1.00  0.00    -0.117 C  
HETATM   22  O   UNL     1      -9.769   7.141  70.694  1.00  0.00    -0.176 OA 
ENDBRANCH  16  17
ENDBRANCH   3  15
TORSDOF 4
ENDMDL
MODEL      108
REMARK 921   NORMALIZED FREE ENERGY PREDICTED BY IDOCK:   -3.89 KCAL/MOL
REMARK 922        TOTAL FREE ENERGY PREDICTED BY IDOCK:   -5.43 KCAL/MOL
REMARK 923 INTER-LIGAND FREE ENERGY PREDICTED BY IDOCK:   -4.91 KCAL/MOL
REMARK 924 INTRA-LIGAND FREE ENERGY PREDICTED BY IDOCK:   -0.52 KCAL/MOL
REMARK 927      BINDING AFFINITY PREDICTED BY RF-SCORE:    0.00 PKD
ROOT
HETATM    1  C   UNL     1      -9.784  10.012  64.684  1.00  0.00    -0.339 C  
HETATM    2  C   UNL     1      -9.363  10.545  66.035  1.00  0.00    -0.215 C  
HETATM    3  C   UNL     1      -8.807   9.722  66.957  1.00  0.00    -0.145 C  
ENDROOT
BRANCH   2   4
HETATM    4  C   UNL     1      -9.559  11.964  66.343  1.00  0.00    -0.239 C  
HETATM    5  C   UNL     1      -9.675  12.519  67.563  1.00  0.00    -0.196 C  
BRANCH   5   6
HETATM    6  C   UNL     1      -9.866  13.949  67.821  1.00  0.00    -0.237 C  
HETATM    7  C   UNL     1     -11.764  13.718  69.489  1.00  0.00    -0.380 C  
HETATM    8  C   UNL     1      -8.822  14.805  67.805  1.00  0.00    -0.175 C  
HETATM    9  C   UNL     1      -8.955  16.278  68.064  1.00  0.00    -0.187 C  
HETATM   10  C   UNL     1      -7.380  14.410  67.560  1.00  0.00    -0.208 C  
HETATM   11  C   UNL     1     -12.269  13.889  67.045  1.00  0.00    -0.392 C  
HETATM   12  C   UNL     1     -11.307  14.375  68.161  1.00  0.00    -0.317 C  
HETATM   13  C   UNL     1     -11.531  15.909  68.297  1.00  0.00    -0.320 C  
HETATM   14  C   UNL     1     -10.332  16.842  68.355  1.00  0.00    -0.338 C  
ENDBRANCH   5   6
ENDBRANCH   2   4
BRANCH   3  15
HETATM   15  C   UNL     1      -8.544   8.312  66.722  1.00  0.00    -0.131 C  
HETATM   16  C   UNL     1      -9.448   7.321  66.709  1.00  0.00    -0.218 C  
BRANCH  16  17
HETATM   17  C   UNL     1      -9.095   5.906  66.523  1.00  0.00    -0.149 C  
HETATM   18  C   UNL     1      -9.443   3.530  67.478  1.00  0.00    -0.186 C  
HETATM   19  O   UNL     1      -9.708   2.947  68.522  1.00  0.00    -0.103 OA 
HETATM   20  C   UNL     1      -9.625   4.997  67.367  1.00  0.00    -0.164 C  
HETATM   21  C   UNL     1      -8.086   5.582  65.446  1.00  0.00    -0.123 C  
HETATM   22  O   UNL     1      -9.039   2.883  66.373  1.00  0.00    -0.147 OA 
ENDBRANCH  16  17
ENDBRANCH   3  15
TORSDOF 4
ENDMDL
MODEL      109
REMARK 921   NORMALIZED FREE ENERGY PREDICTED BY IDOCK:   -3.84 KCAL/MOL
REMARK 922        TOTAL FREE ENERGY PREDICTED BY IDOCK:   -5.36 KCAL/MOL
REMARK 923 INTER-LIGAND FREE ENERGY PREDICTED BY IDOCK:   -4.85 KCAL/MOL
REMARK 924 INTRA-LIGAND FREE ENERGY PREDICTED BY IDOCK:   -0.51 KCAL/MOL
REMARK 927      BINDING AFFINITY PREDICTED BY RF-SCORE:    0.00 PKD
ROOT
HETATM    1  C   UNL     1     -10.817  10.699  67.042  1.00  0.00    -0.298 C  
HETATM    2  C   UNL     1     -10.038  10.575  68.333  1.00  0.00    -0.181 C  
HETATM    3  C   UNL     1      -9.216  11.573  68.739  1.00  0.00    -0.076 C  
ENDROOT
BRANCH   2   4
HETATM    4  C   UNL     1     -10.178   9.365  69.146  1.00  0.00    -0.209 C  
HETATM    5  C   UNL     1      -9.198   8.521  69.517  1.00  0.00    -0.150 C  
BRANCH   5   6
HETATM    6  C   UNL     1      -9.388   7.322  70.338  1.00  0.00    -0.158 C  
HETATM    7  C   UNL     1      -8.657   5.628  68.595  1.00  0.00    -0.104 C  
HETATM    8  C   UNL     1      -9.170   7.348  71.670  1.00  0.00    -0.154 C  
HETATM    9  C   UNL     1      -9.344   6.153  72.561  1.00  0.00    -0.140 C  
HETATM   10  C   UNL     1      -8.692   8.558  72.447  1.00  0.00    -0.242 C  
HETATM   11  C   UNL     1     -11.054   6.332  68.717  1.00  0.00    -0.424 C  
HETATM   12  C   UNL     1      -9.789   6.048  69.569  1.00  0.00    -0.202 C  
HETATM   13  C   UNL     1     -10.124   4.815  70.456  1.00  0.00    -0.291 C  
HETATM   14  C   UNL     1      -9.794   4.844  71.941  1.00  0.00    -0.241 C  
ENDBRANCH   5   6
ENDBRANCH   2   4
BRANCH   3  15
HETATM   15  C   UNL     1      -9.046  12.821  68.012  1.00  0.00    -0.207 C  
HETATM   16  C   UNL     1      -9.826  13.909  68.098  1.00  0.00    -0.240 C  
BRANCH  16  17
HETATM   17  C   UNL     1      -9.625  15.115  67.282  1.00  0.00    -0.211 C  
HETATM   18  C   UNL     1      -7.949  17.006  66.738  1.00  0.00    -0.239 C  
HETATM   19  O   UNL     1      -7.012  17.625  67.226  1.00  0.00    -0.160 OA 
HETATM   20  C   UNL     1      -8.445  15.763  67.376  1.00  0.00    -0.191 C  
HETATM   21  C   UNL     1     -10.798  15.597  66.461  1.00  0.00    -0.260 C  
HETATM   22  O   UNL     1      -8.533  17.371  65.585  1.00  0.00    -0.468 OA 
ENDBRANCH  16  17
ENDBRANCH   3  15
TORSDOF 4
ENDMDL
MODEL      110
REMARK 921   NORMALIZED FREE ENERGY PREDICTED BY IDOCK:   -3.82 KCAL/MOL
REMARK 922        TOTAL FREE ENERGY PREDICTED BY IDOCK:   -5.33 KCAL/MOL
REMARK 923 INTER-LIGAND FREE ENERGY PREDICTED BY IDOCK:   -4.79 KCAL/MOL
REMARK 924 INTRA-LIGAND FREE ENERGY PREDICTED BY IDOCK:   -0.54 KCAL/MOL
REMARK 927      BINDING AFFINITY PREDICTED BY RF-SCORE:    0.00 PKD
ROOT
HETATM    1  C   UNL     1      -7.950  10.737  68.986  1.00  0.00    -0.137 C  
HETATM    2  C   UNL     1      -9.084   9.823  68.581  1.00  0.00    -0.130 C  
HETATM    3  C   UNL     1     -10.247  10.336  68.110  1.00  0.00    -0.192 C  
ENDROOT
BRANCH   2   4
HETATM    4  C   UNL     1      -8.918   8.372  68.700  1.00  0.00    -0.140 C  
HETATM    5  C   UNL     1      -9.880   7.466  68.952  1.00  0.00    -0.157 C  
BRANCH   5   6
HETATM    6  C   UNL     1      -9.665   6.020  69.057  1.00  0.00    -0.161 C  
HETATM    7  C   UNL     1      -7.970   5.816  67.179  1.00  0.00    -0.102 C  
HETATM    8  C   UNL     1      -9.718   5.393  70.251  1.00  0.00    -0.254 C  
HETATM    9  C   UNL     1      -9.503   3.917  70.423  1.00  0.00    -0.252 C  
HETATM   10  C   UNL     1      -9.965   6.079  71.580  1.00  0.00    -0.211 C  
HETATM   11  C   UNL     1     -10.413   5.616  66.678  1.00  0.00    -0.340 C  
HETATM   12  C   UNL     1      -9.323   5.302  67.737  1.00  0.00    -0.130 C  
HETATM   13  C   UNL     1      -9.232   3.752  67.829  1.00  0.00    -0.216 C  
HETATM   14  C   UNL     1      -9.215   3.078  69.192  1.00  0.00    -0.222 C  
ENDBRANCH   5   6
ENDBRANCH   2   4
BRANCH   3  15
HETATM   15  C   UNL     1     -10.481  11.759  67.926  1.00  0.00    -0.219 C  
HETATM   16  C   UNL     1     -10.359  12.448  66.782  1.00  0.00    -0.239 C  
BRANCH  16  17
HETATM   17  C   UNL     1     -10.555  13.902  66.687  1.00  0.00    -0.274 C  
HETATM   18  C   UNL     1     -10.374  16.119  68.004  1.00  0.00    -0.271 C  
HETATM   19  O   UNL     1     -10.402  16.558  69.146  1.00  0.00    -0.276 OA 
HETATM   20  C   UNL     1     -10.253  14.661  67.761  1.00  0.00    -0.229 C  
HETATM   21  C   UNL     1     -11.172  14.434  65.414  1.00  0.00    -0.335 C  
HETATM   22  O   UNL     1     -10.388  16.915  66.924  1.00  0.00    -0.306 OA 
ENDBRANCH  16  17
ENDBRANCH   3  15
TORSDOF 4
ENDMDL
MODEL      111
REMARK 921   NORMALIZED FREE ENERGY PREDICTED BY IDOCK:   -3.80 KCAL/MOL
REMARK 922        TOTAL FREE ENERGY PREDICTED BY IDOCK:   -5.31 KCAL/MOL
REMARK 923 INTER-LIGAND FREE ENERGY PREDICTED BY IDOCK:   -4.79 KCAL/MOL
REMARK 924 INTRA-LIGAND FREE ENERGY PREDICTED BY IDOCK:   -0.52 KCAL/MOL
REMARK 927      BINDING AFFINITY PREDICTED BY RF-SCORE:    0.00 PKD
ROOT
HETATM    1  C   UNL     1      -9.820   9.982  64.625  1.00  0.00    -0.288 C  
HETATM    2  C   UNL     1      -9.334  10.752  65.833  1.00  0.00    -0.220 C  
HETATM    3  C   UNL     1      -8.980  10.101  66.968  1.00  0.00    -0.148 C  
ENDROOT
BRANCH   2   4
HETATM    4  C   UNL     1      -9.245  12.213  65.768  1.00  0.00    -0.019 C  
HETATM    5  C   UNL     1      -9.385  13.079  66.789  1.00  0.00    -0.244 C  
BRANCH   5   6
HETATM    6  C   UNL     1      -9.283  14.536  66.675  1.00  0.00    -0.290 C  
HETATM    7  C   UNL     1     -11.706  15.065  67.213  1.00  0.00    -0.238 C  
HETATM    8  C   UNL     1      -8.152  15.185  67.027  1.00  0.00    -0.240 C  
HETATM    9  C   UNL     1      -7.989  16.674  66.936  1.00  0.00    -0.255 C  
HETATM   10  C   UNL     1      -6.912  14.521  67.590  1.00  0.00    -0.204 C  
HETATM   11  C   UNL     1     -11.023  14.633  64.846  1.00  0.00    -0.419 C  
HETATM   12  C   UNL     1     -10.557  15.254  66.189  1.00  0.00    -0.318 C  
HETATM   13  C   UNL     1     -10.402  16.782  65.937  1.00  0.00    -0.341 C  
HETATM   14  C   UNL     1      -9.150  17.500  66.416  1.00  0.00    -0.264 C  
ENDBRANCH   5   6
ENDBRANCH   2   4
BRANCH   3  15
HETATM   15  C   UNL     1      -9.003   8.654  67.105  1.00  0.00    -0.148 C  
HETATM   16  C   UNL     1      -9.969   7.920  67.676  1.00  0.00    -0.234 C  
BRANCH  16  17
HETATM   17  C   UNL     1      -9.893   6.461  67.832  1.00  0.00    -0.130 C  
HETATM   18  C   UNL     1      -8.769   4.566  69.185  1.00  0.00    -0.084 C  
HETATM   19  O   UNL     1      -7.758   4.320  69.830  1.00  0.00    -0.053 OA 
HETATM   20  C   UNL     1      -9.097   5.960  68.800  1.00  0.00    -0.116 C  
HETATM   21  C   UNL     1     -10.647   5.619  66.829  1.00  0.00    -0.372 C  
HETATM   22  O   UNL     1      -9.658   3.618  68.846  1.00  0.00    -0.163 OA 
ENDBRANCH  16  17
ENDBRANCH   3  15
TORSDOF 4
ENDMDL
MODEL      112
REMARK 921   NORMALIZED FREE ENERGY PREDICTED BY IDOCK:   -3.79 KCAL/MOL
REMARK 922        TOTAL FREE ENERGY PREDICTED BY IDOCK:   -5.29 KCAL/MOL
REMARK 923 INTER-LIGAND FREE ENERGY PREDICTED BY IDOCK:   -4.65 KCAL/MOL
REMARK 924 INTRA-LIGAND FREE ENERGY PREDICTED BY IDOCK:   -0.64 KCAL/MOL
REMARK 927      BINDING AFFINITY PREDICTED BY RF-SCORE:    0.00 PKD
ROOT
HETATM    1  C   UNL     1     -11.269   9.351  69.855  1.00  0.00    -0.180 C  
HETATM    2  C   UNL     1      -9.773   9.397  70.071  1.00  0.00    -0.255 C  
HETATM    3  C   UNL     1      -8.986  10.166  69.281  1.00  0.00    -0.193 C  
ENDROOT
BRANCH   2   4
HETATM    4  C   UNL     1      -9.176   8.601  71.147  1.00  0.00    -0.269 C  
HETATM    5  C   UNL     1      -9.043   7.262  71.185  1.00  0.00    -0.152 C  
BRANCH   5   6
HETATM    6  C   UNL     1      -8.433   6.510  72.285  1.00  0.00    -0.112 C  
HETATM    7  C   UNL     1     -10.265   4.771  72.532  1.00  0.00    -0.245 C  
HETATM    8  C   UNL     1      -7.092   6.380  72.380  1.00  0.00    -0.082 C  
HETATM    9  C   UNL     1      -6.410   5.620  73.479  1.00  0.00    -0.070 C  
HETATM   10  C   UNL     1      -6.094   6.943  71.388  1.00  0.00    -0.037 C  
HETATM   11  C   UNL     1     -10.402   6.916  73.813  1.00  0.00    -0.409 C  
HETATM   12  C   UNL     1      -9.420   5.847  73.264  1.00  0.00    -0.142 C  
HETATM   13  C   UNL     1      -8.771   5.168  74.504  1.00  0.00    -0.108 C  
HETATM   14  C   UNL     1      -7.265   4.964  74.547  1.00  0.00    -0.077 C  
ENDBRANCH   5   6
ENDBRANCH   2   4
BRANCH   3  15
HETATM   15  C   UNL     1      -9.500  11.013  68.217  1.00  0.00    -0.172 C  
HETATM   16  C   UNL     1      -9.515  12.354  68.199  1.00  0.00    -0.214 C  
BRANCH  16  17
HETATM   17  C   UNL     1     -10.109  13.143  67.109  1.00  0.00    -0.242 C  
HETATM   18  C   UNL     1     -10.778  13.075  64.613  1.00  0.00    -0.367 C  
HETATM   19  O   UNL     1     -10.497  12.515  63.562  1.00  0.00    -0.420 OA 
HETATM   20  C   UNL     1     -10.265  12.557  65.904  1.00  0.00    -0.280 C  
HETATM   21  C   UNL     1     -10.420  14.593  67.397  1.00  0.00    -0.255 C  
HETATM   22  O   UNL     1     -11.602  14.133  64.670  1.00  0.00    -0.373 OA 
ENDBRANCH  16  17
ENDBRANCH   3  15
TORSDOF 4
ENDMDL
MODEL      113
REMARK 921   NORMALIZED FREE ENERGY PREDICTED BY IDOCK:   -3.78 KCAL/MOL
REMARK 922        TOTAL FREE ENERGY PREDICTED BY IDOCK:   -5.28 KCAL/MOL
REMARK 923 INTER-LIGAND FREE ENERGY PREDICTED BY IDOCK:   -4.66 KCAL/MOL
REMARK 924 INTRA-LIGAND FREE ENERGY PREDICTED BY IDOCK:   -0.62 KCAL/MOL
REMARK 927      BINDING AFFINITY PREDICTED BY RF-SCORE:    0.00 PKD
ROOT
HETATM    1  C   UNL     1      -7.908  10.620  68.669  1.00  0.00    -0.121 C  
HETATM    2  C   UNL     1      -8.730   9.617  67.891  1.00  0.00    -0.119 C  
HETATM    3  C   UNL     1     -10.031   9.402  68.205  1.00  0.00    -0.202 C  
ENDROOT
BRANCH   2   4
HETATM    4  C   UNL     1      -8.110   8.876  66.789  1.00  0.00    -0.111 C  
HETATM    5  C   UNL     1      -8.736   8.311  65.741  1.00  0.00    -0.196 C  
BRANCH   5   6
HETATM    6  C   UNL     1      -8.069   7.582  64.658  1.00  0.00    -0.101 C  
HETATM    7  C   UNL     1      -6.312   9.336  64.132  1.00  0.00    -0.086 C  
HETATM    8  C   UNL     1      -7.974   6.236  64.681  1.00  0.00    -0.120 C  
HETATM    9  C   UNL     1      -7.301   5.435  63.604  1.00  0.00    -0.053 C  
HETATM   10  C   UNL     1      -8.493   5.348  65.794  1.00  0.00    -0.131 C  
HETATM   11  C   UNL     1      -8.532   9.414  62.981  1.00  0.00    -0.204 C  
HETATM   12  C   UNL     1      -7.451   8.458  63.551  1.00  0.00    -0.117 C  
HETATM   13  C   UNL     1      -6.868   7.679  62.337  1.00  0.00    -0.076 C  
HETATM   14  C   UNL     1      -6.699   6.170  62.422  1.00  0.00    -0.037 C  
ENDBRANCH   5   6
ENDBRANCH   2   4
BRANCH   3  15
HETATM   15  C   UNL     1     -10.733  10.119  69.257  1.00  0.00    -0.259 C  
HETATM   16  C   UNL     1     -11.537  11.181  69.101  1.00  0.00    -0.393 C  
BRANCH  16  17
HETATM   17  C   UNL     1     -12.166  11.892  70.224  1.00  0.00    -0.353 C  
HETATM   18  C   UNL     1     -12.688  14.239  71.172  1.00  0.00    -0.360 C  
HETATM   19  O   UNL     1     -12.284  15.394  71.145  1.00  0.00    -0.309 OA 
HETATM   20  C   UNL     1     -12.183  13.241  70.199  1.00  0.00    -0.376 C  
HETATM   21  C   UNL     1     -12.670  11.055  71.376  1.00  0.00    -0.534 C  
HETATM   22  O   UNL     1     -13.640  13.827  72.025  1.00  0.00    -0.401 OA 
ENDBRANCH  16  17
ENDBRANCH   3  15
TORSDOF 4
ENDMDL
MODEL      114
REMARK 921   NORMALIZED FREE ENERGY PREDICTED BY IDOCK:   -3.75 KCAL/MOL
REMARK 922        TOTAL FREE ENERGY PREDICTED BY IDOCK:   -5.25 KCAL/MOL
REMARK 923 INTER-LIGAND FREE ENERGY PREDICTED BY IDOCK:   -4.73 KCAL/MOL
REMARK 924 INTRA-LIGAND FREE ENERGY PREDICTED BY IDOCK:   -0.52 KCAL/MOL
REMARK 927      BINDING AFFINITY PREDICTED BY RF-SCORE:    0.00 PKD
ROOT
HETATM    1  C   UNL     1      -7.245  10.405  66.528  1.00  0.00    -0.118 C  
HETATM    2  C   UNL     1      -8.486  10.078  67.328  1.00  0.00    -0.122 C  
HETATM    3  C   UNL     1      -9.419  11.031  67.572  1.00  0.00    -0.175 C  
ENDROOT
BRANCH   2   4
HETATM    4  C   UNL     1      -8.677   8.718  67.838  1.00  0.00    -0.136 C  
HETATM    5  C   UNL     1      -8.093   7.594  67.383  1.00  0.00    -0.119 C  
BRANCH   5   6
HETATM    6  C   UNL     1      -8.312   6.253  67.930  1.00  0.00    -0.118 C  
HETATM    7  C   UNL     1      -6.678   6.430  69.863  1.00  0.00    -0.053 C  
HETATM    8  C   UNL     1      -9.527   5.666  67.870  1.00  0.00    -0.120 C  
HETATM    9  C   UNL     1      -9.813   4.297  68.416  1.00  0.00    -0.104 C  
HETATM   10  C   UNL     1     -10.770   6.304  67.283  1.00  0.00    -0.424 C  
HETATM   11  C   UNL     1      -5.888   5.607  67.636  1.00  0.00    -0.013 C  
HETATM   12  C   UNL     1      -7.092   5.608  68.615  1.00  0.00    -0.066 C  
HETATM   13  C   UNL     1      -7.289   4.133  69.071  1.00  0.00    -0.055 C  
HETATM   14  C   UNL     1      -8.682   3.524  69.066  1.00  0.00    -0.139 C  
ENDBRANCH   5   6
ENDBRANCH   2   4
BRANCH   3  15
HETATM   15  C   UNL     1      -9.326  12.393  67.073  1.00  0.00    -0.204 C  
HETATM   16  C   UNL     1     -10.331  13.137  66.589  1.00  0.00    -0.265 C  
BRANCH  16  17
HETATM   17  C   UNL     1     -10.148  14.491  66.045  1.00  0.00    -0.336 C  
HETATM   18  C   UNL     1     -11.237  16.303  64.558  1.00  0.00    -0.207 C  
HETATM   19  O   UNL     1     -12.025  16.434  63.631  1.00  0.00    -0.811 OA 
HETATM   20  C   UNL     1     -11.129  15.012  65.279  1.00  0.00    -0.391 C  
HETATM   21  C   UNL     1      -8.824  15.168  66.311  1.00  0.00    -0.211 C  
HETATM   22  O   UNL     1     -10.481  17.316  65.011  1.00  0.00    -0.538 OA 
ENDBRANCH  16  17
ENDBRANCH   3  15
TORSDOF 4
ENDMDL
MODEL      115
REMARK 921   NORMALIZED FREE ENERGY PREDICTED BY IDOCK:   -3.71 KCAL/MOL
REMARK 922        TOTAL FREE ENERGY PREDICTED BY IDOCK:   -5.19 KCAL/MOL
REMARK 923 INTER-LIGAND FREE ENERGY PREDICTED BY IDOCK:   -4.58 KCAL/MOL
REMARK 924 INTRA-LIGAND FREE ENERGY PREDICTED BY IDOCK:   -0.62 KCAL/MOL
REMARK 927      BINDING AFFINITY PREDICTED BY RF-SCORE:    0.00 PKD
ROOT
HETATM    1  C   UNL     1     -11.413   8.837  71.987  1.00  0.00    -0.441 C  
HETATM    2  C   UNL     1     -10.868   8.871  70.577  1.00  0.00    -0.276 C  
HETATM    3  C   UNL     1      -9.941   7.968  70.175  1.00  0.00    -0.191 C  
ENDROOT
BRANCH   2   4
HETATM    4  C   UNL     1     -11.352   9.890  69.642  1.00  0.00    -0.212 C  
HETATM    5  C   UNL     1     -10.657  10.932  69.150  1.00  0.00    -0.253 C  
BRANCH   5   6
HETATM    6  C   UNL     1     -11.185  11.925  68.211  1.00  0.00    -0.317 C  
HETATM    7  C   UNL     1     -10.136  13.969  69.290  1.00  0.00     0.122 C  
HETATM    8  C   UNL     1     -11.362  11.625  66.907  1.00  0.00    -0.364 C  
HETATM    9  C   UNL     1     -11.895  12.600  65.897  1.00  0.00    -0.499 C  
HETATM   10  C   UNL     1     -11.023  10.292  66.270  1.00  0.00     0.131 C  
HETATM   11  C   UNL     1     -12.391  13.186  70.038  1.00  0.00    -0.241 C  
HETATM   12  C   UNL     1     -11.459  13.320  68.805  1.00  0.00    -0.346 C  
HETATM   13  C   UNL     1     -12.147  14.329  67.841  1.00  0.00    -0.296 C  
HETATM   14  C   UNL     1     -12.262  13.997  66.361  1.00  0.00    -0.492 C  
ENDBRANCH   5   6
ENDBRANCH   2   4
BRANCH   3  15
HETATM   15  C   UNL     1      -9.434   6.903  71.026  1.00  0.00    -0.163 C  
HETATM   16  C   UNL     1      -9.089   5.666  70.638  1.00  0.00    -0.168 C  
BRANCH  16  17
HETATM   17  C   UNL     1      -8.641   4.621  71.570  1.00  0.00    -0.125 C  
HETATM   18  C   UNL     1      -7.290   4.199  73.733  1.00  0.00    -0.075 C  
HETATM   19  O   UNL     1      -6.378   4.671  74.400  1.00  0.00    -0.049 OA 
HETATM   20  C   UNL     1      -7.918   4.991  72.648  1.00  0.00    -0.098 C  
HETATM   21  C   UNL     1      -8.948   3.189  71.201  1.00  0.00    -0.164 C  
HETATM   22  O   UNL     1      -7.810   2.986  73.978  1.00  0.00    -0.062 OA 
ENDBRANCH  16  17
ENDBRANCH   3  15
TORSDOF 4
ENDMDL
MODEL      116
REMARK 921   NORMALIZED FREE ENERGY PREDICTED BY IDOCK:   -3.71 KCAL/MOL
REMARK 922        TOTAL FREE ENERGY PREDICTED BY IDOCK:   -5.19 KCAL/MOL
REMARK 923 INTER-LIGAND FREE ENERGY PREDICTED BY IDOCK:   -4.59 KCAL/MOL
REMARK 924 INTRA-LIGAND FREE ENERGY PREDICTED BY IDOCK:   -0.60 KCAL/MOL
REMARK 927      BINDING AFFINITY PREDICTED BY RF-SCORE:    0.00 PKD
ROOT
HETATM    1  C   UNL     1      -7.387  10.225  66.507  1.00  0.00    -0.113 C  
HETATM    2  C   UNL     1      -8.663  10.399  67.301  1.00  0.00    -0.125 C  
HETATM    3  C   UNL     1      -9.460   9.336  67.564  1.00  0.00    -0.160 C  
ENDROOT
BRANCH   2   4
HETATM    4  C   UNL     1      -9.032  11.731  67.788  1.00  0.00    -0.173 C  
HETATM    5  C   UNL     1      -9.403  12.790  67.045  1.00  0.00    -0.229 C  
BRANCH   5   6
HETATM    6  C   UNL     1      -9.769  14.104  67.580  1.00  0.00    -0.234 C  
HETATM    7  C   UNL     1     -11.586  13.306  69.162  1.00  0.00    -0.370 C  
HETATM    8  C   UNL     1      -8.844  15.074  67.737  1.00  0.00    -0.172 C  
HETATM    9  C   UNL     1      -9.157  16.437  68.283  1.00  0.00    -0.207 C  
HETATM   10  C   UNL     1      -7.368  14.924  67.425  1.00  0.00    -0.222 C  
HETATM   11  C   UNL     1     -12.162  13.888  66.798  1.00  0.00    -0.438 C  
HETATM   12  C   UNL     1     -11.245  14.265  67.992  1.00  0.00    -0.300 C  
HETATM   13  C   UNL     1     -11.660  15.700  68.427  1.00  0.00    -0.358 C  
HETATM   14  C   UNL     1     -10.589  16.750  68.674  1.00  0.00    -0.353 C  
ENDBRANCH   5   6
ENDBRANCH   2   4
BRANCH   3  15
HETATM   15  C   UNL     1      -9.150   7.977  67.150  1.00  0.00    -0.159 C  
HETATM   16  C   UNL     1     -10.024   7.050  66.730  1.00  0.00    -0.266 C  
BRANCH  16  17
HETATM   17  C   UNL     1      -9.641   5.673  66.386  1.00  0.00    -0.175 C  
HETATM   18  C   UNL     1      -8.460   4.225  64.600  1.00  0.00    -0.117 C  
HETATM   19  O   UNL     1      -8.189   4.209  63.406  1.00  0.00    -0.087 OA 
HETATM   20  C   UNL     1      -8.950   5.466  65.245  1.00  0.00    -0.104 C  
HETATM   21  C   UNL     1     -10.132   4.572  67.295  1.00  0.00    -0.138 C  
HETATM   22  O   UNL     1      -8.276   3.159  65.396  1.00  0.00    -0.092 OA 
ENDBRANCH  16  17
ENDBRANCH   3  15
TORSDOF 4
ENDMDL
MODEL      117
REMARK 921   NORMALIZED FREE ENERGY PREDICTED BY IDOCK:   -3.67 KCAL/MOL
REMARK 922        TOTAL FREE ENERGY PREDICTED BY IDOCK:   -5.15 KCAL/MOL
REMARK 923 INTER-LIGAND FREE ENERGY PREDICTED BY IDOCK:   -4.56 KCAL/MOL
REMARK 924 INTRA-LIGAND FREE ENERGY PREDICTED BY IDOCK:   -0.59 KCAL/MOL
REMARK 927      BINDING AFFINITY PREDICTED BY RF-SCORE:    0.00 PKD
ROOT
HETATM    1  C   UNL     1      -8.410  10.713  69.418  1.00  0.00    -0.073 C  
HETATM    2  C   UNL     1      -9.731  10.139  68.954  1.00  0.00    -0.189 C  
HETATM    3  C   UNL     1     -10.833  10.924  68.875  1.00  0.00    -0.262 C  
ENDROOT
BRANCH   2   4
HETATM    4  C   UNL     1      -9.811   8.723  68.587  1.00  0.00    -0.180 C  
HETATM    5  C   UNL     1      -8.795   7.842  68.532  1.00  0.00    -0.134 C  
BRANCH   5   6
HETATM    6  C   UNL     1      -8.927   6.430  68.163  1.00  0.00    -0.116 C  
HETATM    7  C   UNL     1     -10.740   5.834  69.837  1.00  0.00    -0.412 C  
HETATM    8  C   UNL     1      -8.755   6.025  66.887  1.00  0.00    -0.112 C  
HETATM    9  C   UNL     1      -8.880   4.595  66.448  1.00  0.00    -0.112 C  
HETATM   10  C   UNL     1      -8.449   6.942  65.720  1.00  0.00    -0.150 C  
HETATM   11  C   UNL     1      -8.332   5.644  70.489  1.00  0.00    -0.117 C  
HETATM   12  C   UNL     1      -9.325   5.479  69.308  1.00  0.00    -0.153 C  
HETATM   13  C   UNL     1      -9.328   3.967  68.945  1.00  0.00    -0.231 C  
HETATM   14  C   UNL     1      -9.212   3.543  67.489  1.00  0.00    -0.224 C  
ENDBRANCH   5   6
ENDBRANCH   2   4
BRANCH   3  15
HETATM   15  C   UNL     1     -10.832  12.344  69.185  1.00  0.00    -0.148 C  
HETATM   16  C   UNL     1     -10.979  13.353  68.313  1.00  0.00    -0.282 C  
BRANCH  16  17
HETATM   17  C   UNL     1     -10.906  14.770  68.694  1.00  0.00    -0.257 C  
HETATM   18  C   UNL     1      -9.408  16.876  68.610  1.00  0.00    -0.268 C  
HETATM   19  O   UNL     1      -8.233  17.213  68.541  1.00  0.00    -0.243 OA 
HETATM   20  C   UNL     1      -9.806  15.472  68.347  1.00  0.00    -0.210 C  
HETATM   21  C   UNL     1     -12.037  15.319  69.532  1.00  0.00    -0.320 C  
HETATM   22  O   UNL     1     -10.396  17.750  68.862  1.00  0.00    -0.368 OA 
ENDBRANCH  16  17
ENDBRANCH   3  15
TORSDOF 4
ENDMDL
MODEL      118
REMARK 921   NORMALIZED FREE ENERGY PREDICTED BY IDOCK:   -3.66 KCAL/MOL
REMARK 922        TOTAL FREE ENERGY PREDICTED BY IDOCK:   -5.14 KCAL/MOL
REMARK 923 INTER-LIGAND FREE ENERGY PREDICTED BY IDOCK:   -4.58 KCAL/MOL
REMARK 924 INTRA-LIGAND FREE ENERGY PREDICTED BY IDOCK:   -0.55 KCAL/MOL
REMARK 927      BINDING AFFINITY PREDICTED BY RF-SCORE:    0.00 PKD
ROOT
HETATM    1  C   UNL     1     -10.087   9.248  70.402  1.00  0.00    -0.287 C  
HETATM    2  C   UNL     1      -9.968   8.744  68.980  1.00  0.00    -0.197 C  
HETATM    3  C   UNL     1     -10.150   9.586  67.934  1.00  0.00    -0.234 C  
ENDROOT
BRANCH   2   4
HETATM    4  C   UNL     1      -9.653   7.334  68.739  1.00  0.00    -0.142 C  
HETATM    5  C   UNL     1      -8.450   6.742  68.858  1.00  0.00    -0.120 C  
BRANCH   5   6
HETATM    6  C   UNL     1      -8.184   5.323  68.610  1.00  0.00    -0.093 C  
HETATM    7  C   UNL     1      -6.419   5.641  66.815  1.00  0.00    -0.050 C  
HETATM    8  C   UNL     1      -8.255   4.416  69.608  1.00  0.00    -0.064 C  
HETATM    9  C   UNL     1      -7.991   2.951  69.417  1.00  0.00    -0.055 C  
HETATM   10  C   UNL     1      -8.573   4.741  71.054  1.00  0.00    -0.126 C  
HETATM   11  C   UNL     1      -8.834   5.504  66.176  1.00  0.00    -0.139 C  
HETATM   12  C   UNL     1      -7.770   4.967  67.169  1.00  0.00    -0.092 C  
HETATM   13  C   UNL     1      -7.625   3.446  66.877  1.00  0.00    -0.076 C  
HETATM   14  C   UNL     1      -7.630   2.454  68.030  1.00  0.00    -0.055 C  
ENDBRANCH   5   6
ENDBRANCH   2   4
BRANCH   3  15
HETATM   15  C   UNL     1     -10.429  11.005  68.084  1.00  0.00    -0.216 C  
HETATM   16  C   UNL     1     -11.638  11.575  68.191  1.00  0.00    -0.378 C  
BRANCH  16  17
HETATM   17  C   UNL     1     -11.844  13.028  68.279  1.00  0.00    -0.381 C  
HETATM   18  C   UNL     1     -12.136  14.995  69.931  1.00  0.00    -0.334 C  
HETATM   19  O   UNL     1     -12.519  15.241  71.067  1.00  0.00    -0.321 OA 
HETATM   20  C   UNL     1     -11.901  13.595  69.502  1.00  0.00    -0.394 C  
HETATM   21  C   UNL     1     -12.068  13.774  66.984  1.00  0.00    -0.436 C  
HETATM   22  O   UNL     1     -11.851  15.958  69.040  1.00  0.00    -0.389 OA 
ENDBRANCH  16  17
ENDBRANCH   3  15
TORSDOF 4
ENDMDL
MODEL      119
REMARK 921   NORMALIZED FREE ENERGY PREDICTED BY IDOCK:   -3.60 KCAL/MOL
REMARK 922        TOTAL FREE ENERGY PREDICTED BY IDOCK:   -5.06 KCAL/MOL
REMARK 923 INTER-LIGAND FREE ENERGY PREDICTED BY IDOCK:   -4.47 KCAL/MOL
REMARK 924 INTRA-LIGAND FREE ENERGY PREDICTED BY IDOCK:   -0.59 KCAL/MOL
REMARK 927      BINDING AFFINITY PREDICTED BY RF-SCORE:    0.00 PKD
ROOT
HETATM    1  C   UNL     1      -7.033   8.964  66.825  1.00  0.00    -0.077 C  
HETATM    2  C   UNL     1      -8.450   8.985  67.353  1.00  0.00    -0.115 C  
HETATM    3  C   UNL     1      -8.829   8.140  68.341  1.00  0.00    -0.133 C  
ENDROOT
BRANCH   2   4
HETATM    4  C   UNL     1      -9.416   9.931  66.787  1.00  0.00    -0.212 C  
HETATM    5  C   UNL     1      -9.283  11.268  66.701  1.00  0.00    -0.191 C  
BRANCH   5   6
HETATM    6  C   UNL     1     -10.277  12.175  66.121  1.00  0.00    -0.254 C  
HETATM    7  C   UNL     1     -10.062  14.024  67.845  1.00  0.00    -0.237 C  
HETATM    8  C   UNL     1     -10.457  12.249  64.785  1.00  0.00    -0.328 C  
HETATM    9  C   UNL     1     -11.456  13.159  64.132  1.00  0.00    -0.449 C  
HETATM   10  C   UNL     1      -9.666  11.462  63.759  1.00  0.00    -0.314 C  
HETATM   11  C   UNL     1     -11.688  12.159  68.216  1.00  0.00    -0.401 C  
HETATM   12  C   UNL     1     -11.039  13.056  67.129  1.00  0.00    -0.304 C  
HETATM   13  C   UNL     1     -12.188  13.914  66.525  1.00  0.00    -0.482 C  
HETATM   14  C   UNL     1     -12.317  14.043  65.015  1.00  0.00    -0.458 C  
ENDBRANCH   5   6
ENDBRANCH   2   4
BRANCH   3  15
HETATM   15  C   UNL     1      -7.927   7.196  68.982  1.00  0.00    -0.120 C  
HETATM   16  C   UNL     1      -8.120   6.578  70.156  1.00  0.00    -0.121 C  
BRANCH  16  17
HETATM   17  C   UNL     1      -7.131   5.680  70.771  1.00  0.00    -0.069 C  
HETATM   18  C   UNL     1      -6.818   3.829  72.548  1.00  0.00    -0.041 C  
HETATM   19  O   UNL     1      -7.300   3.415  73.593  1.00  0.00    -0.053 OA 
HETATM   20  C   UNL     1      -7.550   4.816  71.718  1.00  0.00    -0.095 C  
HETATM   21  C   UNL     1      -5.688   5.856  70.356  1.00  0.00    -0.013 C  
HETATM   22  O   UNL     1      -5.649   3.379  72.064  1.00  0.00    -0.007 OA 
ENDBRANCH  16  17
ENDBRANCH   3  15
TORSDOF 4
ENDMDL
MODEL      120
REMARK 921   NORMALIZED FREE ENERGY PREDICTED BY IDOCK:   -3.58 KCAL/MOL
REMARK 922        TOTAL FREE ENERGY PREDICTED BY IDOCK:   -5.04 KCAL/MOL
REMARK 923 INTER-LIGAND FREE ENERGY PREDICTED BY IDOCK:   -4.44 KCAL/MOL
REMARK 924 INTRA-LIGAND FREE ENERGY PREDICTED BY IDOCK:   -0.59 KCAL/MOL
REMARK 927      BINDING AFFINITY PREDICTED BY RF-SCORE:    0.00 PKD
ROOT
HETATM    1  C   UNL     1      -9.571   8.625  69.885  1.00  0.00    -0.174 C  
HETATM    2  C   UNL     1      -9.979   8.537  68.431  1.00  0.00    -0.208 C  
HETATM    3  C   UNL     1      -9.735   7.413  67.714  1.00  0.00    -0.171 C  
ENDROOT
BRANCH   2   4
HETATM    4  C   UNL     1     -10.643   9.680  67.799  1.00  0.00    -0.320 C  
HETATM    5  C   UNL     1     -10.138  10.915  67.625  1.00  0.00    -0.206 C  
BRANCH   5   6
HETATM    6  C   UNL     1     -10.842  12.027  66.981  1.00  0.00    -0.297 C  
HETATM    7  C   UNL     1      -9.982  13.868  68.502  1.00  0.00    -0.221 C  
HETATM    8  C   UNL     1     -11.064  12.033  65.649  1.00  0.00    -0.361 C  
HETATM    9  C   UNL     1     -11.775  13.144  64.933  1.00  0.00    -0.377 C  
HETATM   10  C   UNL     1     -10.606  10.953  64.689  1.00  0.00    -0.332 C  
HETATM   11  C   UNL     1     -12.073  12.632  69.102  1.00  0.00    -0.191 C  
HETATM   12  C   UNL     1     -11.244  13.186  67.913  1.00  0.00    -0.300 C  
HETATM   13  C   UNL     1     -12.111  14.298  67.254  1.00  0.00    -0.390 C  
HETATM   14  C   UNL     1     -12.278  14.324  65.743  1.00  0.00    -0.415 C  
ENDBRANCH   5   6
ENDBRANCH   2   4
BRANCH   3  15
HETATM   15  C   UNL     1      -9.115   6.223  68.273  1.00  0.00    -0.113 C  
HETATM   16  C   UNL     1      -8.299   5.372  67.633  1.00  0.00    -0.099 C  
BRANCH  16  17
HETATM   17  C   UNL     1      -7.757   4.152  68.249  1.00  0.00    -0.070 C  
HETATM   18  C   UNL     1      -6.487   3.247  70.311  1.00  0.00    -0.032 C  
HETATM   19  O   UNL     1      -5.695   3.595  71.176  1.00  0.00    -0.012 OA 
HETATM   20  C   UNL     1      -7.160   4.253  69.455  1.00  0.00    -0.050 C  
HETATM   21  C   UNL     1      -7.828   2.879  67.438  1.00  0.00    -0.073 C  
HETATM   22  O   UNL     1      -6.837   1.963  70.127  1.00  0.00    -0.032 OA 
ENDBRANCH  16  17
ENDBRANCH   3  15
TORSDOF 4
ENDMDL
MODEL      121
REMARK 921   NORMALIZED FREE ENERGY PREDICTED BY IDOCK:   -3.56 KCAL/MOL
REMARK 922        TOTAL FREE ENERGY PREDICTED BY IDOCK:   -5.01 KCAL/MOL
REMARK 923 INTER-LIGAND FREE ENERGY PREDICTED BY IDOCK:   -4.42 KCAL/MOL
REMARK 924 INTRA-LIGAND FREE ENERGY PREDICTED BY IDOCK:   -0.60 KCAL/MOL
REMARK 927      BINDING AFFINITY PREDICTED BY RF-SCORE:    0.00 PKD
ROOT
HETATM    1  C   UNL     1      -7.732   9.809  63.751  1.00  0.00    -0.135 C  
HETATM    2  C   UNL     1      -8.493   9.636  65.046  1.00  0.00    -0.160 C  
HETATM    3  C   UNL     1      -8.616   8.412  65.615  1.00  0.00    -0.197 C  
ENDROOT
BRANCH   2   4
HETATM    4  C   UNL     1      -9.100  10.805  65.687  1.00  0.00    -0.215 C  
HETATM    5  C   UNL     1     -10.411  11.026  65.894  1.00  0.00    -0.300 C  
BRANCH   5   6
HETATM    6  C   UNL     1     -10.971  12.213  66.546  1.00  0.00    -0.325 C  
HETATM    7  C   UNL     1     -12.619  12.829  64.717  1.00  0.00    -0.518 C  
HETATM    8  C   UNL     1     -11.099  12.275  67.889  1.00  0.00    -0.290 C  
HETATM    9  C   UNL     1     -11.667  13.461  68.612  1.00  0.00    -0.384 C  
HETATM   10  C   UNL     1     -10.726  11.162  68.848  1.00  0.00    -0.246 C  
HETATM   11  C   UNL     1     -10.285  13.726  64.643  1.00  0.00    -0.313 C  
HETATM   12  C   UNL     1     -11.444  13.330  65.596  1.00  0.00    -0.342 C  
HETATM   13  C   UNL     1     -11.907  14.642  66.293  1.00  0.00    -0.299 C  
HETATM   14  C   UNL     1     -12.119  14.659  67.799  1.00  0.00    -0.211 C  
ENDBRANCH   5   6
ENDBRANCH   2   4
BRANCH   3  15
HETATM   15  C   UNL     1      -8.016   7.207  65.066  1.00  0.00    -0.129 C  
HETATM   16  C   UNL     1      -7.947   6.006  65.659  1.00  0.00    -0.116 C  
BRANCH  16  17
HETATM   17  C   UNL     1      -7.268   4.846  65.063  1.00  0.00    -0.064 C  
HETATM   18  C   UNL     1      -6.536   2.407  65.507  1.00  0.00    -0.031 C  
HETATM   19  O   UNL     1      -6.244   1.646  66.420  1.00  0.00    -0.022 OA 
HETATM   20  C   UNL     1      -7.180   3.712  65.790  1.00  0.00    -0.071 C  
HETATM   21  C   UNL     1      -6.634   5.039  63.706  1.00  0.00    -0.034 C  
HETATM   22  O   UNL     1      -6.353   2.088  64.215  1.00  0.00    -0.017 OA 
ENDBRANCH  16  17
ENDBRANCH   3  15
TORSDOF 4
ENDMDL
MODEL      122
REMARK 921   NORMALIZED FREE ENERGY PREDICTED BY IDOCK:   -3.54 KCAL/MOL
REMARK 922        TOTAL FREE ENERGY PREDICTED BY IDOCK:   -4.98 KCAL/MOL
REMARK 923 INTER-LIGAND FREE ENERGY PREDICTED BY IDOCK:   -5.21 KCAL/MOL
REMARK 924 INTRA-LIGAND FREE ENERGY PREDICTED BY IDOCK:    0.23 KCAL/MOL
REMARK 927      BINDING AFFINITY PREDICTED BY RF-SCORE:    0.00 PKD
ROOT
HETATM    1  C   UNL     1     -10.892  15.501  67.421  1.00  0.00    -0.312 C  
HETATM    2  C   UNL     1      -9.399  15.612  67.204  1.00  0.00    -0.229 C  
HETATM    3  C   UNL     1      -8.669  14.521  66.866  1.00  0.00    -0.237 C  
ENDROOT
BRANCH   2   4
HETATM    4  C   UNL     1      -8.743  16.913  67.360  1.00  0.00    -0.213 C  
HETATM    5  C   UNL     1      -7.669  17.363  66.686  1.00  0.00    -0.293 C  
BRANCH   5   6
HETATM    6  C   UNL     1      -7.050  18.678  66.875  1.00  0.00    -0.218 C  
HETATM    7  C   UNL     1      -6.458  18.399  69.327  1.00  0.00    -0.268 C  
HETATM    8  C   UNL     1      -6.362  19.274  65.877  1.00  0.00    -0.237 C  
HETATM    9  C   UNL     1      -5.704  20.616  66.011  1.00  0.00    -0.236 C  
HETATM   10  C   UNL     1      -6.127  18.672  64.506  1.00  0.00     0.075 C  
HETATM   11  C   UNL     1      -8.692  19.324  68.682  1.00  0.00    -0.402 C  
HETATM   12  C   UNL     1      -7.193  19.283  68.285  1.00  0.00    -0.317 C  
HETATM   13  C   UNL     1      -6.657  20.735  68.442  1.00  0.00    -0.215 C  
HETATM   14  C   UNL     1      -5.818  21.351  67.334  1.00  0.00    -0.425 C  
ENDBRANCH   5   6
ENDBRANCH   2   4
BRANCH   3  15
HETATM   15  C   UNL     1      -9.245  13.203  66.656  1.00  0.00    -0.220 C  
HETATM   16  C   UNL     1      -8.717  12.030  67.035  1.00  0.00    -0.188 C  
BRANCH  16  17
HETATM   17  C   UNL     1      -9.331  10.729  66.732  1.00  0.00    -0.182 C  
HETATM   18  C   UNL     1      -9.800   8.373  67.687  1.00  0.00    -0.173 C  
HETATM   19  O   UNL     1      -9.368   7.567  68.501  1.00  0.00    -0.143 OA 
HETATM   20  C   UNL     1      -9.317   9.775  67.686  1.00  0.00    -0.157 C  
HETATM   21  C   UNL     1      -9.857  10.524  65.330  1.00  0.00    -0.335 C  
HETATM   22  O   UNL     1     -10.763   8.063  66.804  1.00  0.00    -0.289 OA 
ENDBRANCH  16  17
ENDBRANCH   3  15
TORSDOF 4
ENDMDL
MODEL      123
REMARK 921   NORMALIZED FREE ENERGY PREDICTED BY IDOCK:   -3.52 KCAL/MOL
REMARK 922        TOTAL FREE ENERGY PREDICTED BY IDOCK:   -4.97 KCAL/MOL
REMARK 923 INTER-LIGAND FREE ENERGY PREDICTED BY IDOCK:   -4.83 KCAL/MOL
REMARK 924 INTRA-LIGAND FREE ENERGY PREDICTED BY IDOCK:   -0.14 KCAL/MOL
REMARK 927      BINDING AFFINITY PREDICTED BY RF-SCORE:    0.00 PKD
ROOT
HETATM    1  C   UNL     1     -10.051   9.416  70.192  1.00  0.00    -0.273 C  
HETATM    2  C   UNL     1      -9.930   9.375  68.685  1.00  0.00    -0.187 C  
HETATM    3  C   UNL     1     -10.074  10.506  67.952  1.00  0.00    -0.204 C  
ENDROOT
BRANCH   2   4
HETATM    4  C   UNL     1      -9.654   8.100  68.019  1.00  0.00    -0.174 C  
HETATM    5  C   UNL     1      -8.593   7.296  68.218  1.00  0.00    -0.123 C  
BRANCH   5   6
HETATM    6  C   UNL     1      -8.363   6.024  67.529  1.00  0.00    -0.108 C  
HETATM    7  C   UNL     1     -10.732   5.690  66.682  1.00  0.00    -0.339 C  
HETATM    8  C   UNL     1      -7.181   5.758  66.932  1.00  0.00    -0.075 C  
HETATM    9  C   UNL     1      -6.887   4.476  66.209  1.00  0.00    -0.058 C  
HETATM   10  C   UNL     1      -6.005   6.713  66.874  1.00  0.00    -0.021 C  
HETATM   11  C   UNL     1     -10.080   4.816  68.934  1.00  0.00    -0.149 C  
HETATM   12  C   UNL     1      -9.566   5.062  67.490  1.00  0.00    -0.169 C  
HETATM   13  C   UNL     1      -9.277   3.660  66.882  1.00  0.00    -0.204 C  
HETATM   14  C   UNL     1      -7.969   3.415  66.146  1.00  0.00    -0.092 C  
ENDBRANCH   5   6
ENDBRANCH   2   4
BRANCH   3  15
HETATM   15  C   UNL     1     -10.312  11.816  68.534  1.00  0.00    -0.228 C  
HETATM   16  C   UNL     1     -11.504  12.399  68.730  1.00  0.00    -0.350 C  
BRANCH  16  17
HETATM   17  C   UNL     1     -11.662  13.757  69.270  1.00  0.00    -0.376 C  
HETATM   18  C   UNL     1     -12.112  15.099  71.433  1.00  0.00    -0.338 C  
HETATM   19  O   UNL     1     -12.644  14.996  72.530  1.00  0.00    -0.324 OA 
HETATM   20  C   UNL     1     -11.873  13.900  70.595  1.00  0.00    -0.292 C  
HETATM   21  C   UNL     1     -11.667  14.898  68.280  1.00  0.00    -0.342 C  
HETATM   22  O   UNL     1     -11.663  16.271  70.956  1.00  0.00    -0.403 OA 
ENDBRANCH  16  17
ENDBRANCH   3  15
TORSDOF 4
ENDMDL
MODEL      124
REMARK 921   NORMALIZED FREE ENERGY PREDICTED BY IDOCK:   -3.52 KCAL/MOL
REMARK 922        TOTAL FREE ENERGY PREDICTED BY IDOCK:   -4.97 KCAL/MOL
REMARK 923 INTER-LIGAND FREE ENERGY PREDICTED BY IDOCK:   -4.42 KCAL/MOL
REMARK 924 INTRA-LIGAND FREE ENERGY PREDICTED BY IDOCK:   -0.55 KCAL/MOL
REMARK 927      BINDING AFFINITY PREDICTED BY RF-SCORE:    0.00 PKD
ROOT
HETATM    1  C   UNL     1     -10.265   9.634  68.247  1.00  0.00    -0.216 C  
HETATM    2  C   UNL     1      -9.093  10.108  69.076  1.00  0.00    -0.176 C  
HETATM    3  C   UNL     1      -8.462  11.269  68.777  1.00  0.00    -0.112 C  
ENDROOT
BRANCH   2   4
HETATM    4  C   UNL     1      -8.641   9.301  70.213  1.00  0.00    -0.234 C  
HETATM    5  C   UNL     1      -8.296   8.000  70.195  1.00  0.00    -0.126 C  
BRANCH   5   6
HETATM    6  C   UNL     1      -7.845   7.236  71.361  1.00  0.00    -0.096 C  
HETATM    7  C   UNL     1      -5.823   8.666  71.914  1.00  0.00    -0.056 C  
HETATM    8  C   UNL     1      -8.729   6.627  72.180  1.00  0.00    -0.130 C  
HETATM    9  C   UNL     1      -8.328   5.834  73.389  1.00  0.00    -0.115 C  
HETATM   10  C   UNL     1     -10.236   6.682  72.023  1.00  0.00    -0.206 C  
HETATM   11  C   UNL     1      -5.594   6.751  70.320  1.00  0.00    -0.023 C  
HETATM   12  C   UNL     1      -6.323   7.231  71.603  1.00  0.00    -0.036 C  
HETATM   13  C   UNL     1      -5.837   6.307  72.756  1.00  0.00    -0.038 C  
HETATM   14  C   UNL     1      -6.852   5.699  73.712  1.00  0.00    -0.081 C  
ENDBRANCH   5   6
ENDBRANCH   2   4
BRANCH   3  15
HETATM   15  C   UNL     1      -8.868  12.147  67.691  1.00  0.00    -0.172 C  
HETATM   16  C   UNL     1      -9.916  12.984  67.689  1.00  0.00    -0.215 C  
BRANCH  16  17
HETATM   17  C   UNL     1     -10.299  13.799  66.526  1.00  0.00    -0.286 C  
HETATM   18  C   UNL     1     -12.077  14.072  64.669  1.00  0.00    -0.440 C  
HETATM   19  O   UNL     1     -12.897  13.429  64.028  1.00  0.00    -0.621 OA 
HETATM   20  C   UNL     1     -11.441  13.491  65.876  1.00  0.00    -0.338 C  
HETATM   21  C   UNL     1      -9.332  14.873  66.086  1.00  0.00    -0.307 C  
HETATM   22  O   UNL     1     -11.754  15.339  64.364  1.00  0.00    -0.393 OA 
ENDBRANCH  16  17
ENDBRANCH   3  15
TORSDOF 4
ENDMDL
MODEL      125
REMARK 921   NORMALIZED FREE ENERGY PREDICTED BY IDOCK:   -3.52 KCAL/MOL
REMARK 922        TOTAL FREE ENERGY PREDICTED BY IDOCK:   -4.97 KCAL/MOL
REMARK 923 INTER-LIGAND FREE ENERGY PREDICTED BY IDOCK:   -4.85 KCAL/MOL
REMARK 924 INTRA-LIGAND FREE ENERGY PREDICTED BY IDOCK:   -0.11 KCAL/MOL
REMARK 927      BINDING AFFINITY PREDICTED BY RF-SCORE:    0.00 PKD
ROOT
HETATM    1  C   UNL     1      -9.728   5.526  70.196  1.00  0.00    -0.242 C  
HETATM    2  C   UNL     1     -10.519   6.550  69.413  1.00  0.00    -0.262 C  
HETATM    3  C   UNL     1     -10.800   6.348  68.103  1.00  0.00    -0.386 C  
ENDROOT
BRANCH   2   4
HETATM    4  C   UNL     1     -10.985   7.767  70.084  1.00  0.00    -0.246 C  
HETATM    5  C   UNL     1     -11.528   8.853  69.504  1.00  0.00     0.335 C  
BRANCH   5   6
HETATM    6  C   UNL     1     -11.984  10.047  70.219  1.00  0.00    -0.264 C  
HETATM    7  C   UNL     1     -11.984   9.039  72.548  1.00  0.00    -0.124 C  
HETATM    8  C   UNL     1     -11.631  11.284  69.807  1.00  0.00    -0.408 C  
HETATM    9  C   UNL     1     -12.063  12.543  70.500  1.00  0.00    -0.361 C  
HETATM   10  C   UNL     1     -10.731  11.578  68.623  1.00  0.00    -0.242 C  
HETATM   11  C   UNL     1     -14.031   8.872  71.120  1.00  0.00    -0.114 C  
HETATM   12  C   UNL     1     -12.828   9.783  71.481  1.00  0.00    -0.502 C  
HETATM   13  C   UNL     1     -13.425  11.051  72.158  1.00  0.00    -0.200 C  
HETATM   14  C   UNL     1     -12.949  12.429  71.726  1.00  0.00    -0.422 C  
ENDBRANCH   5   6
ENDBRANCH   2   4
BRANCH   3  15
HETATM   15  C   UNL     1     -10.409   5.154  67.372  1.00  0.00    -0.209 C  
HETATM   16  C   UNL     1     -10.052   5.089  66.081  1.00  0.00    -0.262 C  
BRANCH  16  17
HETATM   17  C   UNL     1      -9.726   3.830  65.393  1.00  0.00    -0.157 C  
HETATM   18  C   UNL     1     -10.328   2.352  63.360  1.00  0.00    -0.170 C  
HETATM   19  O   UNL     1     -11.253   2.102  62.598  1.00  0.00    -0.208 OA 
HETATM   20  C   UNL     1     -10.385   3.533  64.254  1.00  0.00    -0.191 C  
HETATM   21  C   UNL     1      -8.734   2.912  66.068  1.00  0.00    -0.129 C  
HETATM   22  O   UNL     1      -9.200   1.623  63.389  1.00  0.00    -0.090 OA 
ENDBRANCH  16  17
ENDBRANCH   3  15
TORSDOF 4
ENDMDL
MODEL      126
REMARK 921   NORMALIZED FREE ENERGY PREDICTED BY IDOCK:   -3.41 KCAL/MOL
REMARK 922        TOTAL FREE ENERGY PREDICTED BY IDOCK:   -4.83 KCAL/MOL
REMARK 923 INTER-LIGAND FREE ENERGY PREDICTED BY IDOCK:   -4.56 KCAL/MOL
REMARK 924 INTRA-LIGAND FREE ENERGY PREDICTED BY IDOCK:   -0.27 KCAL/MOL
REMARK 927      BINDING AFFINITY PREDICTED BY RF-SCORE:    0.00 PKD
ROOT
HETATM    1  C   UNL     1     -10.669   8.746  70.667  1.00  0.00    -0.267 C  
HETATM    2  C   UNL     1     -10.248   9.380  69.360  1.00  0.00    -0.214 C  
HETATM    3  C   UNL     1      -9.786   8.616  68.341  1.00  0.00    -0.176 C  
ENDROOT
BRANCH   2   4
HETATM    4  C   UNL     1     -10.344  10.834  69.201  1.00  0.00    -0.238 C  
HETATM    5  C   UNL     1      -9.731  11.588  68.270  1.00  0.00    -0.198 C  
BRANCH   5   6
HETATM    6  C   UNL     1      -9.862  13.042  68.148  1.00  0.00    -0.228 C  
HETATM    7  C   UNL     1     -12.117  13.253  69.293  1.00  0.00    -0.291 C  
HETATM    8  C   UNL     1      -8.779  13.846  68.206  1.00  0.00    -0.183 C  
HETATM    9  C   UNL     1      -8.851  15.341  68.091  1.00  0.00    -0.171 C  
HETATM   10  C   UNL     1      -7.357  13.371  68.427  1.00  0.00    -0.112 C  
HETATM   11  C   UNL     1     -12.006  12.856  66.826  1.00  0.00    -0.418 C  
HETATM   12  C   UNL     1     -11.303  13.569  68.011  1.00  0.00    -0.318 C  
HETATM   13  C   UNL     1     -11.429  15.096  67.743  1.00  0.00    -0.329 C  
HETATM   14  C   UNL     1     -10.208  15.990  67.893  1.00  0.00    -0.258 C  
ENDBRANCH   5   6
ENDBRANCH   2   4
BRANCH   3  15
HETATM   15  C   UNL     1      -9.693   7.166  68.402  1.00  0.00    -0.143 C  
HETATM   16  C   UNL     1      -9.363   6.343  67.395  1.00  0.00    -0.119 C  
BRANCH  16  17
HETATM   17  C   UNL     1      -9.350   4.878  67.518  1.00  0.00    -0.148 C  
HETATM   18  C   UNL     1      -8.932   2.930  69.165  1.00  0.00    -0.116 C  
HETATM   19  O   UNL     1      -8.314   2.655  70.185  1.00  0.00    -0.041 OA 
HETATM   20  C   UNL     1      -9.067   4.338  68.722  1.00  0.00    -0.181 C  
HETATM   21  C   UNL     1      -9.567   4.077  66.256  1.00  0.00    -0.211 C  
HETATM   22  O   UNL     1      -9.565   2.000  68.432  1.00  0.00    -0.198 OA 
ENDBRANCH  16  17
ENDBRANCH   3  15
TORSDOF 4
ENDMDL
MODEL      127
REMARK 921   NORMALIZED FREE ENERGY PREDICTED BY IDOCK:   -3.35 KCAL/MOL
REMARK 922        TOTAL FREE ENERGY PREDICTED BY IDOCK:   -4.75 KCAL/MOL
REMARK 923 INTER-LIGAND FREE ENERGY PREDICTED BY IDOCK:   -4.18 KCAL/MOL
REMARK 924 INTRA-LIGAND FREE ENERGY PREDICTED BY IDOCK:   -0.58 KCAL/MOL
REMARK 927      BINDING AFFINITY PREDICTED BY RF-SCORE:    0.00 PKD
ROOT
HETATM    1  C   UNL     1      -8.474   9.358  67.192  1.00  0.00    -0.128 C  
HETATM    2  C   UNL     1      -8.294  10.611  68.020  1.00  0.00    -0.118 C  
HETATM    3  C   UNL     1      -8.037  10.527  69.348  1.00  0.00    -0.136 C  
ENDROOT
BRANCH   2   4
HETATM    4  C   UNL     1      -8.399  11.922  67.375  1.00  0.00    -0.163 C  
HETATM    5  C   UNL     1      -8.785  13.077  67.948  1.00  0.00    -0.189 C  
BRANCH   5   6
HETATM    6  C   UNL     1      -8.869  14.368  67.260  1.00  0.00    -0.225 C  
HETATM    7  C   UNL     1     -11.347  14.765  67.639  1.00  0.00    -0.352 C  
HETATM    8  C   UNL     1      -7.837  15.237  67.281  1.00  0.00    -0.240 C  
HETATM    9  C   UNL     1      -7.865  16.574  66.599  1.00  0.00    -0.321 C  
HETATM   10  C   UNL     1      -6.528  15.012  68.012  1.00  0.00    -0.159 C  
HETATM   11  C   UNL     1     -10.583  13.512  65.613  1.00  0.00    -0.284 C  
HETATM   12  C   UNL     1     -10.219  14.670  66.580  1.00  0.00    -0.282 C  
HETATM   13  C   UNL     1     -10.259  15.976  65.735  1.00  0.00    -0.401 C  
HETATM   14  C   UNL     1      -9.116  16.975  65.840  1.00  0.00    -0.059 C  
ENDBRANCH   5   6
ENDBRANCH   2   4
BRANCH   3  15
HETATM   15  C   UNL     1      -7.881   9.269  70.059  1.00  0.00    -0.117 C  
HETATM   16  C   UNL     1      -8.648   8.817  71.063  1.00  0.00    -0.236 C  
BRANCH  16  17
HETATM   17  C   UNL     1      -8.390   7.557  71.775  1.00  0.00    -0.116 C  
HETATM   18  C   UNL     1      -9.407   5.257  72.375  1.00  0.00    -0.140 C  
HETATM   19  O   UNL     1     -10.485   4.699  72.531  1.00  0.00    -0.193 OA 
HETATM   20  C   UNL     1      -9.336   6.596  71.741  1.00  0.00    -0.148 C  
HETATM   21  C   UNL     1      -7.112   7.466  72.575  1.00  0.00    -0.068 C  
HETATM   22  O   UNL     1      -8.240   4.680  72.705  1.00  0.00    -0.104 OA 
ENDBRANCH  16  17
ENDBRANCH   3  15
TORSDOF 4
ENDMDL
MODEL      128
REMARK 921   NORMALIZED FREE ENERGY PREDICTED BY IDOCK:   -3.31 KCAL/MOL
REMARK 922        TOTAL FREE ENERGY PREDICTED BY IDOCK:   -4.71 KCAL/MOL
REMARK 923 INTER-LIGAND FREE ENERGY PREDICTED BY IDOCK:   -4.21 KCAL/MOL
REMARK 924 INTRA-LIGAND FREE ENERGY PREDICTED BY IDOCK:   -0.50 KCAL/MOL
REMARK 927      BINDING AFFINITY PREDICTED BY RF-SCORE:    0.00 PKD
ROOT
HETATM    1  C   UNL     1     -11.003   7.553  69.319  1.00  0.00    -0.057 C  
HETATM    2  C   UNL     1      -9.896   7.906  70.288  1.00  0.00    -0.184 C  
HETATM    3  C   UNL     1      -9.330   9.137  70.268  1.00  0.00    -0.253 C  
ENDROOT
BRANCH   2   4
HETATM    4  C   UNL     1      -9.438   6.905  71.254  1.00  0.00    -0.165 C  
HETATM    5  C   UNL     1      -8.654   5.840  71.006  1.00  0.00    -0.131 C  
BRANCH   5   6
HETATM    6  C   UNL     1      -8.218   4.866  72.009  1.00  0.00    -0.115 C  
HETATM    7  C   UNL     1      -9.411   2.850  71.033  1.00  0.00    -0.227 C  
HETATM    8  C   UNL     1      -7.002   4.959  72.589  1.00  0.00    -0.076 C  
HETATM    9  C   UNL     1      -6.498   3.991  73.619  1.00  0.00    -0.041 C  
HETATM   10  C   UNL     1      -5.967   6.018  72.266  1.00  0.00    -0.037 C  
HETATM   11  C   UNL     1     -10.590   4.317  72.681  1.00  0.00    -0.215 C  
HETATM   12  C   UNL     1      -9.209   3.722  72.299  1.00  0.00    -0.163 C  
HETATM   13  C   UNL     1      -8.804   2.771  73.462  1.00  0.00    -0.075 C  
HETATM   14  C   UNL     1      -7.400   2.847  74.041  1.00  0.00    -0.043 C  
ENDBRANCH   5   6
ENDBRANCH   2   4
BRANCH   3  15
HETATM   15  C   UNL     1      -9.749  10.200  69.368  1.00  0.00    -0.247 C  
HETATM   16  C   UNL     1     -10.735  11.084  69.580  1.00  0.00    -0.231 C  
BRANCH  16  17
HETATM   17  C   UNL     1     -11.141  12.096  68.593  1.00  0.00    -0.297 C  
HETATM   18  C   UNL     1     -11.781  14.583  68.302  1.00  0.00    -0.335 C  
HETATM   19  O   UNL     1     -12.251  15.529  68.920  1.00  0.00    -0.245 OA 
HETATM   20  C   UNL     1     -11.336  13.362  69.015  1.00  0.00    -0.335 C  
HETATM   21  C   UNL     1     -11.399  11.619  67.183  1.00  0.00    -0.373 C  
HETATM   22  O   UNL     1     -11.586  14.614  66.974  1.00  0.00    -0.362 OA 
ENDBRANCH  16  17
ENDBRANCH   3  15
TORSDOF 4
ENDMDL
MODEL      129
REMARK 921   NORMALIZED FREE ENERGY PREDICTED BY IDOCK:   -3.29 KCAL/MOL
REMARK 922        TOTAL FREE ENERGY PREDICTED BY IDOCK:   -4.68 KCAL/MOL
REMARK 923 INTER-LIGAND FREE ENERGY PREDICTED BY IDOCK:   -4.18 KCAL/MOL
REMARK 924 INTRA-LIGAND FREE ENERGY PREDICTED BY IDOCK:   -0.49 KCAL/MOL
REMARK 927      BINDING AFFINITY PREDICTED BY RF-SCORE:    0.00 PKD
ROOT
HETATM    1  C   UNL     1     -10.551   8.571  69.668  1.00  0.00    -0.221 C  
HETATM    2  C   UNL     1      -9.985   8.146  68.331  1.00  0.00    -0.210 C  
HETATM    3  C   UNL     1      -9.689   9.069  67.384  1.00  0.00    -0.217 C  
ENDROOT
BRANCH   2   4
HETATM    4  C   UNL     1      -9.757   6.723  68.064  1.00  0.00    -0.130 C  
HETATM    5  C   UNL     1      -8.652   6.166  67.537  1.00  0.00    -0.106 C  
BRANCH   5   6
HETATM    6  C   UNL     1      -8.468   4.733  67.293  1.00  0.00    -0.105 C  
HETATM    7  C   UNL     1      -8.423   4.847  64.758  1.00  0.00    -0.145 C  
HETATM    8  C   UNL     1      -7.748   3.968  68.142  1.00  0.00    -0.066 C  
HETATM    9  C   UNL     1      -7.523   2.498  67.944  1.00  0.00    -0.056 C  
HETATM   10  C   UNL     1      -7.043   4.478  69.382  1.00  0.00    -0.051 C  
HETATM   11  C   UNL     1     -10.603   4.567  65.953  1.00  0.00    -0.194 C  
HETATM   12  C   UNL     1      -9.097   4.195  65.994  1.00  0.00    -0.136 C  
HETATM   13  C   UNL     1      -9.021   2.652  65.808  1.00  0.00    -0.133 C  
HETATM   14  C   UNL     1      -8.139   1.826  66.730  1.00  0.00    -0.074 C  
ENDBRANCH   5   6
ENDBRANCH   2   4
BRANCH   3  15
HETATM   15  C   UNL     1      -9.849  10.501  67.579  1.00  0.00    -0.196 C  
HETATM   16  C   UNL     1     -10.912  11.241  67.230  1.00  0.00    -0.342 C  
BRANCH  16  17
HETATM   17  C   UNL     1     -10.976  12.699  67.406  1.00  0.00    -0.289 C  
HETATM   18  C   UNL     1     -10.795  14.957  66.160  1.00  0.00    -0.327 C  
HETATM   19  O   UNL     1     -10.283  15.467  65.172  1.00  0.00    -0.364 OA 
HETATM   20  C   UNL     1     -10.826  13.483  66.318  1.00  0.00    -0.291 C  
HETATM   21  C   UNL     1     -11.117  13.219  68.817  1.00  0.00    -0.303 C  
HETATM   22  O   UNL     1     -11.403  15.682  67.114  1.00  0.00    -0.229 OA 
ENDBRANCH  16  17
ENDBRANCH   3  15
TORSDOF 4
ENDMDL
MODEL      130
REMARK 921   NORMALIZED FREE ENERGY PREDICTED BY IDOCK:   -3.28 KCAL/MOL
REMARK 922        TOTAL FREE ENERGY PREDICTED BY IDOCK:   -4.67 KCAL/MOL
REMARK 923 INTER-LIGAND FREE ENERGY PREDICTED BY IDOCK:   -4.05 KCAL/MOL
REMARK 924 INTRA-LIGAND FREE ENERGY PREDICTED BY IDOCK:   -0.62 KCAL/MOL
REMARK 927      BINDING AFFINITY PREDICTED BY RF-SCORE:    0.00 PKD
ROOT
HETATM    1  C   UNL     1      -6.661  12.985  68.713  1.00  0.00    -0.096 C  
HETATM    2  C   UNL     1      -7.695  13.263  67.645  1.00  0.00    -0.171 C  
HETATM    3  C   UNL     1      -8.486  12.267  67.177  1.00  0.00    -0.184 C  
ENDROOT
BRANCH   2   4
HETATM    4  C   UNL     1      -7.839  14.622  67.118  1.00  0.00    -0.155 C  
HETATM    5  C   UNL     1      -7.877  15.765  67.827  1.00  0.00    -0.155 C  
BRANCH   5   6
HETATM    6  C   UNL     1      -8.017  17.106  67.252  1.00  0.00    -0.200 C  
HETATM    7  C   UNL     1      -9.628  18.024  68.984  1.00  0.00    -0.154 C  
HETATM    8  C   UNL     1      -6.985  17.705  66.621  1.00  0.00    -0.257 C  
HETATM    9  C   UNL     1      -7.068  19.076  66.016  1.00  0.00    -0.292 C  
HETATM   10  C   UNL     1      -5.601  17.107  66.461  1.00  0.00    -0.193 C  
HETATM   11  C   UNL     1     -10.513  16.848  66.961  1.00  0.00    -0.281 C  
HETATM   12  C   UNL     1      -9.384  17.782  67.472  1.00  0.00    -0.245 C  
HETATM   13  C   UNL     1      -9.577  19.143  66.743  1.00  0.00    -0.383 C  
HETATM   14  C   UNL     1      -8.379  19.833  66.109  1.00  0.00    -0.368 C  
ENDBRANCH   5   6
ENDBRANCH   2   4
BRANCH   3  15
HETATM   15  C   UNL     1      -8.435  10.900  67.671  1.00  0.00    -0.123 C  
HETATM   16  C   UNL     1      -7.748   9.881  67.133  1.00  0.00    -0.092 C  
BRANCH  16  17
HETATM   17  C   UNL     1      -7.794   8.508  67.657  1.00  0.00    -0.103 C  
HETATM   18  C   UNL     1      -8.629   7.056  69.626  1.00  0.00    -0.134 C  
HETATM   19  O   UNL     1      -8.915   7.128  70.813  1.00  0.00    -0.151 OA 
HETATM   20  C   UNL     1      -8.440   8.287  68.821  1.00  0.00    -0.125 C  
HETATM   21  C   UNL     1      -7.030   7.453  66.892  1.00  0.00    -0.082 C  
HETATM   22  O   UNL     1      -8.532   5.886  68.976  1.00  0.00    -0.105 OA 
ENDBRANCH  16  17
ENDBRANCH   3  15
TORSDOF 4
ENDMDL
MODEL      131
REMARK 921   NORMALIZED FREE ENERGY PREDICTED BY IDOCK:   -3.28 KCAL/MOL
REMARK 922        TOTAL FREE ENERGY PREDICTED BY IDOCK:   -4.67 KCAL/MOL
REMARK 923 INTER-LIGAND FREE ENERGY PREDICTED BY IDOCK:   -4.50 KCAL/MOL
REMARK 924 INTRA-LIGAND FREE ENERGY PREDICTED BY IDOCK:   -0.17 KCAL/MOL
REMARK 927      BINDING AFFINITY PREDICTED BY RF-SCORE:    0.00 PKD
ROOT
HETATM    1  C   UNL     1      -9.724   5.529  70.192  1.00  0.00    -0.242 C  
HETATM    2  C   UNL     1     -10.437   6.568  69.355  1.00  0.00    -0.262 C  
HETATM    3  C   UNL     1     -10.666   6.351  68.037  1.00  0.00    -0.362 C  
ENDROOT
BRANCH   2   4
HETATM    4  C   UNL     1     -10.882   7.815  69.981  1.00  0.00    -0.243 C  
HETATM    5  C   UNL     1     -11.313   8.926  69.354  1.00  0.00     0.265 C  
BRANCH   5   6
HETATM    6  C   UNL     1     -11.754  10.151  70.026  1.00  0.00    -0.294 C  
HETATM    7  C   UNL     1     -12.240  11.501  67.933  1.00  0.00     0.349 C  
HETATM    8  C   UNL     1     -12.416  10.102  71.202  1.00  0.00    -0.490 C  
HETATM    9  C   UNL     1     -12.894  11.321  71.935  1.00  0.00    -0.386 C  
HETATM   10  C   UNL     1     -12.799   8.828  71.928  1.00  0.00    -0.423 C  
HETATM   11  C   UNL     1      -9.947  11.540  68.934  1.00  0.00    -0.117 C  
HETATM   12  C   UNL     1     -11.460  11.463  69.273  1.00  0.00    -0.370 C  
HETATM   13  C   UNL     1     -11.803  12.766  70.051  1.00  0.00    -0.352 C  
HETATM   14  C   UNL     1     -12.618  12.685  71.331  1.00  0.00    -0.304 C  
ENDBRANCH   5   6
ENDBRANCH   2   4
BRANCH   3  15
HETATM   15  C   UNL     1     -10.292   5.128  67.346  1.00  0.00    -0.209 C  
HETATM   16  C   UNL     1      -9.881   5.021  66.074  1.00  0.00    -0.206 C  
BRANCH  16  17
HETATM   17  C   UNL     1      -9.576   3.738  65.426  1.00  0.00    -0.174 C  
HETATM   18  C   UNL     1     -10.147   2.242  63.396  1.00  0.00    -0.134 C  
HETATM   19  O   UNL     1     -11.048   2.013  62.599  1.00  0.00    -0.177 OA 
HETATM   20  C   UNL     1     -10.196   3.443  64.264  1.00  0.00    -0.171 C  
HETATM   21  C   UNL     1      -8.652   2.795  66.160  1.00  0.00    -0.117 C  
HETATM   22  O   UNL     1      -9.052   1.471  63.489  1.00  0.00    -0.086 OA 
ENDBRANCH  16  17
ENDBRANCH   3  15
TORSDOF 4
ENDMDL
MODEL      132
REMARK 921   NORMALIZED FREE ENERGY PREDICTED BY IDOCK:   -3.25 KCAL/MOL
REMARK 922        TOTAL FREE ENERGY PREDICTED BY IDOCK:   -4.63 KCAL/MOL
REMARK 923 INTER-LIGAND FREE ENERGY PREDICTED BY IDOCK:   -4.45 KCAL/MOL
REMARK 924 INTRA-LIGAND FREE ENERGY PREDICTED BY IDOCK:   -0.18 KCAL/MOL
REMARK 927      BINDING AFFINITY PREDICTED BY RF-SCORE:    0.00 PKD
ROOT
HETATM    1  C   UNL     1     -10.208   8.532  67.400  1.00  0.00    -0.329 C  
HETATM    2  C   UNL     1      -9.953   8.913  68.841  1.00  0.00    -0.199 C  
HETATM    3  C   UNL     1      -9.924  10.215  69.215  1.00  0.00    -0.234 C  
ENDROOT
BRANCH   2   4
HETATM    4  C   UNL     1      -9.738   7.859  69.837  1.00  0.00    -0.176 C  
HETATM    5  C   UNL     1      -8.595   7.588  70.493  1.00  0.00    -0.138 C  
BRANCH   5   6
HETATM    6  C   UNL     1      -8.429   6.524  71.487  1.00  0.00    -0.125 C  
HETATM    7  C   UNL     1      -7.645   4.717  69.887  1.00  0.00    -0.054 C  
HETATM    8  C   UNL     1      -8.030   6.803  72.746  1.00  0.00    -0.099 C  
HETATM    9  C   UNL     1      -7.840   5.756  73.806  1.00  0.00    -0.104 C  
HETATM   10  C   UNL     1      -7.687   8.186  73.261  1.00  0.00    -0.211 C  
HETATM   11  C   UNL     1     -10.090   5.017  70.324  1.00  0.00    -0.339 C  
HETATM   12  C   UNL     1      -8.684   5.093  70.975  1.00  0.00    -0.139 C  
HETATM   13  C   UNL     1      -8.643   3.982  72.064  1.00  0.00    -0.116 C  
HETATM   14  C   UNL     1      -8.114   4.307  73.452  1.00  0.00    -0.090 C  
ENDBRANCH   5   6
ENDBRANCH   2   4
BRANCH   3  15
HETATM   15  C   UNL     1     -10.164  11.319  68.300  1.00  0.00    -0.198 C  
HETATM   16  C   UNL     1     -10.131  12.626  68.598  1.00  0.00    -0.131 C  
BRANCH  16  17
HETATM   17  C   UNL     1     -10.444  13.686  67.629  1.00  0.00    -0.238 C  
HETATM   18  C   UNL     1     -10.495  16.248  67.288  1.00  0.00    -0.300 C  
HETATM   19  O   UNL     1     -10.600  17.295  67.913  1.00  0.00    -0.365 OA 
HETATM   20  C   UNL     1     -10.245  14.969  67.996  1.00  0.00    -0.228 C  
HETATM   21  C   UNL     1     -11.058  13.261  66.316  1.00  0.00    -0.306 C  
HETATM   22  O   UNL     1     -10.537  16.201  65.947  1.00  0.00    -0.327 OA 
ENDBRANCH  16  17
ENDBRANCH   3  15
TORSDOF 4
ENDMDL
MODEL      133
REMARK 921   NORMALIZED FREE ENERGY PREDICTED BY IDOCK:   -3.24 KCAL/MOL
REMARK 922        TOTAL FREE ENERGY PREDICTED BY IDOCK:   -4.62 KCAL/MOL
REMARK 923 INTER-LIGAND FREE ENERGY PREDICTED BY IDOCK:   -4.04 KCAL/MOL
REMARK 924 INTRA-LIGAND FREE ENERGY PREDICTED BY IDOCK:   -0.58 KCAL/MOL
REMARK 927      BINDING AFFINITY PREDICTED BY RF-SCORE:    0.00 PKD
ROOT
HETATM    1  C   UNL     1     -10.937   8.819  68.890  1.00  0.00     0.062 C  
HETATM    2  C   UNL     1      -9.774   9.124  69.809  1.00  0.00    -0.191 C  
HETATM    3  C   UNL     1      -8.968  10.186  69.569  1.00  0.00    -0.205 C  
ENDROOT
BRANCH   2   4
HETATM    4  C   UNL     1      -9.525   8.260  70.965  1.00  0.00    -0.197 C  
HETATM    5  C   UNL     1      -9.276   6.937  70.949  1.00  0.00    -0.157 C  
BRANCH   5   6
HETATM    6  C   UNL     1      -9.027   6.114  72.135  1.00  0.00    -0.142 C  
HETATM    7  C   UNL     1      -6.910   7.290  72.896  1.00  0.00    -0.068 C  
HETATM    8  C   UNL     1     -10.048   5.609  72.859  1.00  0.00    -0.199 C  
HETATM    9  C   UNL     1      -9.856   4.763  74.085  1.00  0.00    -0.186 C  
HETATM   10  C   UNL     1     -11.517   5.844  72.568  1.00  0.00    -0.347 C  
HETATM   11  C   UNL     1      -6.763   5.375  71.293  1.00  0.00    -0.048 C  
HETATM   12  C   UNL     1      -7.545   5.927  72.514  1.00  0.00    -0.100 C  
HETATM   13  C   UNL     1      -7.279   4.942  73.689  1.00  0.00    -0.082 C  
HETATM   14  C   UNL     1      -8.442   4.452  74.537  1.00  0.00    -0.092 C  
ENDBRANCH   5   6
ENDBRANCH   2   4
BRANCH   3  15
HETATM   15  C   UNL     1      -9.166  11.113  68.467  1.00  0.00    -0.183 C  
HETATM   16  C   UNL     1     -10.048  12.122  68.421  1.00  0.00    -0.210 C  
BRANCH  16  17
HETATM   17  C   UNL     1     -10.233  12.983  67.243  1.00  0.00    -0.239 C  
HETATM   18  C   UNL     1     -10.373  15.443  66.463  1.00  0.00    -0.289 C  
HETATM   19  O   UNL     1     -10.661  16.561  66.869  1.00  0.00    -0.279 OA 
HETATM   20  C   UNL     1     -10.187  14.321  67.413  1.00  0.00    -0.247 C  
HETATM   21  C   UNL     1     -10.553  12.302  65.933  1.00  0.00    -0.290 C  
HETATM   22  O   UNL     1     -10.152  15.182  65.164  1.00  0.00    -0.347 OA 
ENDBRANCH  16  17
ENDBRANCH   3  15
TORSDOF 4
ENDMDL
MODEL      134
REMARK 921   NORMALIZED FREE ENERGY PREDICTED BY IDOCK:   -3.00 KCAL/MOL
REMARK 922        TOTAL FREE ENERGY PREDICTED BY IDOCK:   -4.32 KCAL/MOL
REMARK 923 INTER-LIGAND FREE ENERGY PREDICTED BY IDOCK:   -3.67 KCAL/MOL
REMARK 924 INTRA-LIGAND FREE ENERGY PREDICTED BY IDOCK:   -0.65 KCAL/MOL
REMARK 927      BINDING AFFINITY PREDICTED BY RF-SCORE:    0.00 PKD
ROOT
HETATM    1  C   UNL     1      -8.787  13.934  68.416  1.00  0.00    -0.177 C  
HETATM    2  C   UNL     1      -7.479  14.615  68.080  1.00  0.00    -0.137 C  
HETATM    3  C   UNL     1      -6.398  13.885  67.709  1.00  0.00    -0.169 C  
ENDROOT
BRANCH   2   4
HETATM    4  C   UNL     1      -7.386  16.075  68.155  1.00  0.00    -0.133 C  
HETATM    5  C   UNL     1      -6.351  16.841  67.765  1.00  0.00    -0.164 C  
BRANCH   5   6
HETATM    6  C   UNL     1      -6.307  18.303  67.856  1.00  0.00    -0.190 C  
HETATM    7  C   UNL     1      -8.338  18.771  66.408  1.00  0.00    -0.294 C  
HETATM    8  C   UNL     1      -5.880  18.918  68.979  1.00  0.00    -0.236 C  
HETATM    9  C   UNL     1      -5.816  20.410  69.134  1.00  0.00    -0.375 C  
HETATM   10  C   UNL     1      -5.442  18.207  70.244  1.00  0.00    -0.250 C  
HETATM   11  C   UNL     1      -6.077  18.571  65.354  1.00  0.00    -0.301 C  
HETATM   12  C   UNL     1      -6.829  19.061  66.620  1.00  0.00    -0.209 C  
HETATM   13  C   UNL     1      -6.652  20.606  66.665  1.00  0.00    -0.321 C  
HETATM   14  C   UNL     1      -6.246  21.279  67.967  1.00  0.00    -0.281 C  
ENDBRANCH   5   6
ENDBRANCH   2   4
BRANCH   3  15
HETATM   15  C   UNL     1      -6.414  12.438  67.574  1.00  0.00    -0.146 C  
HETATM   16  C   UNL     1      -5.939  11.547  68.457  1.00  0.00    -0.045 C  
BRANCH  16  17
HETATM   17  C   UNL     1      -5.936  10.096  68.221  1.00  0.00    -0.041 C  
HETATM   18  C   UNL     1      -6.397   7.805  69.326  1.00  0.00    -0.035 C  
HETATM   19  O   UNL     1      -6.418   7.257  70.421  1.00  0.00    -0.041 OA 
HETATM   20  C   UNL     1      -6.327   9.282  69.224  1.00  0.00    -0.041 C  
HETATM   21  C   UNL     1      -5.404   9.613  66.892  1.00  0.00    -0.045 C  
HETATM   22  O   UNL     1      -6.496   7.121  68.175  1.00  0.00    -0.041 OA 
ENDBRANCH  16  17
ENDBRANCH   3  15
TORSDOF 4
ENDMDL
MODEL      135
REMARK 921   NORMALIZED FREE ENERGY PREDICTED BY IDOCK:   -2.93 KCAL/MOL
REMARK 922        TOTAL FREE ENERGY PREDICTED BY IDOCK:   -4.24 KCAL/MOL
REMARK 923 INTER-LIGAND FREE ENERGY PREDICTED BY IDOCK:   -3.60 KCAL/MOL
REMARK 924 INTRA-LIGAND FREE ENERGY PREDICTED BY IDOCK:   -0.63 KCAL/MOL
REMARK 927      BINDING AFFINITY PREDICTED BY RF-SCORE:    0.00 PKD
ROOT
HETATM    1  C   UNL     1      -8.361   7.366  69.198  1.00  0.00    -0.132 C  
HETATM    2  C   UNL     1      -8.695   8.396  68.142  1.00  0.00    -0.143 C  
HETATM    3  C   UNL     1      -8.941   8.017  66.864  1.00  0.00    -0.160 C  
ENDROOT
BRANCH   2   4
HETATM    4  C   UNL     1      -8.753   9.813  68.510  1.00  0.00    -0.120 C  
HETATM    5  C   UNL     1      -8.311  10.856  67.784  1.00  0.00    -0.117 C  
BRANCH   5   6
HETATM    6  C   UNL     1      -8.395  12.261  68.194  1.00  0.00    -0.174 C  
HETATM    7  C   UNL     1      -6.088  12.960  67.401  1.00  0.00    -0.097 C  
HETATM    8  C   UNL     1      -9.568  12.929  68.153  1.00  0.00    -0.223 C  
HETATM    9  C   UNL     1      -9.716  14.367  68.557  1.00  0.00    -0.225 C  
HETATM   10  C   UNL     1     -10.881  12.347  67.670  1.00  0.00    -0.258 C  
HETATM   11  C   UNL     1      -6.389  12.060  69.716  1.00  0.00    -0.110 C  
HETATM   12  C   UNL     1      -7.062  12.912  68.607  1.00  0.00    -0.103 C  
HETATM   13  C   UNL     1      -7.176  14.358  69.173  1.00  0.00    -0.118 C  
HETATM   14  C   UNL     1      -8.488  15.115  69.042  1.00  0.00    -0.214 C  
ENDBRANCH   5   6
ENDBRANCH   2   4
BRANCH   3  15
HETATM   15  C   UNL     1      -8.941   6.632  66.423  1.00  0.00    -0.161 C  
HETATM   16  C   UNL     1     -10.002   5.814  66.354  1.00  0.00    -0.173 C  
BRANCH  16  17
HETATM   17  C   UNL     1      -9.912   4.403  65.954  1.00  0.00    -0.255 C  
HETATM   18  C   UNL     1     -10.371   2.754  64.016  1.00  0.00    -0.073 C  
HETATM   19  O   UNL     1     -11.085   2.607  63.033  1.00  0.00    -0.217 OA 
HETATM   20  C   UNL     1     -10.297   4.065  64.705  1.00  0.00    -0.212 C  
HETATM   21  C   UNL     1      -9.477   3.412  67.008  1.00  0.00    -0.188 C  
HETATM   22  O   UNL     1      -9.579   1.777  64.485  1.00  0.00    -0.130 OA 
ENDBRANCH  16  17
ENDBRANCH   3  15
TORSDOF 4
ENDMDL
MODEL      136
REMARK 921   NORMALIZED FREE ENERGY PREDICTED BY IDOCK:   -2.64 KCAL/MOL
REMARK 922        TOTAL FREE ENERGY PREDICTED BY IDOCK:   -3.88 KCAL/MOL
REMARK 923 INTER-LIGAND FREE ENERGY PREDICTED BY IDOCK:   -3.86 KCAL/MOL
REMARK 924 INTRA-LIGAND FREE ENERGY PREDICTED BY IDOCK:   -0.02 KCAL/MOL
REMARK 927      BINDING AFFINITY PREDICTED BY RF-SCORE:    0.00 PKD
ROOT
HETATM    1  C   UNL     1      -9.232   8.577  68.262  1.00  0.00    -0.140 C  
HETATM    2  C   UNL     1      -9.303   8.039  66.850  1.00  0.00    -0.209 C  
HETATM    3  C   UNL     1      -9.820   8.794  65.851  1.00  0.00    -0.136 C  
ENDROOT
BRANCH   2   4
HETATM    4  C   UNL     1      -8.804   6.691  66.568  1.00  0.00    -0.144 C  
HETATM    5  C   UNL     1      -9.336   5.527  66.986  1.00  0.00    -0.118 C  
BRANCH   5   6
HETATM    6  C   UNL     1      -8.803   4.199  66.672  1.00  0.00    -0.119 C  
HETATM    7  C   UNL     1      -9.286   3.126  68.921  1.00  0.00    -0.231 C  
HETATM    8  C   UNL     1      -8.897   3.687  65.427  1.00  0.00    -0.123 C  
HETATM    9  C   UNL     1      -8.373   2.333  65.046  1.00  0.00    -0.090 C  
HETATM   10  C   UNL     1      -9.564   4.377  64.254  1.00  0.00    -0.081 C  
HETATM   11  C   UNL     1      -7.112   4.306  68.546  1.00  0.00    -0.052 C  
HETATM   12  C   UNL     1      -8.195   3.431  67.862  1.00  0.00    -0.086 C  
HETATM   13  C   UNL     1      -7.506   2.083  67.499  1.00  0.00    -0.056 C  
HETATM   14  C   UNL     1      -7.696   1.491  66.111  1.00  0.00    -0.066 C  
ENDBRANCH   5   6
ENDBRANCH   2   4
BRANCH   3  15
HETATM   15  C   UNL     1     -10.302  10.153  66.037  1.00  0.00    -0.234 C  
HETATM   16  C   UNL     1      -9.794  11.075  66.868  1.00  0.00    -0.222 C  
BRANCH  16  17
HETATM   17  C   UNL     1     -10.375  12.413  67.046  1.00  0.00    -0.235 C  
HETATM   18  C   UNL     1      -9.972  14.932  66.628  1.00  0.00    -0.258 C  
HETATM   19  O   UNL     1      -9.069  15.745  66.479  1.00  0.00    -0.239 OA 
HETATM   20  C   UNL     1      -9.692  13.477  66.574  1.00  0.00    -0.287 C  
HETATM   21  C   UNL     1     -11.663  12.508  67.831  1.00  0.00    -0.416 C  
HETATM   22  O   UNL     1     -11.255  15.298  66.783  1.00  0.00    -0.317 OA 
ENDBRANCH  16  17
ENDBRANCH   3  15
TORSDOF 4
ENDMDL
MODEL      137
REMARK 921   NORMALIZED FREE ENERGY PREDICTED BY IDOCK:   -2.51 KCAL/MOL
REMARK 922        TOTAL FREE ENERGY PREDICTED BY IDOCK:   -3.72 KCAL/MOL
REMARK 923 INTER-LIGAND FREE ENERGY PREDICTED BY IDOCK:   -3.64 KCAL/MOL
REMARK 924 INTRA-LIGAND FREE ENERGY PREDICTED BY IDOCK:   -0.08 KCAL/MOL
REMARK 927      BINDING AFFINITY PREDICTED BY RF-SCORE:    0.00 PKD
ROOT
HETATM    1  C   UNL     1      -6.169  13.957  70.304  1.00  0.00    -0.110 C  
HETATM    2  C   UNL     1      -6.621  14.436  68.942  1.00  0.00    -0.094 C  
HETATM    3  C   UNL     1      -7.369  13.636  68.144  1.00  0.00    -0.121 C  
ENDROOT
BRANCH   2   4
HETATM    4  C   UNL     1      -6.245  15.778  68.489  1.00  0.00    -0.105 C  
HETATM    5  C   UNL     1      -6.969  16.905  68.610  1.00  0.00    -0.191 C  
BRANCH   5   6
HETATM    6  C   UNL     1      -6.547  18.229  68.144  1.00  0.00    -0.205 C  
HETATM    7  C   UNL     1      -6.453  19.349  70.419  1.00  0.00     0.022 C  
HETATM    8  C   UNL     1      -5.734  18.364  67.074  1.00  0.00    -0.161 C  
HETATM    9  C   UNL     1      -5.265  19.691  66.553  1.00  0.00    -0.162 C  
HETATM   10  C   UNL     1      -5.155  17.214  66.274  1.00  0.00    -0.069 C  
HETATM   11  C   UNL     1      -8.589  19.354  69.116  1.00  0.00    -0.148 C  
HETATM   12  C   UNL     1      -7.044  19.419  68.987  1.00  0.00    -0.397 C  
HETATM   13  C   UNL     1      -6.710  20.825  68.411  1.00  0.00    -0.152 C  
HETATM   14  C   UNL     1      -5.730  20.952  67.256  1.00  0.00    -0.290 C  
ENDBRANCH   5   6
ENDBRANCH   2   4
BRANCH   3  15
HETATM   15  C   UNL     1      -7.816  12.308  68.530  1.00  0.00    -0.111 C  
HETATM   16  C   UNL     1      -8.865  11.639  68.026  1.00  0.00    -0.162 C  
BRANCH  16  17
HETATM   17  C   UNL     1      -9.293  10.320  68.511  1.00  0.00    -0.155 C  
HETATM   18  C   UNL     1      -9.386   8.798  70.599  1.00  0.00    -0.195 C  
HETATM   19  O   UNL     1      -8.818   8.599  71.665  1.00  0.00    -0.190 OA 
HETATM   20  C   UNL     1      -9.112  10.027  69.816  1.00  0.00    -0.219 C  
HETATM   21  C   UNL     1      -9.826   9.346  67.486  1.00  0.00    -0.220 C  
HETATM   22  O   UNL     1     -10.320   7.965  70.112  1.00  0.00    -0.206 OA 
ENDBRANCH  16  17
ENDBRANCH   3  15
TORSDOF 4
ENDMDL
MODEL      138
REMARK 921   NORMALIZED FREE ENERGY PREDICTED BY IDOCK:   -2.41 KCAL/MOL
REMARK 922        TOTAL FREE ENERGY PREDICTED BY IDOCK:   -3.60 KCAL/MOL
REMARK 923 INTER-LIGAND FREE ENERGY PREDICTED BY IDOCK:   -3.12 KCAL/MOL
REMARK 924 INTRA-LIGAND FREE ENERGY PREDICTED BY IDOCK:   -0.48 KCAL/MOL
REMARK 927      BINDING AFFINITY PREDICTED BY RF-SCORE:    0.00 PKD
ROOT
HETATM    1  C   UNL     1      -7.760   4.906  68.435  1.00  0.00    -0.082 C  
HETATM    2  C   UNL     1      -7.865   6.404  68.255  1.00  0.00    -0.105 C  
HETATM    3  C   UNL     1      -8.436   7.174  69.212  1.00  0.00    -0.133 C  
ENDROOT
BRANCH   2   4
HETATM    4  C   UNL     1      -7.341   7.021  67.034  1.00  0.00    -0.086 C  
HETATM    5  C   UNL     1      -8.043   7.380  65.943  1.00  0.00    -0.128 C  
BRANCH   5   6
HETATM    6  C   UNL     1      -7.473   8.000  64.744  1.00  0.00    -0.091 C  
HETATM    7  C   UNL     1      -6.837  10.215  65.807  1.00  0.00    -0.118 C  
HETATM    8  C   UNL     1      -6.823   7.261  63.820  1.00  0.00    -0.053 C  
HETATM    9  C   UNL     1      -6.216   7.839  62.575  1.00  0.00    -0.072 C  
HETATM   10  C   UNL     1      -6.584   5.768  63.916  1.00  0.00    -0.037 C  
HETATM   11  C   UNL     1      -9.113   9.920  64.813  1.00  0.00    -0.283 C  
HETATM   12  C   UNL     1      -7.619   9.532  64.656  1.00  0.00    -0.113 C  
HETATM   13  C   UNL     1      -7.138  10.168  63.320  1.00  0.00    -0.127 C  
HETATM   14  C   UNL     1      -6.340   9.332  62.333  1.00  0.00    -0.093 C  
ENDBRANCH   5   6
ENDBRANCH   2   4
BRANCH   3  15
HETATM   15  C   UNL     1      -8.947   6.649  70.468  1.00  0.00    -0.152 C  
HETATM   16  C   UNL     1     -10.021   5.861  70.627  1.00  0.00    -0.242 C  
BRANCH  16  17
HETATM   17  C   UNL     1     -10.513   5.418  71.939  1.00  0.00    -0.283 C  
HETATM   18  C   UNL     1     -10.977   3.332  73.394  1.00  0.00    -0.201 C  
HETATM   19  O   UNL     1     -11.239   2.140  73.303  1.00  0.00    -0.176 OA 
HETATM   20  C   UNL     1     -10.516   4.096  72.210  1.00  0.00    -0.141 C  
HETATM   21  C   UNL     1     -11.070   6.477  72.861  1.00  0.00    -0.257 C  
HETATM   22  O   UNL     1     -11.030   3.995  74.561  1.00  0.00    -0.151 OA 
ENDBRANCH  16  17
ENDBRANCH   3  15
TORSDOF 4
ENDMDL
MODEL      139
REMARK 921   NORMALIZED FREE ENERGY PREDICTED BY IDOCK:   -2.19 KCAL/MOL
REMARK 922        TOTAL FREE ENERGY PREDICTED BY IDOCK:   -3.32 KCAL/MOL
REMARK 923 INTER-LIGAND FREE ENERGY PREDICTED BY IDOCK:   -2.71 KCAL/MOL
REMARK 924 INTRA-LIGAND FREE ENERGY PREDICTED BY IDOCK:   -0.61 KCAL/MOL
REMARK 927      BINDING AFFINITY PREDICTED BY RF-SCORE:    0.00 PKD
ROOT
HETATM    1  C   UNL     1      -7.656   4.680  68.131  1.00  0.00    -0.077 C  
HETATM    2  C   UNL     1      -7.951   6.163  68.086  1.00  0.00    -0.107 C  
HETATM    3  C   UNL     1      -8.658   6.754  69.079  1.00  0.00    -0.131 C  
ENDROOT
BRANCH   2   4
HETATM    4  C   UNL     1      -7.465   6.960  66.957  1.00  0.00    -0.087 C  
HETATM    5  C   UNL     1      -8.054   7.105  65.756  1.00  0.00    -0.130 C  
BRANCH   5   6
HETATM    6  C   UNL     1      -7.530   7.920  64.656  1.00  0.00    -0.101 C  
HETATM    7  C   UNL     1      -7.840   6.202  62.815  1.00  0.00    -0.098 C  
HETATM    8  C   UNL     1      -7.706   9.258  64.635  1.00  0.00    -0.116 C  
HETATM    9  C   UNL     1      -7.196  10.144  63.536  1.00  0.00    -0.120 C  
HETATM   10  C   UNL     1      -8.463  10.049  65.683  1.00  0.00    -0.155 C  
HETATM   11  C   UNL     1      -5.711   6.248  64.127  1.00  0.00    -0.022 C  
HETATM   12  C   UNL     1      -6.831   7.139  63.527  1.00  0.00    -0.052 C  
HETATM   13  C   UNL     1      -6.155   8.016  62.433  1.00  0.00    -0.082 C  
HETATM   14  C   UNL     1      -6.436   9.510  62.387  1.00  0.00    -0.096 C  
ENDBRANCH   5   6
ENDBRANCH   2   4
BRANCH   3  15
HETATM   15  C   UNL     1      -9.145   6.046  70.251  1.00  0.00    -0.159 C  
HETATM   16  C   UNL     1     -10.164   6.414  71.042  1.00  0.00    -0.227 C  
BRANCH  16  17
HETATM   17  C   UNL     1     -10.561   5.674  72.249  1.00  0.00    -0.270 C  
HETATM   18  C   UNL     1     -10.829   3.304  73.246  1.00  0.00    -0.180 C  
HETATM   19  O   UNL     1     -11.028   2.143  72.913  1.00  0.00    -0.140 OA 
HETATM   20  C   UNL     1     -10.475   4.328  72.233  1.00  0.00    -0.164 C  
HETATM   21  C   UNL     1     -11.127   6.478  73.396  1.00  0.00    -0.066 C  
HETATM   22  O   UNL     1     -10.857   3.703  74.527  1.00  0.00    -0.128 OA 
ENDBRANCH  16  17
ENDBRANCH   3  15
TORSDOF 4
ENDMDL
MODEL      140
REMARK 921   NORMALIZED FREE ENERGY PREDICTED BY IDOCK:   -2.12 KCAL/MOL
REMARK 922        TOTAL FREE ENERGY PREDICTED BY IDOCK:   -3.24 KCAL/MOL
REMARK 923 INTER-LIGAND FREE ENERGY PREDICTED BY IDOCK:   -3.96 KCAL/MOL
REMARK 924 INTRA-LIGAND FREE ENERGY PREDICTED BY IDOCK:    0.73 KCAL/MOL
REMARK 927      BINDING AFFINITY PREDICTED BY RF-SCORE:    0.00 PKD
ROOT
HETATM    1  C   UNL     1     -10.246   8.623  72.387  1.00  0.00    -0.319 C  
HETATM    2  C   UNL     1      -9.797   8.589  70.944  1.00  0.00    -0.234 C  
HETATM    3  C   UNL     1      -9.238   7.470  70.422  1.00  0.00    -0.157 C  
ENDROOT
BRANCH   2   4
HETATM    4  C   UNL     1      -9.971   9.780  70.107  1.00  0.00    -0.315 C  
HETATM    5  C   UNL     1      -9.235  10.131  69.036  1.00  0.00    -0.188 C  
BRANCH   5   6
HETATM    6  C   UNL     1      -9.452  11.333  68.226  1.00  0.00    -0.190 C  
HETATM    7  C   UNL     1      -7.566  10.943  66.573  1.00  0.00    -0.142 C  
HETATM    8  C   UNL     1     -10.694  11.825  68.028  1.00  0.00    -0.244 C  
HETATM    9  C   UNL     1     -10.979  13.048  67.207  1.00  0.00    -0.288 C  
HETATM   10  C   UNL     1     -11.968  11.206  68.568  1.00  0.00    -0.250 C  
HETATM   11  C   UNL     1      -7.127  12.207  68.688  1.00  0.00    -0.103 C  
HETATM   12  C   UNL     1      -8.188  11.939  67.587  1.00  0.00    -0.148 C  
HETATM   13  C   UNL     1      -8.402  13.289  66.845  1.00  0.00    -0.018 C  
HETATM   14  C   UNL     1      -9.814  13.779  66.566  1.00  0.00    -0.294 C  
ENDBRANCH   5   6
ENDBRANCH   2   4
BRANCH   3  15
HETATM   15  C   UNL     1      -9.062   6.236  71.170  1.00  0.00    -0.148 C  
HETATM   16  C   UNL     1      -9.418   6.016  72.445  1.00  0.00    -0.153 C  
BRANCH  16  17
HETATM   17  C   UNL     1      -9.151   4.757  73.154  1.00  0.00    -0.121 C  
HETATM   18  C   UNL     1     -10.173   2.471  73.796  1.00  0.00    -0.117 C  
HETATM   19  O   UNL     1     -11.252   1.925  73.989  1.00  0.00    -0.161 OA 
HETATM   20  C   UNL     1     -10.108   3.805  73.154  1.00  0.00    -0.208 C  
HETATM   21  C   UNL     1      -7.849   4.655  73.914  1.00  0.00    -0.101 C  
HETATM   22  O   UNL     1      -9.003   1.882  74.091  1.00  0.00    -0.064 OA 
ENDBRANCH  16  17
ENDBRANCH   3  15
TORSDOF 4
ENDMDL
MODEL      141
REMARK 921   NORMALIZED FREE ENERGY PREDICTED BY IDOCK:   -1.82 KCAL/MOL
REMARK 922        TOTAL FREE ENERGY PREDICTED BY IDOCK:   -2.87 KCAL/MOL
REMARK 923 INTER-LIGAND FREE ENERGY PREDICTED BY IDOCK:   -3.74 KCAL/MOL
REMARK 924 INTRA-LIGAND FREE ENERGY PREDICTED BY IDOCK:    0.87 KCAL/MOL
REMARK 927      BINDING AFFINITY PREDICTED BY RF-SCORE:    0.00 PKD
ROOT
HETATM    1  C   UNL     1      -8.117  10.630  69.685  1.00  0.00     0.015 C  
HETATM    2  C   UNL     1      -9.438   9.936  69.441  1.00  0.00    -0.226 C  
HETATM    3  C   UNL     1     -10.430  10.561  68.762  1.00  0.00    -0.216 C  
ENDROOT
BRANCH   2   4
HETATM    4  C   UNL     1      -9.640   8.575  69.945  1.00  0.00    -0.171 C  
HETATM    5  C   UNL     1      -8.836   7.895  70.783  1.00  0.00    -0.139 C  
BRANCH   5   6
HETATM    6  C   UNL     1      -9.084   6.533  71.264  1.00  0.00    -0.148 C  
HETATM    7  C   UNL     1      -7.343   6.529  73.111  1.00  0.00    -0.085 C  
HETATM    8  C   UNL     1     -10.324   6.000  71.238  1.00  0.00    -0.266 C  
HETATM    9  C   UNL     1     -10.640   4.614  71.719  1.00  0.00    -0.078 C  
HETATM   10  C   UNL     1     -11.568   6.721  70.759  1.00  0.00    -0.418 C  
HETATM   11  C   UNL     1      -6.709   5.810  70.800  1.00  0.00    -0.052 C  
HETATM   12  C   UNL     1      -7.858   5.800  71.842  1.00  0.00    -0.106 C  
HETATM   13  C   UNL     1      -8.094   4.310  72.222  1.00  0.00    -0.092 C  
HETATM   14  C   UNL     1      -9.510   3.758  72.260  1.00  0.00    -0.187 C  
ENDBRANCH   5   6
ENDBRANCH   2   4
BRANCH   3  15
HETATM   15  C   UNL     1     -10.300  11.894  68.197  1.00  0.00    -0.210 C  
HETATM   16  C   UNL     1      -9.178  12.625  68.122  1.00  0.00    -0.209 C  
BRANCH  16  17
HETATM   17  C   UNL     1      -9.138  13.995  67.590  1.00  0.00    -0.192 C  
HETATM   18  C   UNL     1      -7.716  16.152  67.494  1.00  0.00    -0.147 C  
HETATM   19  O   UNL     1      -6.858  16.761  68.119  1.00  0.00    -0.143 OA 
HETATM   20  C   UNL     1      -8.047  14.749  67.840  1.00  0.00    -0.146 C  
HETATM   21  C   UNL     1     -10.371  14.494  66.873  1.00  0.00    -0.264 C  
HETATM   22  O   UNL     1      -8.353  16.682  66.437  1.00  0.00    -0.263 OA 
ENDBRANCH  16  17
ENDBRANCH   3  15
TORSDOF 4
ENDMDL
MODEL      142
REMARK 921   NORMALIZED FREE ENERGY PREDICTED BY IDOCK:   -1.49 KCAL/MOL
REMARK 922        TOTAL FREE ENERGY PREDICTED BY IDOCK:   -2.46 KCAL/MOL
REMARK 923 INTER-LIGAND FREE ENERGY PREDICTED BY IDOCK:   -3.42 KCAL/MOL
REMARK 924 INTRA-LIGAND FREE ENERGY PREDICTED BY IDOCK:    0.96 KCAL/MOL
REMARK 927      BINDING AFFINITY PREDICTED BY RF-SCORE:    0.00 PKD
ROOT
HETATM    1  C   UNL     1     -10.122   8.617  72.210  1.00  0.00    -0.363 C  
HETATM    2  C   UNL     1      -9.483   8.372  70.861  1.00  0.00    -0.205 C  
HETATM    3  C   UNL     1      -9.102   7.124  70.497  1.00  0.00    -0.155 C  
ENDROOT
BRANCH   2   4
HETATM    4  C   UNL     1      -9.279   9.498  69.946  1.00  0.00    -0.242 C  
HETATM    5  C   UNL     1     -10.196  10.405  69.561  1.00  0.00    -0.258 C  
BRANCH   5   6
HETATM    6  C   UNL     1      -9.942  11.519  68.644  1.00  0.00    -0.207 C  
HETATM    7  C   UNL     1     -11.904  12.964  69.352  1.00  0.00    -0.371 C  
HETATM    8  C   UNL     1      -8.682  11.869  68.305  1.00  0.00    -0.170 C  
HETATM    9  C   UNL     1      -8.360  13.001  67.375  1.00  0.00    -0.194 C  
HETATM   10  C   UNL     1      -7.426  11.203  68.831  1.00  0.00    -0.125 C  
HETATM   11  C   UNL     1     -12.196  11.273  67.532  1.00  0.00     0.869 C  
HETATM   12  C   UNL     1     -11.192  12.276  68.158  1.00  0.00    -0.320 C  
HETATM   13  C   UNL     1     -10.930  13.367  67.079  1.00  0.00    -0.298 C  
HETATM   14  C   UNL     1      -9.504  13.796  66.775  1.00  0.00    -0.281 C  
ENDBRANCH   5   6
ENDBRANCH   2   4
BRANCH   3  15
HETATM   15  C   UNL     1      -9.301   5.948  71.328  1.00  0.00    -0.172 C  
HETATM   16  C   UNL     1     -10.006   5.884  72.467  1.00  0.00    -0.198 C  
BRANCH  16  17
HETATM   17  C   UNL     1     -10.112   4.668  73.287  1.00  0.00    -0.201 C  
HETATM   18  C   UNL     1     -11.451   2.480  73.604  1.00  0.00    -0.154 C  
HETATM   19  O   UNL     1     -12.555   1.995  73.398  1.00  0.00    -0.018 OA 
HETATM   20  C   UNL     1     -11.059   3.761  72.969  1.00  0.00    -0.123 C  
HETATM   21  C   UNL     1      -9.204   4.566  74.490  1.00  0.00    -0.120 C  
HETATM   22  O   UNL     1     -10.521   1.864  74.352  1.00  0.00    -0.119 OA 
ENDBRANCH  16  17
ENDBRANCH   3  15
TORSDOF 4
ENDMDL
MODEL      143
REMARK 921   NORMALIZED FREE ENERGY PREDICTED BY IDOCK:   -0.81 KCAL/MOL
REMARK 922        TOTAL FREE ENERGY PREDICTED BY IDOCK:   -1.61 KCAL/MOL
REMARK 923 INTER-LIGAND FREE ENERGY PREDICTED BY IDOCK:   -1.96 KCAL/MOL
REMARK 924 INTRA-LIGAND FREE ENERGY PREDICTED BY IDOCK:    0.34 KCAL/MOL
REMARK 927      BINDING AFFINITY PREDICTED BY RF-SCORE:    0.00 PKD
ROOT
HETATM    1  C   UNL     1     -10.186  15.615  68.706  1.00  0.00    -0.215 C  
HETATM    2  C   UNL     1      -9.325  14.524  68.109  1.00  0.00    -0.197 C  
HETATM    3  C   UNL     1      -8.194  14.834  67.429  1.00  0.00    -0.216 C  
ENDROOT
BRANCH   2   4
HETATM    4  C   UNL     1      -9.722  13.123  68.271  1.00  0.00    -0.223 C  
HETATM    5  C   UNL     1      -9.231  12.241  69.161  1.00  0.00     0.593 C  
BRANCH   5   6
HETATM    6  C   UNL     1      -9.664  10.848  69.289  1.00  0.00    -0.087 C  
HETATM    7  C   UNL     1     -11.279  10.839  67.331  1.00  0.00    -0.315 C  
HETATM    8  C   UNL     1      -8.815   9.890  69.719  1.00  0.00    -0.229 C  
HETATM    9  C   UNL     1      -9.200   8.447  69.867  1.00  0.00    -0.151 C  
HETATM   10  C   UNL     1      -7.361  10.120  70.079  1.00  0.00    -0.172 C  
HETATM   11  C   UNL     1     -12.083  11.505  69.604  1.00  0.00    -0.363 C  
HETATM   12  C   UNL     1     -11.112  10.560  68.847  1.00  0.00    -0.312 C  
HETATM   13  C   UNL     1     -11.612   9.111  69.114  1.00  0.00     0.596 C  
HETATM   14  C   UNL     1     -10.618   8.035  69.521  1.00  0.00    -0.216 C  
ENDBRANCH   5   6
ENDBRANCH   2   4
BRANCH   3  15
HETATM   15  C   UNL     1      -7.709  16.193  67.254  1.00  0.00    -0.212 C  
HETATM   16  C   UNL     1      -8.309  17.173  66.562  1.00  0.00    -0.309 C  
BRANCH  16  17
HETATM   17  C   UNL     1      -7.725  18.510  66.378  1.00  0.00    -0.291 C  
HETATM   18  C   UNL     1      -6.333  20.353  67.539  1.00  0.00    -0.232 C  
HETATM   19  O   UNL     1      -6.055  20.786  68.650  1.00  0.00    -0.333 OA 
HETATM   20  C   UNL     1      -7.004  19.039  67.389  1.00  0.00    -0.217 C  
HETATM   21  C   UNL     1      -8.053  19.236  65.095  1.00  0.00     1.374 C  
HETATM   22  O   UNL     1      -5.997  20.995  66.409  1.00  0.00    -0.230 OA 
ENDBRANCH  16  17
ENDBRANCH   3  15
TORSDOF 4
ENDMDL
MODEL      144
REMARK 921   NORMALIZED FREE ENERGY PREDICTED BY IDOCK:    2.96 KCAL/MOL
REMARK 922        TOTAL FREE ENERGY PREDICTED BY IDOCK:    3.04 KCAL/MOL
REMARK 923 INTER-LIGAND FREE ENERGY PREDICTED BY IDOCK:    3.47 KCAL/MOL
REMARK 924 INTRA-LIGAND FREE ENERGY PREDICTED BY IDOCK:   -0.44 KCAL/MOL
REMARK 927      BINDING AFFINITY PREDICTED BY RF-SCORE:    0.00 PKD
ROOT
HETATM    1  C   UNL     1      -9.560  16.034  68.829  1.00  0.00    -0.221 C  
HETATM    2  C   UNL     1      -8.681  14.876  68.413  1.00  0.00    -0.172 C  
HETATM    3  C   UNL     1      -7.647  15.069  67.559  1.00  0.00    -0.216 C  
ENDROOT
BRANCH   2   4
HETATM    4  C   UNL     1      -8.955  13.537  68.942  1.00  0.00     0.221 C  
HETATM    5  C   UNL     1      -8.975  12.383  68.251  1.00  0.00    -0.178 C  
BRANCH   5   6
HETATM    6  C   UNL     1      -9.251  11.064  68.827  1.00  0.00    -0.167 C  
HETATM    7  C   UNL     1      -7.182  10.920  70.290  1.00  0.00     0.497 C  
HETATM    8  C   UNL     1     -10.517  10.660  69.069  1.00  0.00    -0.237 C  
HETATM    9  C   UNL     1     -10.861   9.324  69.660  1.00  0.00    -0.228 C  
HETATM   10  C   UNL     1     -11.756  11.494  68.816  1.00  0.00    -0.397 C  
HETATM   11  C   UNL     1      -7.098  10.092  67.931  1.00  0.00    -0.085 C  
HETATM   12  C   UNL     1      -8.010  10.222  69.180  1.00  0.00    -0.135 C  
HETATM   13  C   UNL     1      -8.306   8.772  69.661  1.00  0.00    -0.126 C  
HETATM   14  C   UNL     1      -9.733   8.369  70.001  1.00  0.00    -0.176 C  
ENDBRANCH   5   6
ENDBRANCH   2   4
BRANCH   3  15
HETATM   15  C   UNL     1      -7.283  16.368  67.017  1.00  0.00    -0.257 C  
HETATM   16  C   UNL     1      -8.031  17.135  66.210  1.00  0.00    -0.339 C  
BRANCH  16  17
HETATM   17  C   UNL     1      -7.568  18.414  65.652  1.00  0.00     0.073 C  
HETATM   18  C   UNL     1      -6.157  20.519  66.159  1.00  0.00    -0.207 C  
HETATM   19  O   UNL     1      -5.759  21.203  67.093  1.00  0.00    -0.225 OA 
HETATM   20  C   UNL     1      -6.753  19.184  66.402  1.00  0.00    -0.218 C  
HETATM   21  C   UNL     1      -8.118  18.818  64.304  1.00  0.00     6.510 C  
HETATM   22  O   UNL     1      -6.024  20.900  64.878  1.00  0.00    -0.244 OA 
ENDBRANCH  16  17
ENDBRANCH   3  15
TORSDOF 4
ENDMDL
