MODEL        1
REMARK 921   NORMALIZED FREE ENERGY PREDICTED BY IDOCK:   -7.86 KCAL/MOL
REMARK 922        TOTAL FREE ENERGY PREDICTED BY IDOCK:   -8.50 KCAL/MOL
REMARK 923 INTER-LIGAND FREE ENERGY PREDICTED BY IDOCK:   -8.32 KCAL/MOL
REMARK 924 INTRA-LIGAND FREE ENERGY PREDICTED BY IDOCK:   -0.18 KCAL/MOL
REMARK 927      BINDING AFFINITY PREDICTED BY RF-SCORE:    0.00 PKD
ROOT
HETATM    1  N   UNL     1     -11.639  16.550  63.714  1.00  0.00    -1.433 NA 
HETATM    2  H1  UNL     1     -11.219  17.435  64.001  1.00  0.00     0.000 HD 
HETATM    3  C   UNL     1     -11.725  15.549  64.655  1.00  0.00    -0.226 A  
HETATM    4  H2  UNL     1     -11.982  16.412  62.763  1.00  0.00     0.000 HD 
HETATM    5  N   UNL     1     -12.273  14.397  64.282  1.00  0.00    -0.593 NA 
HETATM    6  C   UNL     1     -12.379  13.452  65.228  1.00  0.00    -0.469 A  
HETATM    7  N   UNL     1     -12.910  12.226  64.793  1.00  0.00    -0.666 NA 
HETATM    8  C   UNL     1     -11.940  13.607  66.541  1.00  0.00    -0.424 A  
HETATM    9  H2  UNL     1     -12.371  11.871  64.002  1.00  0.00     0.000 HD 
HETATM   10  H1  UNL     1     -12.990  11.508  65.513  1.00  0.00     0.000 HD 
HETATM   11  N   UNL     1     -12.091  12.657  67.511  1.00  0.00    -0.416 NA 
HETATM   12  C   UNL     1     -11.627  12.956  68.752  1.00  0.00    -0.311 A  
HETATM   13  N   UNL     1     -11.233  15.796  65.863  1.00  0.00    -0.088 NA 
HETATM   14  C   UNL     1     -10.977  14.182  68.971  1.00  0.00    -0.261 A  
HETATM   15  H2  UNL     1      -9.759  13.834  70.459  1.00  0.00     0.000 HD 
HETATM   16  N   UNL     1     -10.413  14.568  70.187  1.00  0.00    -0.373 NA 
HETATM   17  N   UNL     1     -10.855  15.111  67.998  1.00  0.00    -0.275 NA 
HETATM   18  H1  UNL     1      -9.941  15.458  70.346  1.00  0.00     0.000 HD 
HETATM   19  C   UNL     1     -11.345  14.846  66.785  1.00  0.00    -0.328 A  
ENDROOT
BRANCH  12  20
HETATM   20  C   UNL     1     -11.884  11.915  69.779  1.00  0.00    -0.411 A  
HETATM   21  C   UNL     1     -11.311  10.632  69.657  1.00  0.00    -0.360 A  
HETATM   22  C   UNL     1     -11.573   9.617  70.584  1.00  0.00    -0.371 A  
HETATM   23  C   UNL     1     -12.416   9.861  71.665  1.00  0.00    -0.507 A  
HETATM   24  C   UNL     1     -12.995  11.116  71.814  1.00  0.00    -0.526 A  
HETATM   25  C   UNL     1     -12.738  12.126  70.878  1.00  0.00    -0.280 A  
ENDBRANCH  12  20
TORSDOF 1
ENDMDL
MODEL        2
REMARK 921   NORMALIZED FREE ENERGY PREDICTED BY IDOCK:   -7.77 KCAL/MOL
REMARK 922        TOTAL FREE ENERGY PREDICTED BY IDOCK:   -8.41 KCAL/MOL
REMARK 923 INTER-LIGAND FREE ENERGY PREDICTED BY IDOCK:   -8.24 KCAL/MOL
REMARK 924 INTRA-LIGAND FREE ENERGY PREDICTED BY IDOCK:   -0.16 KCAL/MOL
REMARK 927      BINDING AFFINITY PREDICTED BY RF-SCORE:    0.00 PKD
ROOT
HETATM    1  N   UNL     1     -11.581  16.441  63.714  1.00  0.00    -1.515 NA 
HETATM    2  H1  UNL     1     -11.172  17.328  64.006  1.00  0.00     0.000 HD 
HETATM    3  C   UNL     1     -11.695  15.447  64.661  1.00  0.00    -0.267 A  
HETATM    4  H2  UNL     1     -11.896  16.294  62.755  1.00  0.00     0.000 HD 
HETATM    5  N   UNL     1     -12.229  14.291  64.282  1.00  0.00    -0.600 NA 
HETATM    6  C   UNL     1     -12.363  13.355  65.232  1.00  0.00    -0.469 A  
HETATM    7  N   UNL     1     -12.879  12.124  64.792  1.00  0.00    -0.537 NA 
HETATM    8  C   UNL     1     -11.965  13.521  66.556  1.00  0.00    -0.413 A  
HETATM    9  H2  UNL     1     -12.316  11.763  64.021  1.00  0.00     0.000 HD 
HETATM   10  H1  UNL     1     -12.981  11.412  65.515  1.00  0.00     0.000 HD 
HETATM   11  N   UNL     1     -12.144  12.580  67.529  1.00  0.00    -0.444 NA 
HETATM   12  C   UNL     1     -11.719  12.890  68.782  1.00  0.00    -0.323 A  
HETATM   13  N   UNL     1     -11.240  15.706  65.881  1.00  0.00    -0.144 NA 
HETATM   14  C   UNL     1     -11.078  14.119  69.010  1.00  0.00    -0.263 A  
HETATM   15  H2  UNL     1      -9.905  13.785  70.537  1.00  0.00     0.000 HD 
HETATM   16  N   UNL     1     -10.551  14.517  70.239  1.00  0.00    -0.392 NA 
HETATM   17  N   UNL     1     -10.927  15.040  68.033  1.00  0.00    -0.274 NA 
HETATM   18  H1  UNL     1     -10.086  15.409  70.405  1.00  0.00     0.000 HD 
HETATM   19  C   UNL     1     -11.380  14.763  66.808  1.00  0.00    -0.346 A  
ENDROOT
BRANCH  12  20
HETATM   20  C   UNL     1     -12.006  11.858  69.809  1.00  0.00    -0.377 A  
HETATM   21  C   UNL     1     -12.911  12.123  70.857  1.00  0.00    -0.190 A  
HETATM   22  C   UNL     1     -13.166  11.186  71.865  1.00  0.00    -0.488 A  
HETATM   23  C   UNL     1     -12.522   9.952  71.849  1.00  0.00    -0.435 A  
HETATM   24  C   UNL     1     -11.625   9.660  70.828  1.00  0.00    -0.395 A  
HETATM   25  C   UNL     1     -11.366  10.604  69.827  1.00  0.00    -0.371 A  
ENDBRANCH  12  20
TORSDOF 1
ENDMDL
MODEL        3
REMARK 921   NORMALIZED FREE ENERGY PREDICTED BY IDOCK:   -7.68 KCAL/MOL
REMARK 922        TOTAL FREE ENERGY PREDICTED BY IDOCK:   -8.31 KCAL/MOL
REMARK 923 INTER-LIGAND FREE ENERGY PREDICTED BY IDOCK:   -8.08 KCAL/MOL
REMARK 924 INTRA-LIGAND FREE ENERGY PREDICTED BY IDOCK:   -0.23 KCAL/MOL
REMARK 927      BINDING AFFINITY PREDICTED BY RF-SCORE:    0.00 PKD
ROOT
HETATM    1  N   UNL     1     -13.253  11.880  64.052  1.00  0.00    -0.603 NA 
HETATM    2  H1  UNL     1     -13.368  11.036  64.614  1.00  0.00     0.000 HD 
HETATM    3  C   UNL     1     -12.627  12.958  64.637  1.00  0.00    -0.391 A  
HETATM    4  H2  UNL     1     -13.591  11.923  63.090  1.00  0.00     0.000 HD 
HETATM    5  N   UNL     1     -12.478  14.056  63.905  1.00  0.00    -0.756 NA 
HETATM    6  C   UNL     1     -11.831  15.078  64.486  1.00  0.00    -0.371 A  
HETATM    7  N   UNL     1     -11.736  16.245  63.710  1.00  0.00    -1.488 NA 
HETATM    8  C   UNL     1     -11.339  15.052  65.788  1.00  0.00    -0.279 A  
HETATM    9  H2  UNL     1     -12.664  16.544  63.409  1.00  0.00     0.000 HD 
HETATM   10  H1  UNL     1     -11.244  17.022  64.152  1.00  0.00     0.000 HD 
HETATM   11  N   UNL     1     -10.643  16.080  66.359  1.00  0.00    -0.305 NA 
HETATM   12  C   UNL     1     -10.210  15.905  67.635  1.00  0.00    -0.263 A  
HETATM   13  N   UNL     1     -12.240  12.832  65.900  1.00  0.00    -0.559 NA 
HETATM   14  C   UNL     1     -10.534  14.722  68.320  1.00  0.00    -0.241 A  
HETATM   15  H2  UNL     1     -10.552  15.234  70.205  1.00  0.00     0.000 HD 
HETATM   16  N   UNL     1     -10.192  14.460  69.647  1.00  0.00    -0.428 NA 
HETATM   17  N   UNL     1     -11.210  13.713  67.726  1.00  0.00    -0.274 NA 
HETATM   18  H1  UNL     1     -10.427  13.601  70.143  1.00  0.00     0.000 HD 
HETATM   19  C   UNL     1     -11.603  13.857  66.459  1.00  0.00    -0.369 A  
ENDROOT
BRANCH  12  20
HETATM   20  C   UNL     1      -9.400  17.025  68.175  1.00  0.00    -0.254 A  
HETATM   21  C   UNL     1     -10.006  18.254  68.507  1.00  0.00    -0.413 A  
HETATM   22  C   UNL     1      -9.261  19.342  68.973  1.00  0.00    -0.325 A  
HETATM   23  C   UNL     1      -7.882  19.228  69.125  1.00  0.00    -0.250 A  
HETATM   24  C   UNL     1      -7.254  18.029  68.808  1.00  0.00    -0.283 A  
HETATM   25  C   UNL     1      -8.003  16.946  68.332  1.00  0.00    -0.232 A  
ENDBRANCH  12  20
TORSDOF 1
ENDMDL
MODEL        4
REMARK 921   NORMALIZED FREE ENERGY PREDICTED BY IDOCK:   -7.68 KCAL/MOL
REMARK 922        TOTAL FREE ENERGY PREDICTED BY IDOCK:   -8.31 KCAL/MOL
REMARK 923 INTER-LIGAND FREE ENERGY PREDICTED BY IDOCK:   -8.16 KCAL/MOL
REMARK 924 INTRA-LIGAND FREE ENERGY PREDICTED BY IDOCK:   -0.15 KCAL/MOL
REMARK 927      BINDING AFFINITY PREDICTED BY RF-SCORE:    0.00 PKD
ROOT
HETATM    1  N   UNL     1     -10.269  12.996  63.773  1.00  0.00    -0.716 NA 
HETATM    2  H1  UNL     1      -9.903  13.793  63.251  1.00  0.00     0.000 HD 
HETATM    3  C   UNL     1     -10.655  13.209  65.078  1.00  0.00    -0.332 A  
HETATM    4  H2  UNL     1     -10.345  12.074  63.344  1.00  0.00     0.000 HD 
HETATM    5  N   UNL     1     -11.132  12.172  65.757  1.00  0.00    -0.307 NA 
HETATM    6  C   UNL     1     -11.537  12.416  67.013  1.00  0.00    -0.365 A  
HETATM    7  N   UNL     1     -11.984  11.291  67.726  1.00  0.00    -0.635 NA 
HETATM    8  C   UNL     1     -11.467  13.662  67.629  1.00  0.00    -0.325 A  
HETATM    9  H2  UNL     1     -11.266  10.565  67.724  1.00  0.00     0.000 HD 
HETATM   10  H1  UNL     1     -12.291  11.476  68.681  1.00  0.00     0.000 HD 
HETATM   11  N   UNL     1     -11.921  13.914  68.892  1.00  0.00    -0.352 NA 
HETATM   12  C   UNL     1     -11.801  15.185  69.356  1.00  0.00    -0.330 A  
HETATM   13  N   UNL     1     -10.501  14.431  65.572  1.00  0.00    -0.328 NA 
HETATM   14  C   UNL     1     -11.181  16.158  68.554  1.00  0.00    -0.365 A  
HETATM   15  H2  UNL     1     -10.434  17.439  69.827  1.00  0.00     0.000 HD 
HETATM   16  N   UNL     1     -10.954  17.477  68.950  1.00  0.00    -0.201 NA 
HETATM   17  N   UNL     1     -10.754  15.887  67.301  1.00  0.00    -0.315 NA 
HETATM   18  H1  UNL     1     -10.503  18.182  68.368  1.00  0.00     0.000 HD 
HETATM   19  C   UNL     1     -10.906  14.652  66.819  1.00  0.00    -0.312 A  
ENDROOT
BRANCH  12  20
HETATM   20  C   UNL     1     -12.377  15.411  70.705  1.00  0.00    -0.451 A  
HETATM   21  C   UNL     1     -11.542  15.725  71.797  1.00  0.00    -0.541 A  
HETATM   22  C   UNL     1     -12.051  15.898  73.089  1.00  0.00    -0.611 A  
HETATM   23  C   UNL     1     -13.417  15.765  73.323  1.00  0.00    -0.580 A  
HETATM   24  C   UNL     1     -14.267  15.458  72.267  1.00  0.00    -0.639 A  
HETATM   25  C   UNL     1     -13.751  15.276  70.978  1.00  0.00    -0.452 A  
ENDBRANCH  12  20
TORSDOF 1
ENDMDL
MODEL        5
REMARK 921   NORMALIZED FREE ENERGY PREDICTED BY IDOCK:   -7.57 KCAL/MOL
REMARK 922        TOTAL FREE ENERGY PREDICTED BY IDOCK:   -8.19 KCAL/MOL
REMARK 923 INTER-LIGAND FREE ENERGY PREDICTED BY IDOCK:   -7.95 KCAL/MOL
REMARK 924 INTRA-LIGAND FREE ENERGY PREDICTED BY IDOCK:   -0.24 KCAL/MOL
REMARK 927      BINDING AFFINITY PREDICTED BY RF-SCORE:    0.00 PKD
ROOT
HETATM    1  N   UNL     1     -12.568  16.434  74.562  1.00  0.00    -0.915 NA 
HETATM    2  H1  UNL     1     -12.154  17.365  74.599  1.00  0.00     0.000 HD 
HETATM    3  C   UNL     1     -12.544  15.771  73.355  1.00  0.00    -0.545 A  
HETATM    4  H2  UNL     1     -12.985  16.008  75.390  1.00  0.00     0.000 HD 
HETATM    5  N   UNL     1     -13.083  14.557  73.307  1.00  0.00    -0.589 NA 
HETATM    6  C   UNL     1     -13.012  13.920  72.129  1.00  0.00    -0.350 A  
HETATM    7  N   UNL     1     -13.638  12.662  72.091  1.00  0.00    -0.497 NA 
HETATM    8  C   UNL     1     -12.436  14.458  70.981  1.00  0.00    -0.355 A  
HETATM    9  H2  UNL     1     -14.611  12.745  72.387  1.00  0.00     0.000 HD 
HETATM   10  H1  UNL     1     -13.584  12.177  71.195  1.00  0.00     0.000 HD 
HETATM   11  N   UNL     1     -12.328  13.786  69.797  1.00  0.00    -0.298 NA 
HETATM   12  C   UNL     1     -11.725  14.435  68.766  1.00  0.00    -0.337 A  
HETATM   13  N   UNL     1     -12.007  16.402  72.318  1.00  0.00    -0.511 NA 
HETATM   14  C   UNL     1     -11.294  15.760  68.940  1.00  0.00    -0.356 A  
HETATM   15  H2  UNL     1     -11.365  16.539  67.149  1.00  0.00     0.000 HD 
HETATM   16  N   UNL     1     -10.717  16.539  67.937  1.00  0.00    -0.335 NA 
HETATM   17  N   UNL     1     -11.398  16.397  70.127  1.00  0.00    -0.277 NA 
HETATM   18  H1  UNL     1     -10.404  17.501  68.063  1.00  0.00     0.000 HD 
HETATM   19  C   UNL     1     -11.950  15.754  71.159  1.00  0.00    -0.423 A  
ENDROOT
BRANCH  12  20
HETATM   20  C   UNL     1     -11.574  13.629  67.529  1.00  0.00    -0.384 A  
HETATM   21  C   UNL     1     -12.507  13.746  66.478  1.00  0.00    -0.356 A  
HETATM   22  C   UNL     1     -12.415  12.966  65.320  1.00  0.00    -0.552 A  
HETATM   23  C   UNL     1     -11.381  12.045  65.181  1.00  0.00    -0.359 A  
HETATM   24  C   UNL     1     -10.444  11.907  66.198  1.00  0.00    -0.272 A  
HETATM   25  C   UNL     1     -10.545  12.683  67.359  1.00  0.00    -0.240 A  
ENDBRANCH  12  20
TORSDOF 1
ENDMDL
MODEL        6
REMARK 921   NORMALIZED FREE ENERGY PREDICTED BY IDOCK:   -7.52 KCAL/MOL
REMARK 922        TOTAL FREE ENERGY PREDICTED BY IDOCK:   -8.13 KCAL/MOL
REMARK 923 INTER-LIGAND FREE ENERGY PREDICTED BY IDOCK:   -7.96 KCAL/MOL
REMARK 924 INTRA-LIGAND FREE ENERGY PREDICTED BY IDOCK:   -0.17 KCAL/MOL
REMARK 927      BINDING AFFINITY PREDICTED BY RF-SCORE:    0.00 PKD
ROOT
HETATM    1  N   UNL     1     -11.587  16.453  63.833  1.00  0.00    -1.602 NA 
HETATM    2  H1  UNL     1     -10.932  17.183  64.114  1.00  0.00     0.000 HD 
HETATM    3  C   UNL     1     -11.561  15.266  64.531  1.00  0.00    -0.312 A  
HETATM    4  H2  UNL     1     -12.239  16.598  63.062  1.00  0.00     0.000 HD 
HETATM    5  N   UNL     1     -12.415  14.316  64.165  1.00  0.00    -0.712 NA 
HETATM    6  C   UNL     1     -12.394  13.185  64.886  1.00  0.00    -0.441 A  
HETATM    7  N   UNL     1     -13.267  12.177  64.443  1.00  0.00    -0.681 NA 
HETATM    8  C   UNL     1     -11.533  12.956  65.956  1.00  0.00    -0.340 A  
HETATM    9  H2  UNL     1     -13.094  11.970  63.459  1.00  0.00     0.000 HD 
HETATM   10  H1  UNL     1     -13.251  11.317  64.992  1.00  0.00     0.000 HD 
HETATM   11  N   UNL     1     -11.547  11.819  66.714  1.00  0.00    -0.536 NA 
HETATM   12  C   UNL     1     -10.657  11.742  67.738  1.00  0.00    -0.200 A  
HETATM   13  N   UNL     1     -10.666  15.146  65.504  1.00  0.00    -0.340 NA 
HETATM   14  C   UNL     1      -9.744  12.790  67.940  1.00  0.00    -0.217 A  
HETATM   15  H2  UNL     1      -8.205  11.942  68.795  1.00  0.00     0.000 HD 
HETATM   16  N   UNL     1      -8.752  12.793  68.923  1.00  0.00    -0.346 NA 
HETATM   17  N   UNL     1      -9.762  13.912  67.187  1.00  0.00    -0.237 NA 
HETATM   18  H1  UNL     1      -8.089  13.553  69.069  1.00  0.00     0.000 HD 
HETATM   19  C   UNL     1     -10.659  14.016  66.204  1.00  0.00    -0.290 A  
ENDROOT
BRANCH  12  20
HETATM   20  C   UNL     1     -10.769  10.517  68.568  1.00  0.00    -0.259 A  
HETATM   21  C   UNL     1     -11.195  10.596  69.910  1.00  0.00    -0.378 A  
HETATM   22  C   UNL     1     -11.265   9.464  70.729  1.00  0.00    -0.367 A  
HETATM   23  C   UNL     1     -10.913   8.216  70.224  1.00  0.00    -0.240 A  
HETATM   24  C   UNL     1     -10.491   8.104  68.904  1.00  0.00    -0.202 A  
HETATM   25  C   UNL     1     -10.412   9.241  68.092  1.00  0.00    -0.263 A  
ENDBRANCH  12  20
TORSDOF 1
ENDMDL
MODEL        7
REMARK 921   NORMALIZED FREE ENERGY PREDICTED BY IDOCK:   -7.40 KCAL/MOL
REMARK 922        TOTAL FREE ENERGY PREDICTED BY IDOCK:   -8.02 KCAL/MOL
REMARK 923 INTER-LIGAND FREE ENERGY PREDICTED BY IDOCK:   -7.79 KCAL/MOL
REMARK 924 INTRA-LIGAND FREE ENERGY PREDICTED BY IDOCK:   -0.23 KCAL/MOL
REMARK 927      BINDING AFFINITY PREDICTED BY RF-SCORE:    0.00 PKD
ROOT
HETATM    1  N   UNL     1     -10.265  12.878  63.645  1.00  0.00    -0.682 NA 
HETATM    2  H1  UNL     1      -9.927  13.693  63.134  1.00  0.00     0.000 HD 
HETATM    3  C   UNL     1     -10.629  13.054  64.962  1.00  0.00    -0.319 A  
HETATM    4  H2  UNL     1     -10.333  11.964  63.197  1.00  0.00     0.000 HD 
HETATM    5  N   UNL     1     -11.070  11.992  65.628  1.00  0.00    -0.305 NA 
HETATM    6  C   UNL     1     -11.453  12.200  66.897  1.00  0.00    -0.351 A  
HETATM    7  N   UNL     1     -11.862  11.050  67.594  1.00  0.00    -0.623 NA 
HETATM    8  C   UNL     1     -11.394  13.434  67.539  1.00  0.00    -0.298 A  
HETATM    9  H2  UNL     1     -11.131  10.340  67.560  1.00  0.00     0.000 HD 
HETATM   10  H1  UNL     1     -12.153  11.208  68.559  1.00  0.00     0.000 HD 
HETATM   11  N   UNL     1     -11.827  13.648  68.817  1.00  0.00    -0.344 NA 
HETATM   12  C   UNL     1     -11.722  14.911  69.307  1.00  0.00    -0.316 A  
HETATM   13  N   UNL     1     -10.488  14.267  65.481  1.00  0.00    -0.326 NA 
HETATM   14  C   UNL     1     -11.138  15.913  68.515  1.00  0.00    -0.340 A  
HETATM   15  H2  UNL     1     -10.390  17.181  69.800  1.00  0.00     0.000 HD 
HETATM   16  N   UNL     1     -10.928  17.227  68.935  1.00  0.00    -0.266 NA 
HETATM   17  N   UNL     1     -10.733  15.679  67.247  1.00  0.00    -0.304 NA 
HETATM   18  H1  UNL     1     -10.504  17.954  68.360  1.00  0.00     0.000 HD 
HETATM   19  C   UNL     1     -10.870  14.452  66.741  1.00  0.00    -0.301 A  
ENDROOT
BRANCH  12  20
HETATM   20  C   UNL     1     -12.273  15.095  70.672  1.00  0.00    -0.401 A  
HETATM   21  C   UNL     1     -13.661  15.254  70.869  1.00  0.00    -0.402 A  
HETATM   22  C   UNL     1     -14.204  15.476  72.139  1.00  0.00    -0.617 A  
HETATM   23  C   UNL     1     -13.371  15.542  73.252  1.00  0.00    -0.583 A  
HETATM   24  C   UNL     1     -11.999  15.387  73.091  1.00  0.00    -0.559 A  
HETATM   25  C   UNL     1     -11.459  15.175  71.817  1.00  0.00    -0.452 A  
ENDBRANCH  12  20
TORSDOF 1
ENDMDL
MODEL        8
REMARK 921   NORMALIZED FREE ENERGY PREDICTED BY IDOCK:   -7.24 KCAL/MOL
REMARK 922        TOTAL FREE ENERGY PREDICTED BY IDOCK:   -7.84 KCAL/MOL
REMARK 923 INTER-LIGAND FREE ENERGY PREDICTED BY IDOCK:   -7.62 KCAL/MOL
REMARK 924 INTRA-LIGAND FREE ENERGY PREDICTED BY IDOCK:   -0.22 KCAL/MOL
REMARK 927      BINDING AFFINITY PREDICTED BY RF-SCORE:    0.00 PKD
ROOT
HETATM    1  N   UNL     1     -12.076  16.037  72.807  1.00  0.00    -0.490 NA 
HETATM    2  H1  UNL     1     -12.372  15.357  73.508  1.00  0.00     0.000 HD 
HETATM    3  C   UNL     1     -11.859  15.580  71.526  1.00  0.00    -0.406 A  
HETATM    4  H2  UNL     1     -11.947  17.020  73.046  1.00  0.00     0.000 HD 
HETATM    5  N   UNL     1     -11.474  16.465  70.612  1.00  0.00    -0.277 NA 
HETATM    6  C   UNL     1     -11.306  16.001  69.365  1.00  0.00    -0.355 A  
HETATM    7  N   UNL     1     -10.846  16.946  68.432  1.00  0.00    -0.362 NA 
HETATM    8  C   UNL     1     -11.491  14.672  68.994  1.00  0.00    -0.291 A  
HETATM    9  H2  UNL     1      -9.983  17.377  68.765  1.00  0.00     0.000 HD 
HETATM   10  H1  UNL     1     -10.718  16.592  67.484  1.00  0.00     0.000 HD 
HETATM   11  N   UNL     1     -11.360  14.214  67.713  1.00  0.00    -0.291 NA 
HETATM   12  C   UNL     1     -11.588  12.892  67.498  1.00  0.00    -0.356 A  
HETATM   13  N   UNL     1     -12.024  14.283  71.299  1.00  0.00    -0.308 NA 
HETATM   14  C   UNL     1     -11.890  12.056  68.587  1.00  0.00    -0.311 A  
HETATM   15  H2  UNL     1     -11.257  10.290  68.040  1.00  0.00     0.000 HD 
HETATM   16  N   UNL     1     -12.085  10.678  68.491  1.00  0.00    -0.819 NA 
HETATM   17  N   UNL     1     -12.028  12.537  69.842  1.00  0.00    -0.328 NA 
HETATM   18  H1  UNL     1     -12.304  10.072  69.281  1.00  0.00     0.000 HD 
HETATM   19  C   UNL     1     -11.849  13.842  70.057  1.00  0.00    -0.315 A  
ENDROOT
BRANCH  12  20
HETATM   20  C   UNL     1     -11.502  12.469  66.079  1.00  0.00    -0.423 A  
HETATM   21  C   UNL     1     -10.370  11.774  65.605  1.00  0.00    -0.293 A  
HETATM   22  C   UNL     1     -10.240  11.404  64.262  1.00  0.00    -0.367 A  
HETATM   23  C   UNL     1     -11.246  11.718  63.353  1.00  0.00    -0.440 A  
HETATM   24  C   UNL     1     -12.376  12.402  63.788  1.00  0.00    -0.625 A  
HETATM   25  C   UNL     1     -12.496  12.779  65.131  1.00  0.00    -0.565 A  
ENDBRANCH  12  20
TORSDOF 1
ENDMDL
MODEL        9
REMARK 921   NORMALIZED FREE ENERGY PREDICTED BY IDOCK:   -7.19 KCAL/MOL
REMARK 922        TOTAL FREE ENERGY PREDICTED BY IDOCK:   -7.79 KCAL/MOL
REMARK 923 INTER-LIGAND FREE ENERGY PREDICTED BY IDOCK:   -7.65 KCAL/MOL
REMARK 924 INTRA-LIGAND FREE ENERGY PREDICTED BY IDOCK:   -0.14 KCAL/MOL
REMARK 927      BINDING AFFINITY PREDICTED BY RF-SCORE:    0.00 PKD
ROOT
HETATM    1  N   UNL     1      -9.544  11.198  62.506  1.00  0.00    -0.585 NA 
HETATM    2  H1  UNL     1      -8.619  10.768  62.529  1.00  0.00     0.000 HD 
HETATM    3  C   UNL     1     -10.175  11.423  63.709  1.00  0.00    -0.382 A  
HETATM    4  H2  UNL     1      -9.986  11.453  61.623  1.00  0.00     0.000 HD 
HETATM    5  N   UNL     1     -11.378  11.984  63.680  1.00  0.00    -0.428 NA 
HETATM    6  C   UNL     1     -11.954  12.226  64.867  1.00  0.00    -0.357 A  
HETATM    7  N   UNL     1     -13.249  12.769  64.805  1.00  0.00    -0.754 NA 
HETATM    8  C   UNL     1     -11.377  11.911  66.094  1.00  0.00    -0.324 A  
HETATM    9  H2  UNL     1     -13.852  12.173  64.238  1.00  0.00     0.000 HD 
HETATM   10  H1  UNL     1     -13.686  12.953  65.708  1.00  0.00     0.000 HD 
HETATM   11  N   UNL     1     -11.948  12.200  67.301  1.00  0.00    -0.578 NA 
HETATM   12  C   UNL     1     -11.259  11.846  68.417  1.00  0.00    -0.258 A  
HETATM   13  N   UNL     1      -9.546  11.039  64.814  1.00  0.00    -0.234 NA 
HETATM   14  C   UNL     1     -10.038  11.164  68.289  1.00  0.00    -0.185 A  
HETATM   15  H2  UNL     1      -9.886  10.115  69.930  1.00  0.00     0.000 HD 
HETATM   16  N   UNL     1      -9.276  10.704  69.363  1.00  0.00    -0.395 NA 
HETATM   17  N   UNL     1      -9.486  10.904  67.083  1.00  0.00    -0.160 NA 
HETATM   18  H1  UNL     1      -8.389  10.209  69.270  1.00  0.00     0.000 HD 
HETATM   19  C   UNL     1     -10.134  11.286  65.980  1.00  0.00    -0.239 A  
ENDROOT
BRANCH  12  20
HETATM   20  C   UNL     1     -11.897  12.250  69.695  1.00  0.00    -0.393 A  
HETATM   21  C   UNL     1     -12.357  11.277  70.606  1.00  0.00    -0.477 A  
HETATM   22  C   UNL     1     -13.003  11.628  71.796  1.00  0.00    -0.483 A  
HETATM   23  C   UNL     1     -13.204  12.969  72.110  1.00  0.00    -0.558 A  
HETATM   24  C   UNL     1     -12.760  13.953  71.234  1.00  0.00    -0.444 A  
HETATM   25  C   UNL     1     -12.123  13.596  70.039  1.00  0.00    -0.417 A  
ENDBRANCH  12  20
TORSDOF 1
ENDMDL
MODEL       10
REMARK 921   NORMALIZED FREE ENERGY PREDICTED BY IDOCK:   -7.16 KCAL/MOL
REMARK 922        TOTAL FREE ENERGY PREDICTED BY IDOCK:   -7.76 KCAL/MOL
REMARK 923 INTER-LIGAND FREE ENERGY PREDICTED BY IDOCK:   -7.60 KCAL/MOL
REMARK 924 INTRA-LIGAND FREE ENERGY PREDICTED BY IDOCK:   -0.16 KCAL/MOL
REMARK 927      BINDING AFFINITY PREDICTED BY RF-SCORE:    0.00 PKD
ROOT
HETATM    1  N   UNL     1     -10.490  10.890  62.745  1.00  0.00    -0.781 NA 
HETATM    2  H1  UNL     1      -9.976  10.022  62.895  1.00  0.00     0.000 HD 
HETATM    3  C   UNL     1     -10.885  11.601  63.856  1.00  0.00    -0.405 A  
HETATM    4  H2  UNL     1     -10.704  11.220  61.804  1.00  0.00     0.000 HD 
HETATM    5  N   UNL     1     -11.554  12.731  63.660  1.00  0.00    -0.477 NA 
HETATM    6  C   UNL     1     -11.893  13.423  64.759  1.00  0.00    -0.380 A  
HETATM    7  N   UNL     1     -12.648  14.585  64.525  1.00  0.00    -0.650 NA 
HETATM    8  C   UNL     1     -11.604  13.016  66.059  1.00  0.00    -0.365 A  
HETATM    9  H2  UNL     1     -13.481  14.359  63.981  1.00  0.00     0.000 HD 
HETATM   10  H1  UNL     1     -12.906  15.110  65.361  1.00  0.00     0.000 HD 
HETATM   11  N   UNL     1     -11.913  13.747  67.171  1.00  0.00    -0.403 NA 
HETATM   12  C   UNL     1     -11.554  13.230  68.375  1.00  0.00    -0.337 A  
HETATM   13  N   UNL     1     -10.591  11.092  65.047  1.00  0.00    -0.293 NA 
HETATM   14  C   UNL     1     -10.938  11.968  68.430  1.00  0.00    -0.237 A  
HETATM   15  H2  UNL     1     -11.417  11.264  70.189  1.00  0.00     0.000 HD 
HETATM   16  N   UNL     1     -10.578  11.318  69.611  1.00  0.00    -0.454 NA 
HETATM   17  N   UNL     1     -10.628  11.273  67.313  1.00  0.00    -0.221 NA 
HETATM   18  H1  UNL     1     -10.131  10.402  69.651  1.00  0.00     0.000 HD 
HETATM   19  C   UNL     1     -10.939  11.791  66.123  1.00  0.00    -0.307 A  
ENDROOT
BRANCH  12  20
HETATM   20  C   UNL     1     -11.852  14.101  69.539  1.00  0.00    -0.373 A  
HETATM   21  C   UNL     1     -11.165  15.320  69.716  1.00  0.00    -0.300 A  
HETATM   22  C   UNL     1     -11.392  16.139  70.827  1.00  0.00    -0.397 A  
HETATM   23  C   UNL     1     -12.319  15.760  71.794  1.00  0.00    -0.523 A  
HETATM   24  C   UNL     1     -13.013  14.565  71.648  1.00  0.00    -0.408 A  
HETATM   25  C   UNL     1     -12.775  13.744  70.539  1.00  0.00    -0.293 A  
ENDBRANCH  12  20
TORSDOF 1
ENDMDL
MODEL       11
REMARK 921   NORMALIZED FREE ENERGY PREDICTED BY IDOCK:   -7.09 KCAL/MOL
REMARK 922        TOTAL FREE ENERGY PREDICTED BY IDOCK:   -7.68 KCAL/MOL
REMARK 923 INTER-LIGAND FREE ENERGY PREDICTED BY IDOCK:   -7.52 KCAL/MOL
REMARK 924 INTRA-LIGAND FREE ENERGY PREDICTED BY IDOCK:   -0.16 KCAL/MOL
REMARK 927      BINDING AFFINITY PREDICTED BY RF-SCORE:    0.00 PKD
ROOT
HETATM    1  N   UNL     1     -13.309  16.271  74.048  1.00  0.00    -0.894 NA 
HETATM    2  H1  UNL     1     -13.137  17.273  73.958  1.00  0.00     0.000 HD 
HETATM    3  C   UNL     1     -13.053  15.477  72.952  1.00  0.00    -0.507 A  
HETATM    4  H2  UNL     1     -13.658  15.872  74.919  1.00  0.00     0.000 HD 
HETATM    5  N   UNL     1     -13.277  14.173  73.070  1.00  0.00    -0.611 NA 
HETATM    6  C   UNL     1     -12.984  13.418  72.000  1.00  0.00    -0.310 A  
HETATM    7  N   UNL     1     -13.282  12.051  72.132  1.00  0.00    -0.491 NA 
HETATM    8  C   UNL     1     -12.488  13.922  70.800  1.00  0.00    -0.375 A  
HETATM    9  H2  UNL     1     -14.262  11.929  72.390  1.00  0.00     0.000 HD 
HETATM   10  H1  UNL     1     -13.059  11.478  71.318  1.00  0.00     0.000 HD 
HETATM   11  N   UNL     1     -12.150  13.143  69.730  1.00  0.00    -0.298 NA 
HETATM   12  C   UNL     1     -11.663  13.774  68.629  1.00  0.00    -0.356 A  
HETATM   13  N   UNL     1     -12.625  16.075  71.847  1.00  0.00    -0.436 NA 
HETATM   14  C   UNL     1     -11.578  15.176  68.618  1.00  0.00    -0.338 A  
HETATM   15  H2  UNL     1     -11.729  15.661  66.731  1.00  0.00     0.000 HD 
HETATM   16  N   UNL     1     -11.148  15.930  67.525  1.00  0.00    -0.281 NA 
HETATM   17  N   UNL     1     -11.904  15.923  69.696  1.00  0.00    -0.321 NA 
HETATM   18  H1  UNL     1     -11.086  16.948  67.517  1.00  0.00     0.000 HD 
HETATM   19  C   UNL     1     -12.343  15.310  70.797  1.00  0.00    -0.380 A  
ENDROOT
BRANCH  12  20
HETATM   20  C   UNL     1     -11.247  12.871  67.528  1.00  0.00    -0.329 A  
HETATM   21  C   UNL     1     -10.133  12.019  67.682  1.00  0.00    -0.205 A  
HETATM   22  C   UNL     1      -9.689  11.191  66.646  1.00  0.00    -0.224 A  
HETATM   23  C   UNL     1     -10.353  11.189  65.423  1.00  0.00    -0.331 A  
HETATM   24  C   UNL     1     -11.456  12.015  65.240  1.00  0.00    -0.358 A  
HETATM   25  C   UNL     1     -11.890  12.850  66.277  1.00  0.00    -0.477 A  
ENDBRANCH  12  20
TORSDOF 1
ENDMDL
MODEL       12
REMARK 921   NORMALIZED FREE ENERGY PREDICTED BY IDOCK:   -7.09 KCAL/MOL
REMARK 922        TOTAL FREE ENERGY PREDICTED BY IDOCK:   -7.68 KCAL/MOL
REMARK 923 INTER-LIGAND FREE ENERGY PREDICTED BY IDOCK:   -7.61 KCAL/MOL
REMARK 924 INTRA-LIGAND FREE ENERGY PREDICTED BY IDOCK:   -0.07 KCAL/MOL
REMARK 927      BINDING AFFINITY PREDICTED BY RF-SCORE:    0.00 PKD
ROOT
HETATM    1  N   UNL     1      -9.601  20.577  66.638  1.00  0.00    -0.650 NA 
HETATM    2  H1  UNL     1     -10.265  21.098  66.066  1.00  0.00     0.000 HD 
HETATM    3  C   UNL     1      -9.614  19.203  66.540  1.00  0.00    -0.355 A  
HETATM    4  H2  UNL     1      -8.950  21.055  67.260  1.00  0.00     0.000 HD 
HETATM    5  N   UNL     1      -8.749  18.523  67.284  1.00  0.00    -0.263 NA 
HETATM    6  C   UNL     1      -8.757  17.189  67.141  1.00  0.00    -0.212 A  
HETATM    7  N   UNL     1      -7.871  16.492  67.980  1.00  0.00    -0.154 NA 
HETATM    8  C   UNL     1      -9.616  16.500  66.289  1.00  0.00    -0.306 A  
HETATM    9  H2  UNL     1      -8.041  16.741  68.955  1.00  0.00     0.000 HD 
HETATM   10  H1  UNL     1      -7.878  15.478  67.871  1.00  0.00     0.000 HD 
HETATM   11  N   UNL     1      -9.589  15.145  66.115  1.00  0.00    -0.293 NA 
HETATM   12  C   UNL     1     -10.479  14.612  65.237  1.00  0.00    -0.398 A  
HETATM   13  N   UNL     1     -10.508  18.653  65.727  1.00  0.00    -0.615 NA 
HETATM   14  C   UNL     1     -11.405  15.451  64.596  1.00  0.00    -0.355 A  
HETATM   15  H2  UNL     1     -12.935  14.296  64.217  1.00  0.00     0.000 HD 
HETATM   16  N   UNL     1     -12.397  15.007  63.721  1.00  0.00    -1.058 NA 
HETATM   17  N   UNL     1     -11.400  16.791  64.773  1.00  0.00    -0.649 NA 
HETATM   18  H1  UNL     1     -13.069  15.617  63.256  1.00  0.00     0.000 HD 
HETATM   19  C   UNL     1     -10.502  17.330  65.602  1.00  0.00    -0.181 A  
ENDROOT
BRANCH  12  20
HETATM   20  C   UNL     1     -10.353  13.147  65.038  1.00  0.00    -0.346 A  
HETATM   21  C   UNL     1     -10.309  12.274  66.145  1.00  0.00    -0.269 A  
HETATM   22  C   UNL     1     -10.144  10.894  65.989  1.00  0.00    -0.303 A  
HETATM   23  C   UNL     1     -10.023  10.346  64.715  1.00  0.00    -0.409 A  
HETATM   24  C   UNL     1     -10.065  11.179  63.603  1.00  0.00    -0.432 A  
HETATM   25  C   UNL     1     -10.220  12.561  63.765  1.00  0.00    -0.360 A  
ENDBRANCH  12  20
TORSDOF 1
ENDMDL
MODEL       13
REMARK 921   NORMALIZED FREE ENERGY PREDICTED BY IDOCK:   -7.01 KCAL/MOL
REMARK 922        TOTAL FREE ENERGY PREDICTED BY IDOCK:   -7.60 KCAL/MOL
REMARK 923 INTER-LIGAND FREE ENERGY PREDICTED BY IDOCK:   -7.54 KCAL/MOL
REMARK 924 INTRA-LIGAND FREE ENERGY PREDICTED BY IDOCK:   -0.06 KCAL/MOL
REMARK 927      BINDING AFFINITY PREDICTED BY RF-SCORE:    0.00 PKD
ROOT
HETATM    1  N   UNL     1     -12.449  14.725  63.613  1.00  0.00    -1.051 NA 
HETATM    2  H1  UNL     1     -12.876  15.602  63.912  1.00  0.00     0.000 HD 
HETATM    3  C   UNL     1     -12.048  13.842  64.592  1.00  0.00    -0.431 A  
HETATM    4  H2  UNL     1     -12.323  14.509  62.624  1.00  0.00     0.000 HD 
HETATM    5  N   UNL     1     -11.493  12.700  64.202  1.00  0.00    -0.357 NA 
HETATM    6  C   UNL     1     -11.147  11.842  65.174  1.00  0.00    -0.305 A  
HETATM    7  N   UNL     1     -10.512  10.667  64.738  1.00  0.00    -0.287 NA 
HETATM    8  C   UNL     1     -11.319  12.091  66.534  1.00  0.00    -0.354 A  
HETATM    9  H2  UNL     1      -9.697  10.899  64.168  1.00  0.00     0.000 HD 
HETATM   10  H1  UNL     1     -10.249  10.016  65.477  1.00  0.00     0.000 HD 
HETATM   11  N   UNL     1     -11.005  11.195  67.517  1.00  0.00    -0.256 NA 
HETATM   12  C   UNL     1     -11.243  11.571  68.801  1.00  0.00    -0.249 A  
HETATM   13  N   UNL     1     -12.222  14.206  65.856  1.00  0.00    -0.432 NA 
HETATM   14  C   UNL     1     -11.742  12.857  69.063  1.00  0.00    -0.327 A  
HETATM   15  H2  UNL     1     -11.095  13.278  70.858  1.00  0.00     0.000 HD 
HETATM   16  N   UNL     1     -11.970  13.368  70.342  1.00  0.00    -0.488 NA 
HETATM   17  N   UNL     1     -12.060  13.719  68.072  1.00  0.00    -0.339 NA 
HETATM   18  H1  UNL     1     -12.333  14.302  70.532  1.00  0.00     0.000 HD 
HETATM   19  C   UNL     1     -11.870  13.344  66.804  1.00  0.00    -0.403 A  
ENDROOT
BRANCH  12  20
HETATM   20  C   UNL     1     -10.949  10.531  69.817  1.00  0.00    -0.350 A  
HETATM   21  C   UNL     1     -11.937  10.132  70.741  1.00  0.00    -0.442 A  
HETATM   22  C   UNL     1     -11.675   9.188  71.739  1.00  0.00    -0.456 A  
HETATM   23  C   UNL     1     -10.412   8.611  71.838  1.00  0.00    -0.410 A  
HETATM   24  C   UNL     1      -9.417   8.980  70.941  1.00  0.00    -0.331 A  
HETATM   25  C   UNL     1      -9.681   9.934  69.950  1.00  0.00    -0.274 A  
ENDBRANCH  12  20
TORSDOF 1
ENDMDL
MODEL       14
REMARK 921   NORMALIZED FREE ENERGY PREDICTED BY IDOCK:   -6.97 KCAL/MOL
REMARK 922        TOTAL FREE ENERGY PREDICTED BY IDOCK:   -7.56 KCAL/MOL
REMARK 923 INTER-LIGAND FREE ENERGY PREDICTED BY IDOCK:   -7.45 KCAL/MOL
REMARK 924 INTRA-LIGAND FREE ENERGY PREDICTED BY IDOCK:   -0.11 KCAL/MOL
REMARK 927      BINDING AFFINITY PREDICTED BY RF-SCORE:    0.00 PKD
ROOT
HETATM    1  N   UNL     1     -12.545  15.822  73.644  1.00  0.00    -0.530 NA 
HETATM    2  H1  UNL     1     -12.943  15.128  74.277  1.00  0.00     0.000 HD 
HETATM    3  C   UNL     1     -12.226  15.414  72.367  1.00  0.00    -0.394 A  
HETATM    4  H2  UNL     1     -12.388  16.784  73.945  1.00  0.00     0.000 HD 
HETATM    5  N   UNL     1     -11.708  16.318  71.543  1.00  0.00    -0.460 NA 
HETATM    6  C   UNL     1     -11.443  15.904  70.294  1.00  0.00    -0.366 A  
HETATM    7  N   UNL     1     -10.844  16.864  69.460  1.00  0.00    -0.370 NA 
HETATM    8  C   UNL     1     -11.659  14.606  69.838  1.00  0.00    -0.285 A  
HETATM    9  H2  UNL     1      -9.997  17.229  69.896  1.00  0.00     0.000 HD 
HETATM   10  H1  UNL     1     -10.642  16.549  68.511  1.00  0.00     0.000 HD 
HETATM   11  N   UNL     1     -11.427  14.202  68.554  1.00  0.00    -0.281 NA 
HETATM   12  C   UNL     1     -11.701  12.907  68.250  1.00  0.00    -0.350 A  
HETATM   13  N   UNL     1     -12.435  14.140  72.059  1.00  0.00    -0.263 NA 
HETATM   14  C   UNL     1     -12.151  12.040  69.259  1.00  0.00    -0.190 A  
HETATM   15  H2  UNL     1     -11.560  10.268  68.684  1.00  0.00     0.000 HD 
HETATM   16  N   UNL     1     -12.408  10.681  69.073  1.00  0.00    -0.779 NA 
HETATM   17  N   UNL     1     -12.387  12.468  70.518  1.00  0.00    -0.308 NA 
HETATM   18  H1  UNL     1     -12.735  10.051  69.806  1.00  0.00     0.000 HD 
HETATM   19  C   UNL     1     -12.163  13.749  70.818  1.00  0.00    -0.363 A  
ENDROOT
BRANCH  12  20
HETATM   20  C   UNL     1     -11.497  12.547  66.824  1.00  0.00    -0.422 A  
HETATM   21  C   UNL     1     -12.241  13.187  65.811  1.00  0.00    -0.514 A  
HETATM   22  C   UNL     1     -12.105  12.836  64.463  1.00  0.00    -0.478 A  
HETATM   23  C   UNL     1     -11.213  11.834  64.091  1.00  0.00    -0.437 A  
HETATM   24  C   UNL     1     -10.464  11.186  65.066  1.00  0.00    -0.357 A  
HETATM   25  C   UNL     1     -10.611  11.533  66.414  1.00  0.00    -0.304 A  
ENDBRANCH  12  20
TORSDOF 1
ENDMDL
MODEL       15
REMARK 921   NORMALIZED FREE ENERGY PREDICTED BY IDOCK:   -6.95 KCAL/MOL
REMARK 922        TOTAL FREE ENERGY PREDICTED BY IDOCK:   -7.54 KCAL/MOL
REMARK 923 INTER-LIGAND FREE ENERGY PREDICTED BY IDOCK:   -7.45 KCAL/MOL
REMARK 924 INTRA-LIGAND FREE ENERGY PREDICTED BY IDOCK:   -0.09 KCAL/MOL
REMARK 927      BINDING AFFINITY PREDICTED BY RF-SCORE:    0.00 PKD
ROOT
HETATM    1  N   UNL     1     -13.195  12.118  64.373  1.00  0.00    -0.681 NA 
HETATM    2  H1  UNL     1     -13.187  11.254  64.915  1.00  0.00     0.000 HD 
HETATM    3  C   UNL     1     -12.362  13.136  64.781  1.00  0.00    -0.423 A  
HETATM    4  H2  UNL     1     -13.797  12.224  63.557  1.00  0.00     0.000 HD 
HETATM    5  N   UNL     1     -12.372  14.262  64.075  1.00  0.00    -0.727 NA 
HETATM    6  C   UNL     1     -11.524  15.223  64.472  1.00  0.00    -0.315 A  
HETATM    7  N   UNL     1     -11.594  16.422  63.742  1.00  0.00    -1.515 NA 
HETATM    8  C   UNL     1     -10.672  15.110  65.568  1.00  0.00    -0.365 A  
HETATM    9  H2  UNL     1     -12.551  16.776  63.741  1.00  0.00     0.000 HD 
HETATM   10  H1  UNL     1     -10.950  17.152  64.045  1.00  0.00     0.000 HD 
HETATM   11  N   UNL     1      -9.780  16.076  65.941  1.00  0.00    -0.332 NA 
HETATM   12  C   UNL     1      -9.001  15.819  67.024  1.00  0.00    -0.224 A  
HETATM   13  N   UNL     1     -11.627  12.931  65.868  1.00  0.00    -0.356 NA 
HETATM   14  C   UNL     1      -9.177  14.619  67.733  1.00  0.00    -0.196 A  
HETATM   15  H2  UNL     1      -8.609  15.038  69.555  1.00  0.00     0.000 HD 
HETATM   16  N   UNL     1      -8.475  14.277  68.889  1.00  0.00    -0.322 NA 
HETATM   17  N   UNL     1     -10.056  13.673  67.334  1.00  0.00    -0.239 NA 
HETATM   18  H1  UNL     1      -8.602  13.406  69.404  1.00  0.00     0.000 HD 
HETATM   19  C   UNL     1     -10.796  13.897  66.246  1.00  0.00    -0.290 A  
ENDROOT
BRANCH  12  20
HETATM   20  C   UNL     1      -8.004  16.872  67.336  1.00  0.00    -0.190 A  
HETATM   21  C   UNL     1      -7.024  17.234  66.388  1.00  0.00    -0.310 A  
HETATM   22  C   UNL     1      -6.042  18.190  66.671  1.00  0.00    -0.196 A  
HETATM   23  C   UNL     1      -6.018  18.817  67.914  1.00  0.00    -0.194 A  
HETATM   24  C   UNL     1      -6.972  18.484  68.869  1.00  0.00    -0.302 A  
HETATM   25  C   UNL     1      -7.945  17.519  68.585  1.00  0.00    -0.268 A  
ENDBRANCH  12  20
TORSDOF 1
ENDMDL
MODEL       16
REMARK 921   NORMALIZED FREE ENERGY PREDICTED BY IDOCK:   -6.92 KCAL/MOL
REMARK 922        TOTAL FREE ENERGY PREDICTED BY IDOCK:   -7.50 KCAL/MOL
REMARK 923 INTER-LIGAND FREE ENERGY PREDICTED BY IDOCK:   -7.28 KCAL/MOL
REMARK 924 INTRA-LIGAND FREE ENERGY PREDICTED BY IDOCK:   -0.22 KCAL/MOL
REMARK 927      BINDING AFFINITY PREDICTED BY RF-SCORE:    0.00 PKD
ROOT
HETATM    1  N   UNL     1      -9.856  12.374  63.829  1.00  0.00    -0.635 NA 
HETATM    2  H1  UNL     1      -9.747  11.360  63.842  1.00  0.00     0.000 HD 
HETATM    3  C   UNL     1     -10.356  12.978  64.962  1.00  0.00    -0.318 A  
HETATM    4  H2  UNL     1      -9.603  12.922  63.007  1.00  0.00     0.000 HD 
HETATM    5  N   UNL     1     -10.498  14.298  64.945  1.00  0.00    -0.429 NA 
HETATM    6  C   UNL     1     -10.952  14.864  66.074  1.00  0.00    -0.334 A  
HETATM    7  N   UNL     1     -11.145  16.255  66.011  1.00  0.00     0.010 NA 
HETATM    8  C   UNL     1     -11.291  14.154  67.223  1.00  0.00    -0.332 A  
HETATM    9  H2  UNL     1     -11.758  16.489  65.230  1.00  0.00     0.000 HD 
HETATM   10  H1  UNL     1     -11.490  16.684  66.869  1.00  0.00     0.000 HD 
HETATM   11  N   UNL     1     -11.710  14.740  68.384  1.00  0.00    -0.318 NA 
HETATM   12  C   UNL     1     -11.990  13.919  69.430  1.00  0.00    -0.354 A  
HETATM   13  N   UNL     1     -10.687  12.194  65.981  1.00  0.00    -0.264 NA 
HETATM   14  C   UNL     1     -11.889  12.528  69.263  1.00  0.00    -0.304 A  
HETATM   15  H2  UNL     1     -13.161  11.786  70.549  1.00  0.00     0.000 HD 
HETATM   16  N   UNL     1     -12.205  11.592  70.249  1.00  0.00    -0.339 NA 
HETATM   17  N   UNL     1     -11.456  11.974  68.110  1.00  0.00    -0.297 NA 
HETATM   18  H1  UNL     1     -12.132  10.582  70.128  1.00  0.00     0.000 HD 
HETATM   19  C   UNL     1     -11.137  12.773  67.089  1.00  0.00    -0.277 A  
ENDROOT
BRANCH  12  20
HETATM   20  C   UNL     1     -12.371  14.617  70.682  1.00  0.00    -0.398 A  
HETATM   21  C   UNL     1     -13.721  14.678  71.087  1.00  0.00    -0.374 A  
HETATM   22  C   UNL     1     -14.115  15.369  72.238  1.00  0.00    -0.660 A  
HETATM   23  C   UNL     1     -13.165  16.017  73.021  1.00  0.00    -0.590 A  
HETATM   24  C   UNL     1     -11.826  15.975  72.651  1.00  0.00    -0.611 A  
HETATM   25  C   UNL     1     -11.438  15.291  71.492  1.00  0.00    -0.457 A  
ENDBRANCH  12  20
TORSDOF 1
ENDMDL
MODEL       17
REMARK 921   NORMALIZED FREE ENERGY PREDICTED BY IDOCK:   -6.91 KCAL/MOL
REMARK 922        TOTAL FREE ENERGY PREDICTED BY IDOCK:   -7.49 KCAL/MOL
REMARK 923 INTER-LIGAND FREE ENERGY PREDICTED BY IDOCK:   -7.25 KCAL/MOL
REMARK 924 INTRA-LIGAND FREE ENERGY PREDICTED BY IDOCK:   -0.25 KCAL/MOL
REMARK 927      BINDING AFFINITY PREDICTED BY RF-SCORE:    0.00 PKD
ROOT
HETATM    1  N   UNL     1     -12.272  12.137  65.527  1.00  0.00    -0.517 NA 
HETATM    2  H1  UNL     1     -12.053  11.459  66.258  1.00  0.00     0.000 HD 
HETATM    3  C   UNL     1     -11.675  13.376  65.605  1.00  0.00    -0.346 A  
HETATM    4  H2  UNL     1     -12.909  11.905  64.766  1.00  0.00     0.000 HD 
HETATM    5  N   UNL     1     -11.959  14.258  64.654  1.00  0.00    -0.432 NA 
HETATM    6  C   UNL     1     -11.335  15.443  64.733  1.00  0.00    -0.376 A  
HETATM    7  N   UNL     1     -11.696  16.376  63.746  1.00  0.00    -1.498 NA 
HETATM    8  C   UNL     1     -10.445  15.792  65.745  1.00  0.00    -0.367 A  
HETATM    9  H2  UNL     1     -12.707  16.511  63.743  1.00  0.00     0.000 HD 
HETATM   10  H1  UNL     1     -11.222  17.277  63.806  1.00  0.00     0.000 HD 
HETATM   11  N   UNL     1      -9.780  16.984  65.796  1.00  0.00    -0.547 NA 
HETATM   12  C   UNL     1      -8.928  17.178  66.837  1.00  0.00    -0.235 A  
HETATM   13  N   UNL     1     -10.878  13.610  66.641  1.00  0.00    -0.282 NA 
HETATM   14  C   UNL     1      -8.808  16.188  67.826  1.00  0.00    -0.183 A  
HETATM   15  H2  UNL     1      -8.289  17.164  69.437  1.00  0.00     0.000 HD 
HETATM   16  N   UNL     1      -8.010  16.304  68.964  1.00  0.00    -0.234 NA 
HETATM   17  N   UNL     1      -9.466  15.010  67.744  1.00  0.00    -0.194 NA 
HETATM   18  H1  UNL     1      -7.923  15.585  69.682  1.00  0.00     0.000 HD 
HETATM   19  C   UNL     1     -10.272  14.791  66.703  1.00  0.00    -0.269 A  
ENDROOT
BRANCH  12  20
HETATM   20  C   UNL     1      -8.182  18.460  66.798  1.00  0.00    -0.267 A  
HETATM   21  C   UNL     1      -6.933  18.543  66.150  1.00  0.00    -0.295 A  
HETATM   22  C   UNL     1      -6.185  19.726  66.138  1.00  0.00    -0.192 A  
HETATM   23  C   UNL     1      -6.673  20.864  66.773  1.00  0.00    -0.367 A  
HETATM   24  C   UNL     1      -7.902  20.816  67.420  1.00  0.00    -0.293 A  
HETATM   25  C   UNL     1      -8.641  19.627  67.438  1.00  0.00    -0.353 A  
ENDBRANCH  12  20
TORSDOF 1
ENDMDL
MODEL       18
REMARK 921   NORMALIZED FREE ENERGY PREDICTED BY IDOCK:   -6.90 KCAL/MOL
REMARK 922        TOTAL FREE ENERGY PREDICTED BY IDOCK:   -7.48 KCAL/MOL
REMARK 923 INTER-LIGAND FREE ENERGY PREDICTED BY IDOCK:   -7.72 KCAL/MOL
REMARK 924 INTRA-LIGAND FREE ENERGY PREDICTED BY IDOCK:    0.24 KCAL/MOL
REMARK 927      BINDING AFFINITY PREDICTED BY RF-SCORE:    0.00 PKD
ROOT
HETATM    1  N   UNL     1     -12.473  10.619  68.733  1.00  0.00    -0.690 NA 
HETATM    2  H1  UNL     1     -12.612  10.118  67.855  1.00  0.00     0.000 HD 
HETATM    3  C   UNL     1     -12.025  11.919  68.662  1.00  0.00    -0.233 A  
HETATM    4  H2  UNL     1     -12.658  10.173  69.631  1.00  0.00     0.000 HD 
HETATM    5  N   UNL     1     -11.845  12.572  69.805  1.00  0.00    -0.328 NA 
HETATM    6  C   UNL     1     -11.445  13.849  69.706  1.00  0.00    -0.215 A  
HETATM    7  N   UNL     1     -11.208  14.498  70.930  1.00  0.00    -0.516 NA 
HETATM    8  C   UNL     1     -11.198  14.501  68.501  1.00  0.00    -0.266 A  
HETATM    9  H2  UNL     1     -10.541  13.964  71.488  1.00  0.00     0.000 HD 
HETATM   10  H1  UNL     1     -10.904  15.469  70.855  1.00  0.00     0.000 HD 
HETATM   11  N   UNL     1     -10.834  15.814  68.406  1.00  0.00    -0.283 NA 
HETATM   12  C   UNL     1     -10.643  16.318  67.158  1.00  0.00    -0.291 A  
HETATM   13  N   UNL     1     -11.781  12.421  67.458  1.00  0.00    -0.422 NA 
HETATM   14  C   UNL     1     -10.774  15.474  66.044  1.00  0.00    -0.326 A  
HETATM   15  H2  UNL     1      -9.606  16.263  64.690  1.00  0.00     0.000 HD 
HETATM   16  N   UNL     1     -10.546  15.869  64.725  1.00  0.00    -0.723 NA 
HETATM   17  N   UNL     1     -11.151  14.182  66.164  1.00  0.00    -0.308 NA 
HETATM   18  H1  UNL     1     -10.642  15.256  63.916  1.00  0.00     0.000 HD 
HETATM   19  C   UNL     1     -11.383  13.687  67.382  1.00  0.00    -0.315 A  
ENDROOT
BRANCH  12  20
HETATM   20  C   UNL     1     -10.320  17.766  67.117  1.00  0.00    -0.354 A  
HETATM   21  C   UNL     1      -9.872  18.434  68.276  1.00  0.00    -0.383 A  
HETATM   22  C   UNL     1      -9.604  19.807  68.278  1.00  0.00    -0.467 A  
HETATM   23  C   UNL     1      -9.774  20.552  67.115  1.00  0.00    -0.581 A  
HETATM   24  C   UNL     1     -10.212  19.923  65.955  1.00  0.00    -0.591 A  
HETATM   25  C   UNL     1     -10.489  18.550  65.960  1.00  0.00    -0.433 A  
ENDBRANCH  12  20
TORSDOF 1
ENDMDL
MODEL       19
REMARK 921   NORMALIZED FREE ENERGY PREDICTED BY IDOCK:   -6.88 KCAL/MOL
REMARK 922        TOTAL FREE ENERGY PREDICTED BY IDOCK:   -7.46 KCAL/MOL
REMARK 923 INTER-LIGAND FREE ENERGY PREDICTED BY IDOCK:   -7.73 KCAL/MOL
REMARK 924 INTRA-LIGAND FREE ENERGY PREDICTED BY IDOCK:    0.27 KCAL/MOL
REMARK 927      BINDING AFFINITY PREDICTED BY RF-SCORE:    0.00 PKD
ROOT
HETATM    1  N   UNL     1     -10.129   9.857  65.472  1.00  0.00    -0.284 NA 
HETATM    2  H1  UNL     1     -10.645   9.662  64.614  1.00  0.00     0.000 HD 
HETATM    3  C   UNL     1      -9.985  11.175  65.846  1.00  0.00    -0.239 A  
HETATM    4  H2  UNL     1      -9.733   9.103  66.033  1.00  0.00     0.000 HD 
HETATM    5  N   UNL     1      -9.313  11.429  66.963  1.00  0.00    -0.172 NA 
HETATM    6  C   UNL     1      -9.220  12.718  67.324  1.00  0.00    -0.203 A  
HETATM    7  N   UNL     1      -8.458  12.963  68.479  1.00  0.00    -0.322 NA 
HETATM    8  C   UNL     1      -9.762  13.774  66.597  1.00  0.00    -0.289 A  
HETATM    9  H2  UNL     1      -7.526  12.560  68.376  1.00  0.00     0.000 HD 
HETATM   10  H1  UNL     1      -8.387  13.943  68.753  1.00  0.00     0.000 HD 
HETATM   11  N   UNL     1      -9.703  15.081  66.993  1.00  0.00    -0.231 NA 
HETATM   12  C   UNL     1     -10.291  16.003  66.187  1.00  0.00    -0.328 A  
HETATM   13  N   UNL     1     -10.507  12.100  65.049  1.00  0.00    -0.280 NA 
HETATM   14  C   UNL     1     -10.879  15.592  64.980  1.00  0.00    -0.450 A  
HETATM   15  H2  UNL     1     -10.757  17.157  63.816  1.00  0.00     0.000 HD 
HETATM   16  N   UNL     1     -11.461  16.456  64.052  1.00  0.00    -1.573 NA 
HETATM   17  N   UNL     1     -10.939  14.291  64.619  1.00  0.00    -0.388 NA 
HETATM   18  H1  UNL     1     -11.888  16.158  63.175  1.00  0.00     0.000 HD 
HETATM   19  C   UNL     1     -10.402  13.371  65.423  1.00  0.00    -0.312 A  
ENDROOT
BRANCH  12  20
HETATM   20  C   UNL     1     -10.256  17.393  66.705  1.00  0.00    -0.318 A  
HETATM   21  C   UNL     1     -10.072  17.640  68.082  1.00  0.00    -0.347 A  
HETATM   22  C   UNL     1     -10.081  18.938  68.605  1.00  0.00    -0.447 A  
HETATM   23  C   UNL     1     -10.271  20.028  67.762  1.00  0.00    -0.549 A  
HETATM   24  C   UNL     1     -10.454  19.818  66.400  1.00  0.00    -0.618 A  
HETATM   25  C   UNL     1     -10.455  18.517  65.882  1.00  0.00    -0.379 A  
ENDBRANCH  12  20
TORSDOF 1
ENDMDL
MODEL       20
REMARK 921   NORMALIZED FREE ENERGY PREDICTED BY IDOCK:   -6.79 KCAL/MOL
REMARK 922        TOTAL FREE ENERGY PREDICTED BY IDOCK:   -7.37 KCAL/MOL
REMARK 923 INTER-LIGAND FREE ENERGY PREDICTED BY IDOCK:   -7.15 KCAL/MOL
REMARK 924 INTRA-LIGAND FREE ENERGY PREDICTED BY IDOCK:   -0.22 KCAL/MOL
REMARK 927      BINDING AFFINITY PREDICTED BY RF-SCORE:    0.00 PKD
ROOT
HETATM    1  N   UNL     1     -13.119  11.595  62.851  1.00  0.00    -0.706 NA 
HETATM    2  H1  UNL     1     -13.878  12.063  62.354  1.00  0.00     0.000 HD 
HETATM    3  C   UNL     1     -12.233  12.382  63.552  1.00  0.00    -0.563 A  
HETATM    4  H2  UNL     1     -13.021  10.580  62.829  1.00  0.00     0.000 HD 
HETATM    5  N   UNL     1     -11.245  11.773  64.199  1.00  0.00    -0.357 NA 
HETATM    6  C   UNL     1     -10.419  12.560  64.904  1.00  0.00    -0.303 A  
HETATM    7  N   UNL     1      -9.351  11.896  65.533  1.00  0.00    -0.408 NA 
HETATM    8  C   UNL     1     -10.530  13.946  64.975  1.00  0.00    -0.410 A  
HETATM    9  H2  UNL     1      -8.822  11.356  64.848  1.00  0.00     0.000 HD 
HETATM   10  H1  UNL     1      -8.723  12.495  66.069  1.00  0.00     0.000 HD 
HETATM   11  N   UNL     1      -9.711  14.738  65.730  1.00  0.00    -0.330 NA 
HETATM   12  C   UNL     1      -9.950  16.075  65.713  1.00  0.00    -0.351 A  
HETATM   13  N   UNL     1     -12.412  13.697  63.510  1.00  0.00    -0.791 NA 
HETATM   14  C   UNL     1     -10.974  16.585  64.897  1.00  0.00    -0.209 A  
HETATM   15  H2  UNL     1     -10.406  18.407  64.478  1.00  0.00     0.000 HD 
HETATM   16  N   UNL     1     -11.269  17.942  64.759  1.00  0.00    -0.380 NA 
HETATM   17  N   UNL     1     -11.780  15.779  64.171  1.00  0.00    -0.427 NA 
HETATM   18  H1  UNL     1     -12.012  18.311  64.166  1.00  0.00     0.000 HD 
HETATM   19  C   UNL     1     -11.581  14.459  64.213  1.00  0.00    -0.262 A  
ENDROOT
BRANCH  12  20
HETATM   20  C   UNL     1      -9.076  16.874  66.608  1.00  0.00    -0.280 A  
HETATM   21  C   UNL     1      -7.707  17.037  66.312  1.00  0.00    -0.346 A  
HETATM   22  C   UNL     1      -6.849  17.745  67.161  1.00  0.00    -0.196 A  
HETATM   23  C   UNL     1      -7.341  18.314  68.332  1.00  0.00    -0.285 A  
HETATM   24  C   UNL     1      -8.686  18.172  68.651  1.00  0.00    -0.280 A  
HETATM   25  C   UNL     1      -9.539  17.454  67.804  1.00  0.00    -0.264 A  
ENDBRANCH  12  20
TORSDOF 1
ENDMDL
MODEL       21
REMARK 921   NORMALIZED FREE ENERGY PREDICTED BY IDOCK:   -6.72 KCAL/MOL
REMARK 922        TOTAL FREE ENERGY PREDICTED BY IDOCK:   -7.29 KCAL/MOL
REMARK 923 INTER-LIGAND FREE ENERGY PREDICTED BY IDOCK:   -7.20 KCAL/MOL
REMARK 924 INTRA-LIGAND FREE ENERGY PREDICTED BY IDOCK:   -0.09 KCAL/MOL
REMARK 927      BINDING AFFINITY PREDICTED BY RF-SCORE:    0.00 PKD
ROOT
HETATM    1  N   UNL     1     -10.716  15.605  64.694  1.00  0.00    -0.723 NA 
HETATM    2  H1  UNL     1     -10.352  15.133  63.865  1.00  0.00     0.000 HD 
HETATM    3  C   UNL     1     -11.030  14.827  65.786  1.00  0.00    -0.334 A  
HETATM    4  H2  UNL     1     -10.843  16.617  64.712  1.00  0.00     0.000 HD 
HETATM    5  N   UNL     1     -11.504  15.440  66.865  1.00  0.00    -0.155 NA 
HETATM    6  C   UNL     1     -11.765  14.663  67.926  1.00  0.00    -0.351 A  
HETATM    7  N   UNL     1     -12.318  15.330  69.034  1.00  0.00    -0.602 NA 
HETATM    8  C   UNL     1     -11.588  13.283  67.948  1.00  0.00    -0.334 A  
HETATM    9  H2  UNL     1     -13.158  15.837  68.755  1.00  0.00     0.000 HD 
HETATM   10  H1  UNL     1     -12.517  14.739  69.841  1.00  0.00     0.000 HD 
HETATM   11  N   UNL     1     -11.815  12.503  69.047  1.00  0.00    -0.307 NA 
HETATM   12  C   UNL     1     -11.582  11.170  68.923  1.00  0.00    -0.317 A  
HETATM   13  N   UNL     1     -10.861  13.515  65.674  1.00  0.00    -0.284 NA 
HETATM   14  C   UNL     1     -11.177  10.651  67.682  1.00  0.00    -0.290 A  
HETATM   15  H2  UNL     1     -11.821   8.806  67.688  1.00  0.00     0.000 HD 
HETATM   16  N   UNL     1     -10.965   9.295  67.427  1.00  0.00    -0.404 NA 
HETATM   17  N   UNL     1     -10.944  11.446  66.615  1.00  0.00    -0.291 NA 
HETATM   18  H1  UNL     1     -10.671   8.919  66.526  1.00  0.00     0.000 HD 
HETATM   19  C   UNL     1     -11.129  12.762  66.737  1.00  0.00    -0.277 A  
ENDROOT
BRANCH  12  20
HETATM   20  C   UNL     1     -11.777  10.387  70.169  1.00  0.00    -0.394 A  
HETATM   21  C   UNL     1     -10.723   9.618  70.704  1.00  0.00    -0.388 A  
HETATM   22  C   UNL     1     -10.891   8.834  71.850  1.00  0.00    -0.431 A  
HETATM   23  C   UNL     1     -12.122   8.801  72.498  1.00  0.00    -0.320 A  
HETATM   24  C   UNL     1     -13.181   9.550  71.997  1.00  0.00    -0.539 A  
HETATM   25  C   UNL     1     -13.011  10.325  70.843  1.00  0.00    -0.456 A  
ENDBRANCH  12  20
TORSDOF 1
ENDMDL
MODEL       22
REMARK 921   NORMALIZED FREE ENERGY PREDICTED BY IDOCK:   -6.69 KCAL/MOL
REMARK 922        TOTAL FREE ENERGY PREDICTED BY IDOCK:   -7.26 KCAL/MOL
REMARK 923 INTER-LIGAND FREE ENERGY PREDICTED BY IDOCK:   -7.07 KCAL/MOL
REMARK 924 INTRA-LIGAND FREE ENERGY PREDICTED BY IDOCK:   -0.19 KCAL/MOL
REMARK 927      BINDING AFFINITY PREDICTED BY RF-SCORE:    0.00 PKD
ROOT
HETATM    1  N   UNL     1     -10.693  17.512  67.760  1.00  0.00    -0.372 NA 
HETATM    2  H1  UNL     1     -10.518  17.380  66.764  1.00  0.00     0.000 HD 
HETATM    3  C   UNL     1     -11.033  16.402  68.502  1.00  0.00    -0.350 A  
HETATM    4  H2  UNL     1     -10.619  18.433  68.192  1.00  0.00     0.000 HD 
HETATM    5  N   UNL     1     -11.262  16.574  69.800  1.00  0.00    -0.248 NA 
HETATM    6  C   UNL     1     -11.554  15.471  70.505  1.00  0.00    -0.346 A  
HETATM    7  N   UNL     1     -11.845  15.688  71.863  1.00  0.00    -0.405 NA 
HETATM    8  C   UNL     1     -11.646  14.194  69.958  1.00  0.00    -0.248 A  
HETATM    9  H2  UNL     1     -12.595  16.373  71.956  1.00  0.00     0.000 HD 
HETATM   10  H1  UNL     1     -12.067  14.850  72.399  1.00  0.00     0.000 HD 
HETATM   11  N   UNL     1     -11.901  13.068  70.690  1.00  0.00    -0.128 NA 
HETATM   12  C   UNL     1     -11.945  11.887  70.020  1.00  0.00    -0.332 A  
HETATM   13  N   UNL     1     -11.135  15.243  67.863  1.00  0.00    -0.310 NA 
HETATM   14  C   UNL     1     -11.783  11.877  68.625  1.00  0.00    -0.323 A  
HETATM   15  H2  UNL     1     -12.768  10.298  68.028  1.00  0.00     0.000 HD 
HETATM   16  N   UNL     1     -11.867  10.732  67.830  1.00  0.00    -0.742 NA 
HETATM   17  N   UNL     1     -11.516  13.002  67.926  1.00  0.00    -0.290 NA 
HETATM   18  H1  UNL     1     -11.749  10.725  66.817  1.00  0.00     0.000 HD 
HETATM   19  C   UNL     1     -11.428  14.163  68.579  1.00  0.00    -0.300 A  
ENDROOT
BRANCH  12  20
HETATM   20  C   UNL     1     -12.154  10.694  70.878  1.00  0.00    -0.489 A  
HETATM   21  C   UNL     1     -11.116   9.758  71.067  1.00  0.00    -0.431 A  
HETATM   22  C   UNL     1     -11.298   8.601  71.832  1.00  0.00    -0.417 A  
HETATM   23  C   UNL     1     -12.528   8.350  72.435  1.00  0.00    -0.390 A  
HETATM   24  C   UNL     1     -13.570   9.255  72.269  1.00  0.00    -0.544 A  
HETATM   25  C   UNL     1     -13.386  10.406  71.493  1.00  0.00    -0.405 A  
ENDBRANCH  12  20
TORSDOF 1
ENDMDL
MODEL       23
REMARK 921   NORMALIZED FREE ENERGY PREDICTED BY IDOCK:   -6.69 KCAL/MOL
REMARK 922        TOTAL FREE ENERGY PREDICTED BY IDOCK:   -7.26 KCAL/MOL
REMARK 923 INTER-LIGAND FREE ENERGY PREDICTED BY IDOCK:   -7.09 KCAL/MOL
REMARK 924 INTRA-LIGAND FREE ENERGY PREDICTED BY IDOCK:   -0.17 KCAL/MOL
REMARK 927      BINDING AFFINITY PREDICTED BY RF-SCORE:    0.00 PKD
ROOT
HETATM    1  N   UNL     1     -11.591  10.254  67.840  1.00  0.00    -0.670 NA 
HETATM    2  H1  UNL     1     -11.916   9.986  68.769  1.00  0.00     0.000 HD 
HETATM    3  C   UNL     1     -11.331  11.587  67.614  1.00  0.00    -0.291 A  
HETATM    4  H2  UNL     1     -11.463   9.559  67.105  1.00  0.00     0.000 HD 
HETATM    5  N   UNL     1     -10.907  11.937  66.405  1.00  0.00    -0.267 NA 
HETATM    6  C   UNL     1     -10.625  13.235  66.223  1.00  0.00    -0.289 A  
HETATM    7  N   UNL     1     -10.232  13.586  64.920  1.00  0.00    -0.537 NA 
HETATM    8  C   UNL     1     -10.768  14.212  67.205  1.00  0.00    -0.279 A  
HETATM    9  H2  UNL     1     -10.936  13.282  64.247  1.00  0.00     0.000 HD 
HETATM   10  H1  UNL     1     -10.018  14.574  64.782  1.00  0.00     0.000 HD 
HETATM   11  N   UNL     1     -10.438  15.525  67.027  1.00  0.00    -0.298 NA 
HETATM   12  C   UNL     1     -10.617  16.361  68.083  1.00  0.00    -0.318 A  
HETATM   13  N   UNL     1     -11.547  12.434  68.614  1.00  0.00    -0.296 NA 
HETATM   14  C   UNL     1     -11.173  15.863  69.273  1.00  0.00    -0.335 A  
HETATM   15  H2  UNL     1     -12.052  17.406  70.088  1.00  0.00     0.000 HD 
HETATM   16  N   UNL     1     -11.453  16.640  70.398  1.00  0.00    -0.409 NA 
HETATM   17  N   UNL     1     -11.476  14.555  69.429  1.00  0.00    -0.269 NA 
HETATM   18  H1  UNL     1     -11.856  16.278  71.261  1.00  0.00     0.000 HD 
HETATM   19  C   UNL     1     -11.264  13.717  68.412  1.00  0.00    -0.276 A  
ENDROOT
BRANCH  12  20
HETATM   20  C   UNL     1     -10.173  17.758  67.852  1.00  0.00    -0.362 A  
HETATM   21  C   UNL     1     -10.769  18.541  66.841  1.00  0.00    -0.332 A  
HETATM   22  C   UNL     1     -10.339  19.845  66.569  1.00  0.00    -0.608 A  
HETATM   23  C   UNL     1      -9.301  20.404  67.307  1.00  0.00    -0.547 A  
HETATM   24  C   UNL     1      -8.694  19.659  68.312  1.00  0.00    -0.361 A  
HETATM   25  C   UNL     1      -9.121  18.351  68.573  1.00  0.00    -0.345 A  
ENDBRANCH  12  20
TORSDOF 1
ENDMDL
MODEL       24
REMARK 921   NORMALIZED FREE ENERGY PREDICTED BY IDOCK:   -6.68 KCAL/MOL
REMARK 922        TOTAL FREE ENERGY PREDICTED BY IDOCK:   -7.25 KCAL/MOL
REMARK 923 INTER-LIGAND FREE ENERGY PREDICTED BY IDOCK:   -7.01 KCAL/MOL
REMARK 924 INTRA-LIGAND FREE ENERGY PREDICTED BY IDOCK:   -0.25 KCAL/MOL
REMARK 927      BINDING AFFINITY PREDICTED BY RF-SCORE:    0.00 PKD
ROOT
HETATM    1  N   UNL     1     -13.913  12.608  72.649  1.00  0.00    -0.586 NA 
HETATM    2  H1  UNL     1     -14.108  11.792  72.069  1.00  0.00     0.000 HD 
HETATM    3  C   UNL     1     -13.190  13.635  72.086  1.00  0.00    -0.449 A  
HETATM    4  H2  UNL     1     -14.242  12.661  73.613  1.00  0.00     0.000 HD 
HETATM    5  N   UNL     1     -12.937  14.698  72.842  1.00  0.00    -0.471 NA 
HETATM    6  C   UNL     1     -12.263  15.700  72.256  1.00  0.00    -0.439 A  
HETATM    7  N   UNL     1     -11.961  16.787  73.094  1.00  0.00    -0.323 NA 
HETATM    8  C   UNL     1     -11.813  15.675  70.939  1.00  0.00    -0.388 A  
HETATM    9  H2  UNL     1     -11.459  16.464  73.922  1.00  0.00     0.000 HD 
HETATM   10  H1  UNL     1     -11.449  17.549  72.649  1.00  0.00     0.000 HD 
HETATM   11  N   UNL     1     -11.166  16.716  70.336  1.00  0.00    -0.130 NA 
HETATM   12  C   UNL     1     -10.799  16.554  69.038  1.00  0.00    -0.329 A  
HETATM   13  N   UNL     1     -12.774  13.481  70.835  1.00  0.00    -0.318 NA 
HETATM   14  C   UNL     1     -11.048  15.328  68.398  1.00  0.00    -0.287 A  
HETATM   15  H2  UNL     1      -9.661  15.200  67.027  1.00  0.00     0.000 HD 
HETATM   16  N   UNL     1     -10.665  15.031  67.089  1.00  0.00    -0.296 NA 
HETATM   17  N   UNL     1     -11.703  14.319  69.012  1.00  0.00    -0.297 NA 
HETATM   18  H1  UNL     1     -10.845  14.141  66.625  1.00  0.00     0.000 HD 
HETATM   19  C   UNL     1     -12.106  14.484  70.274  1.00  0.00    -0.323 A  
ENDROOT
BRANCH  12  20
HETATM   20  C   UNL     1     -10.167  17.744  68.417  1.00  0.00    -0.384 A  
HETATM   21  C   UNL     1      -8.800  18.021  68.629  1.00  0.00    -0.272 A  
HETATM   22  C   UNL     1      -8.188  19.161  68.096  1.00  0.00    -0.353 A  
HETATM   23  C   UNL     1      -8.928  20.055  67.328  1.00  0.00    -0.440 A  
HETATM   24  C   UNL     1     -10.277  19.809  67.099  1.00  0.00    -0.574 A  
HETATM   25  C   UNL     1     -10.888  18.673  67.644  1.00  0.00    -0.347 A  
ENDBRANCH  12  20
TORSDOF 1
ENDMDL
MODEL       25
REMARK 921   NORMALIZED FREE ENERGY PREDICTED BY IDOCK:   -6.66 KCAL/MOL
REMARK 922        TOTAL FREE ENERGY PREDICTED BY IDOCK:   -7.23 KCAL/MOL
REMARK 923 INTER-LIGAND FREE ENERGY PREDICTED BY IDOCK:   -6.98 KCAL/MOL
REMARK 924 INTRA-LIGAND FREE ENERGY PREDICTED BY IDOCK:   -0.25 KCAL/MOL
REMARK 927      BINDING AFFINITY PREDICTED BY RF-SCORE:    0.00 PKD
ROOT
HETATM    1  N   UNL     1     -13.787   9.087  73.088  1.00  0.00    -1.177 NA 
HETATM    2  H1  UNL     1     -14.336   9.596  73.781  1.00  0.00     0.000 HD 
HETATM    3  C   UNL     1     -13.187   9.817  72.086  1.00  0.00    -0.436 A  
HETATM    4  H2  UNL     1     -13.685   8.073  73.135  1.00  0.00     0.000 HD 
HETATM    5  N   UNL     1     -12.472   9.155  71.183  1.00  0.00    -0.287 NA 
HETATM    6  C   UNL     1     -11.868   9.894  70.241  1.00  0.00    -0.184 A  
HETATM    7  N   UNL     1     -11.164   9.164  69.267  1.00  0.00    -0.440 NA 
HETATM    8  C   UNL     1     -11.966  11.280  70.152  1.00  0.00    -0.369 A  
HETATM    9  H2  UNL     1     -11.779   8.475  68.833  1.00  0.00     0.000 HD 
HETATM   10  H1  UNL     1     -10.705   9.727  68.551  1.00  0.00     0.000 HD 
HETATM   11  N   UNL     1     -11.313  12.031  69.216  1.00  0.00    -0.265 NA 
HETATM   12  C   UNL     1     -11.491  13.377  69.263  1.00  0.00    -0.290 A  
HETATM   13  N   UNL     1     -13.387  11.130  72.078  1.00  0.00    -0.401 NA 
HETATM   14  C   UNL     1     -12.362  13.927  70.218  1.00  0.00    -0.345 A  
HETATM   15  H2  UNL     1     -12.999  15.585  69.404  1.00  0.00     0.000 HD 
HETATM   16  N   UNL     1     -12.664  15.285  70.320  1.00  0.00    -0.606 NA 
HETATM   17  N   UNL     1     -12.984  13.163  71.143  1.00  0.00    -0.250 NA 
HETATM   18  H1  UNL     1     -13.296  15.684  71.013  1.00  0.00     0.000 HD 
HETATM   19  C   UNL     1     -12.783  11.844  71.134  1.00  0.00    -0.284 A  
ENDROOT
BRANCH  12  20
HETATM   20  C   UNL     1     -10.701  14.143  68.268  1.00  0.00    -0.256 A  
HETATM   21  C   UNL     1      -9.415  14.625  68.591  1.00  0.00    -0.211 A  
HETATM   22  C   UNL     1      -8.666  15.390  67.690  1.00  0.00    -0.174 A  
HETATM   23  C   UNL     1      -9.184  15.691  66.434  1.00  0.00    -0.346 A  
HETATM   24  C   UNL     1     -10.447  15.229  66.083  1.00  0.00    -0.318 A  
HETATM   25  C   UNL     1     -11.197  14.473  66.993  1.00  0.00    -0.342 A  
ENDBRANCH  12  20
TORSDOF 1
ENDMDL
MODEL       26
REMARK 921   NORMALIZED FREE ENERGY PREDICTED BY IDOCK:   -6.64 KCAL/MOL
REMARK 922        TOTAL FREE ENERGY PREDICTED BY IDOCK:   -7.21 KCAL/MOL
REMARK 923 INTER-LIGAND FREE ENERGY PREDICTED BY IDOCK:   -7.25 KCAL/MOL
REMARK 924 INTRA-LIGAND FREE ENERGY PREDICTED BY IDOCK:    0.04 KCAL/MOL
REMARK 927      BINDING AFFINITY PREDICTED BY RF-SCORE:    0.00 PKD
ROOT
HETATM    1  N   UNL     1      -7.735  18.440  65.559  1.00  0.00    -0.369 NA 
HETATM    2  H1  UNL     1      -7.485  17.827  64.784  1.00  0.00     0.000 HD 
HETATM    3  C   UNL     1      -8.624  17.959  66.494  1.00  0.00    -0.255 A  
HETATM    4  H2  UNL     1      -7.340  19.378  65.640  1.00  0.00     0.000 HD 
HETATM    5  N   UNL     1      -8.950  18.758  67.505  1.00  0.00    -0.273 NA 
HETATM    6  C   UNL     1      -9.788  18.250  68.420  1.00  0.00    -0.369 A  
HETATM    7  N   UNL     1     -10.159  19.135  69.448  1.00  0.00    -0.449 NA 
HETATM    8  C   UNL     1     -10.334  16.971  68.357  1.00  0.00    -0.351 A  
HETATM    9  H2  UNL     1     -10.550  19.990  69.051  1.00  0.00     0.000 HD 
HETATM   10  H1  UNL     1     -10.797  18.748  70.144  1.00  0.00     0.000 HD 
HETATM   11  N   UNL     1     -11.152  16.444  69.316  1.00  0.00    -0.312 NA 
HETATM   12  C   UNL     1     -11.596  15.174  69.127  1.00  0.00    -0.323 A  
HETATM   13  N   UNL     1      -9.114  16.739  66.306  1.00  0.00    -0.337 NA 
HETATM   14  C   UNL     1     -11.246  14.487  67.953  1.00  0.00    -0.295 A  
HETATM   15  H2  UNL     1     -12.709  13.223  67.669  1.00  0.00     0.000 HD 
HETATM   16  N   UNL     1     -11.690  13.204  67.628  1.00  0.00    -0.354 NA 
HETATM   17  N   UNL     1     -10.422  15.025  67.027  1.00  0.00    -0.273 NA 
HETATM   18  H1  UNL     1     -11.435  12.706  66.776  1.00  0.00     0.000 HD 
HETATM   19  C   UNL     1      -9.945  16.256  67.223  1.00  0.00    -0.250 A  
ENDROOT
BRANCH  12  20
HETATM   20  C   UNL     1     -12.421  14.632  70.235  1.00  0.00    -0.401 A  
HETATM   21  C   UNL     1     -13.353  15.454  70.903  1.00  0.00    -0.476 A  
HETATM   22  C   UNL     1     -14.110  14.985  71.981  1.00  0.00    -0.633 A  
HETATM   23  C   UNL     1     -13.959  13.673  72.420  1.00  0.00    -0.651 A  
HETATM   24  C   UNL     1     -13.051  12.836  71.781  1.00  0.00    -0.455 A  
HETATM   25  C   UNL     1     -12.287  13.314  70.709  1.00  0.00    -0.425 A  
ENDBRANCH  12  20
TORSDOF 1
ENDMDL
MODEL       27
REMARK 921   NORMALIZED FREE ENERGY PREDICTED BY IDOCK:   -6.62 KCAL/MOL
REMARK 922        TOTAL FREE ENERGY PREDICTED BY IDOCK:   -7.18 KCAL/MOL
REMARK 923 INTER-LIGAND FREE ENERGY PREDICTED BY IDOCK:   -6.95 KCAL/MOL
REMARK 924 INTRA-LIGAND FREE ENERGY PREDICTED BY IDOCK:   -0.23 KCAL/MOL
REMARK 927      BINDING AFFINITY PREDICTED BY RF-SCORE:    0.00 PKD
ROOT
HETATM    1  N   UNL     1     -10.587  10.737  64.147  1.00  0.00    -0.435 NA 
HETATM    2  H1  UNL     1      -9.922  10.119  64.612  1.00  0.00     0.000 HD 
HETATM    3  C   UNL     1     -10.629  12.052  64.553  1.00  0.00    -0.313 A  
HETATM    4  H2  UNL     1     -11.200  10.393  63.408  1.00  0.00     0.000 HD 
HETATM    5  N   UNL     1     -11.495  12.858  63.947  1.00  0.00    -0.418 NA 
HETATM    6  C   UNL     1     -11.488  14.142  64.336  1.00  0.00    -0.332 A  
HETATM    7  N   UNL     1     -12.452  14.958  63.719  1.00  0.00    -1.062 NA 
HETATM    8  C   UNL     1     -10.656  14.655  65.327  1.00  0.00    -0.391 A  
HETATM    9  H2  UNL     1     -13.382  14.559  63.844  1.00  0.00     0.000 HD 
HETATM   10  H1  UNL     1     -12.446  15.935  64.015  1.00  0.00     0.000 HD 
HETATM   11  N   UNL     1     -10.623  15.972  65.687  1.00  0.00    -0.375 NA 
HETATM   12  C   UNL     1      -9.746  16.330  66.661  1.00  0.00    -0.250 A  
HETATM   13  N   UNL     1      -9.818  12.417  65.539  1.00  0.00    -0.236 NA 
HETATM   14  C   UNL     1      -8.962  15.344  67.282  1.00  0.00    -0.198 A  
HETATM   15  H2  UNL     1      -8.601  16.055  69.066  1.00  0.00     0.000 HD 
HETATM   16  N   UNL     1      -8.073  15.588  68.329  1.00  0.00    -0.131 NA 
HETATM   17  N   UNL     1      -9.002  14.049  66.896  1.00  0.00    -0.239 NA 
HETATM   18  H1  UNL     1      -7.504  14.872  68.780  1.00  0.00     0.000 HD 
HETATM   19  C   UNL     1      -9.829  13.693  65.911  1.00  0.00    -0.246 A  
ENDROOT
BRANCH  12  20
HETATM   20  C   UNL     1      -9.706  17.783  66.957  1.00  0.00    -0.290 A  
HETATM   21  C   UNL     1     -10.763  18.402  67.657  1.00  0.00    -0.390 A  
HETATM   22  C   UNL     1     -10.774  19.778  67.909  1.00  0.00    -0.375 A  
HETATM   23  C   UNL     1      -9.722  20.575  67.470  1.00  0.00    -0.554 A  
HETATM   24  C   UNL     1      -8.663  19.996  66.780  1.00  0.00    -0.408 A  
HETATM   25  C   UNL     1      -8.662  18.620  66.520  1.00  0.00    -0.312 A  
ENDBRANCH  12  20
TORSDOF 1
ENDMDL
MODEL       28
REMARK 921   NORMALIZED FREE ENERGY PREDICTED BY IDOCK:   -6.60 KCAL/MOL
REMARK 922        TOTAL FREE ENERGY PREDICTED BY IDOCK:   -7.17 KCAL/MOL
REMARK 923 INTER-LIGAND FREE ENERGY PREDICTED BY IDOCK:   -6.94 KCAL/MOL
REMARK 924 INTRA-LIGAND FREE ENERGY PREDICTED BY IDOCK:   -0.23 KCAL/MOL
REMARK 927      BINDING AFFINITY PREDICTED BY RF-SCORE:    0.00 PKD
ROOT
HETATM    1  N   UNL     1      -7.677  19.567  68.841  1.00  0.00    -0.359 NA 
HETATM    2  H1  UNL     1      -7.792  20.431  68.311  1.00  0.00     0.000 HD 
HETATM    3  C   UNL     1      -8.269  18.428  68.342  1.00  0.00    -0.312 A  
HETATM    4  H2  UNL     1      -7.143  19.547  69.710  1.00  0.00     0.000 HD 
HETATM    5  N   UNL     1      -8.120  17.302  69.032  1.00  0.00    -0.167 NA 
HETATM    6  C   UNL     1      -8.675  16.201  68.504  1.00  0.00    -0.200 A  
HETATM    7  N   UNL     1      -8.549  15.036  69.281  1.00  0.00    -0.341 NA 
HETATM    8  C   UNL     1      -9.396  16.182  67.313  1.00  0.00    -0.213 A  
HETATM    9  H2  UNL     1      -8.916  15.199  70.219  1.00  0.00     0.000 HD 
HETATM   10  H1  UNL     1      -8.971  14.199  68.880  1.00  0.00     0.000 HD 
HETATM   11  N   UNL     1      -9.921  15.049  66.759  1.00  0.00    -0.242 NA 
HETATM   12  C   UNL     1     -10.587  15.183  65.582  1.00  0.00    -0.356 A  
HETATM   13  N   UNL     1      -8.970  18.540  67.220  1.00  0.00    -0.267 NA 
HETATM   14  C   UNL     1     -10.751  16.460  65.022  1.00  0.00    -0.259 A  
HETATM   15  H2  UNL     1     -12.397  16.330  63.977  1.00  0.00     0.000 HD 
HETATM   16  N   UNL     1     -11.463  16.721  63.850  1.00  0.00    -1.273 NA 
HETATM   17  N   UNL     1     -10.208  17.564  65.582  1.00  0.00    -0.621 NA 
HETATM   18  H1  UNL     1     -11.582  17.649  63.443  1.00  0.00     0.000 HD 
HETATM   19  C   UNL     1      -9.514  17.438  66.716  1.00  0.00    -0.273 A  
ENDROOT
BRANCH  12  20
HETATM   20  C   UNL     1     -11.071  13.909  64.994  1.00  0.00    -0.353 A  
HETATM   21  C   UNL     1     -10.192  13.072  64.276  1.00  0.00    -0.316 A  
HETATM   22  C   UNL     1     -10.631  11.889  63.671  1.00  0.00    -0.500 A  
HETATM   23  C   UNL     1     -11.965  11.507  63.773  1.00  0.00    -0.196 A  
HETATM   24  C   UNL     1     -12.856  12.310  64.476  1.00  0.00    -0.228 A  
HETATM   25  C   UNL     1     -12.415  13.499  65.070  1.00  0.00    -0.462 A  
ENDBRANCH  12  20
TORSDOF 1
ENDMDL
MODEL       29
REMARK 921   NORMALIZED FREE ENERGY PREDICTED BY IDOCK:   -6.59 KCAL/MOL
REMARK 922        TOTAL FREE ENERGY PREDICTED BY IDOCK:   -7.16 KCAL/MOL
REMARK 923 INTER-LIGAND FREE ENERGY PREDICTED BY IDOCK:   -7.12 KCAL/MOL
REMARK 924 INTRA-LIGAND FREE ENERGY PREDICTED BY IDOCK:   -0.03 KCAL/MOL
REMARK 927      BINDING AFFINITY PREDICTED BY RF-SCORE:    0.00 PKD
ROOT
HETATM    1  N   UNL     1     -10.148  20.270  65.816  1.00  0.00    -0.555 NA 
HETATM    2  H1  UNL     1     -10.239  20.496  64.825  1.00  0.00     0.000 HD 
HETATM    3  C   UNL     1     -10.312  18.955  66.189  1.00  0.00    -0.460 A  
HETATM    4  H2  UNL     1      -9.942  20.993  66.505  1.00  0.00     0.000 HD 
HETATM    5  N   UNL     1     -10.193  18.661  67.479  1.00  0.00    -0.364 NA 
HETATM    6  C   UNL     1     -10.320  17.367  67.811  1.00  0.00    -0.358 A  
HETATM    7  N   UNL     1     -10.245  17.092  69.187  1.00  0.00    -0.301 NA 
HETATM    8  C   UNL     1     -10.582  16.348  66.899  1.00  0.00    -0.252 A  
HETATM    9  H2  UNL     1     -10.929  17.653  69.695  1.00  0.00     0.000 HD 
HETATM   10  H1  UNL     1     -10.342  16.108  69.439  1.00  0.00     0.000 HD 
HETATM   11  N   UNL     1     -10.667  15.027  67.237  1.00  0.00    -0.291 NA 
HETATM   12  C   UNL     1     -10.912  14.142  66.235  1.00  0.00    -0.303 A  
HETATM   13  N   UNL     1     -10.604  18.077  65.237  1.00  0.00    -0.513 NA 
HETATM   14  C   UNL     1     -11.116  14.616  64.929  1.00  0.00    -0.401 A  
HETATM   15  H2  UNL     1     -12.260  13.271  64.092  1.00  0.00     0.000 HD 
HETATM   16  N   UNL     1     -11.430  13.806  63.837  1.00  0.00    -0.613 NA 
HETATM   17  N   UNL     1     -11.011  15.927  64.618  1.00  0.00    -0.569 NA 
HETATM   18  H1  UNL     1     -11.578  14.151  62.888  1.00  0.00     0.000 HD 
HETATM   19  C   UNL     1     -10.728  16.801  65.587  1.00  0.00    -0.192 A  
ENDROOT
BRANCH  12  20
HETATM   20  C   UNL     1     -10.921  12.719  66.652  1.00  0.00    -0.300 A  
HETATM   21  C   UNL     1     -11.621  12.315  67.808  1.00  0.00    -0.416 A  
HETATM   22  C   UNL     1     -11.609  10.988  68.251  1.00  0.00    -0.354 A  
HETATM   23  C   UNL     1     -10.896  10.024  67.545  1.00  0.00    -0.326 A  
HETATM   24  C   UNL     1     -10.197  10.389  66.401  1.00  0.00    -0.292 A  
HETATM   25  C   UNL     1     -10.203  11.720  65.967  1.00  0.00    -0.265 A  
ENDBRANCH  12  20
TORSDOF 1
ENDMDL
MODEL       30
REMARK 921   NORMALIZED FREE ENERGY PREDICTED BY IDOCK:   -6.59 KCAL/MOL
REMARK 922        TOTAL FREE ENERGY PREDICTED BY IDOCK:   -7.15 KCAL/MOL
REMARK 923 INTER-LIGAND FREE ENERGY PREDICTED BY IDOCK:   -6.93 KCAL/MOL
REMARK 924 INTRA-LIGAND FREE ENERGY PREDICTED BY IDOCK:   -0.22 KCAL/MOL
REMARK 927      BINDING AFFINITY PREDICTED BY RF-SCORE:    0.00 PKD
ROOT
HETATM    1  N   UNL     1     -10.158  20.124  66.033  1.00  0.00    -0.560 NA 
HETATM    2  H1  UNL     1      -9.699  20.566  66.830  1.00  0.00     0.000 HD 
HETATM    3  C   UNL     1     -10.217  18.749  66.012  1.00  0.00    -0.372 A  
HETATM    4  H2  UNL     1     -10.558  20.682  65.279  1.00  0.00     0.000 HD 
HETATM    5  N   UNL     1     -10.815  18.173  64.974  1.00  0.00    -0.529 NA 
HETATM    6  C   UNL     1     -10.892  16.834  64.997  1.00  0.00    -0.117 A  
HETATM    7  N   UNL     1     -11.479  16.249  63.862  1.00  0.00    -1.539 NA 
HETATM    8  C   UNL     1     -10.375  16.038  66.015  1.00  0.00    -0.351 A  
HETATM    9  H2  UNL     1     -10.996  16.559  63.018  1.00  0.00     0.000 HD 
HETATM   10  H1  UNL     1     -11.538  15.231  63.879  1.00  0.00     0.000 HD 
HETATM   11  N   UNL     1     -10.495  14.678  66.054  1.00  0.00    -0.293 NA 
HETATM   12  C   UNL     1      -9.953  14.035  67.121  1.00  0.00    -0.252 A  
HETATM   13  N   UNL     1      -9.650  18.093  67.017  1.00  0.00    -0.278 NA 
HETATM   14  C   UNL     1      -9.260  14.773  68.094  1.00  0.00    -0.195 A  
HETATM   15  H2  UNL     1      -7.969  13.511  68.841  1.00  0.00     0.000 HD 
HETATM   16  N   UNL     1      -8.617  14.213  69.199  1.00  0.00    -0.361 NA 
HETATM   17  N   UNL     1      -9.169  16.120  68.041  1.00  0.00    -0.194 NA 
HETATM   18  H1  UNL     1      -8.114  14.749  69.905  1.00  0.00     0.000 HD 
HETATM   19  C   UNL     1      -9.734  16.767  67.019  1.00  0.00    -0.251 A  
ENDROOT
BRANCH  12  20
HETATM   20  C   UNL     1     -10.179  12.568  67.143  1.00  0.00    -0.225 A  
HETATM   21  C   UNL     1      -9.514  11.727  66.227  1.00  0.00    -0.238 A  
HETATM   22  C   UNL     1      -9.742  10.347  66.193  1.00  0.00    -0.262 A  
HETATM   23  C   UNL     1     -10.643   9.768  67.082  1.00  0.00    -0.298 A  
HETATM   24  C   UNL     1     -11.313  10.570  67.999  1.00  0.00    -0.319 A  
HETATM   25  C   UNL     1     -11.089  11.952  68.022  1.00  0.00    -0.293 A  
ENDBRANCH  12  20
TORSDOF 1
ENDMDL
MODEL       31
REMARK 921   NORMALIZED FREE ENERGY PREDICTED BY IDOCK:   -6.57 KCAL/MOL
REMARK 922        TOTAL FREE ENERGY PREDICTED BY IDOCK:   -7.14 KCAL/MOL
REMARK 923 INTER-LIGAND FREE ENERGY PREDICTED BY IDOCK:   -6.89 KCAL/MOL
REMARK 924 INTRA-LIGAND FREE ENERGY PREDICTED BY IDOCK:   -0.25 KCAL/MOL
REMARK 927      BINDING AFFINITY PREDICTED BY RF-SCORE:    0.00 PKD
ROOT
HETATM    1  N   UNL     1     -10.601   8.044  67.050  1.00  0.00    -0.384 NA 
HETATM    2  H1  UNL     1     -10.628   8.276  66.057  1.00  0.00     0.000 HD 
HETATM    3  C   UNL     1     -10.873   9.051  67.949  1.00  0.00    -0.053 A  
HETATM    4  H2  UNL     1     -10.381   7.100  67.366  1.00  0.00     0.000 HD 
HETATM    5  N   UNL     1     -10.839   8.749  69.242  1.00  0.00    -0.140 NA 
HETATM    6  C   UNL     1     -11.145   9.739  70.094  1.00  0.00    -0.285 A  
HETATM    7  N   UNL     1     -11.047   9.408  71.457  1.00  0.00    -0.376 NA 
HETATM    8  C   UNL     1     -11.470  11.035  69.703  1.00  0.00    -0.303 A  
HETATM    9  H2  UNL     1     -10.116   9.042  71.663  1.00  0.00     0.000 HD 
HETATM   10  H1  UNL     1     -11.279  10.161  72.105  1.00  0.00     0.000 HD 
HETATM   11  N   UNL     1     -11.823  12.027  70.574  1.00  0.00    -0.237 NA 
HETATM   12  C   UNL     1     -12.130  13.240  70.045  1.00  0.00    -0.315 A  
HETATM   13  N   UNL     1     -11.126  10.259  67.460  1.00  0.00    -0.292 NA 
HETATM   14  C   UNL     1     -12.023  13.437  68.658  1.00  0.00    -0.327 A  
HETATM   15  H2  UNL     1     -11.656  15.346  68.459  1.00  0.00     0.000 HD 
HETATM   16  N   UNL     1     -12.257  14.652  68.014  1.00  0.00    -0.601 NA 
HETATM   17  N   UNL     1     -11.686  12.434  67.816  1.00  0.00    -0.360 NA 
HETATM   18  H1  UNL     1     -12.179  14.795  67.007  1.00  0.00     0.000 HD 
HETATM   19  C   UNL     1     -11.424  11.227  68.322  1.00  0.00    -0.308 A  
ENDROOT
BRANCH  12  20
HETATM   20  C   UNL     1     -12.575  14.254  71.032  1.00  0.00    -0.428 A  
HETATM   21  C   UNL     1     -11.643  15.125  71.635  1.00  0.00    -0.463 A  
HETATM   22  C   UNL     1     -12.027  16.059  72.604  1.00  0.00    -0.646 A  
HETATM   23  C   UNL     1     -13.359  16.151  72.994  1.00  0.00    -0.444 A  
HETATM   24  C   UNL     1     -14.303  15.308  72.417  1.00  0.00    -0.475 A  
HETATM   25  C   UNL     1     -13.912  14.368  71.456  1.00  0.00    -0.454 A  
ENDBRANCH  12  20
TORSDOF 1
ENDMDL
MODEL       32
REMARK 921   NORMALIZED FREE ENERGY PREDICTED BY IDOCK:   -6.54 KCAL/MOL
REMARK 922        TOTAL FREE ENERGY PREDICTED BY IDOCK:   -7.10 KCAL/MOL
REMARK 923 INTER-LIGAND FREE ENERGY PREDICTED BY IDOCK:   -7.22 KCAL/MOL
REMARK 924 INTRA-LIGAND FREE ENERGY PREDICTED BY IDOCK:    0.11 KCAL/MOL
REMARK 927      BINDING AFFINITY PREDICTED BY RF-SCORE:    0.00 PKD
ROOT
HETATM    1  N   UNL     1     -13.904  16.207  73.665  1.00  0.00    -0.755 NA 
HETATM    2  H1  UNL     1     -14.563  15.753  74.297  1.00  0.00     0.000 HD 
HETATM    3  C   UNL     1     -13.276  15.422  72.725  1.00  0.00    -0.490 A  
HETATM    4  H2  UNL     1     -13.716  17.208  73.728  1.00  0.00     0.000 HD 
HETATM    5  N   UNL     1     -12.417  16.014  71.901  1.00  0.00    -0.452 NA 
HETATM    6  C   UNL     1     -11.848  15.233  70.971  1.00  0.00    -0.345 A  
HETATM    7  N   UNL     1     -10.903  15.872  70.150  1.00  0.00    -0.335 NA 
HETATM    8  C   UNL     1     -12.091  13.868  70.840  1.00  0.00    -0.313 A  
HETATM    9  H2  UNL     1     -10.184  16.317  70.722  1.00  0.00     0.000 HD 
HETATM   10  H1  UNL     1     -10.470  15.278  69.442  1.00  0.00     0.000 HD 
HETATM   11  N   UNL     1     -11.542  13.087  69.862  1.00  0.00    -0.230 NA 
HETATM   12  C   UNL     1     -11.884  11.773  69.849  1.00  0.00    -0.348 A  
HETATM   13  N   UNL     1     -13.553  14.124  72.723  1.00  0.00    -0.663 NA 
HETATM   14  C   UNL     1     -12.729  11.269  70.852  1.00  0.00    -0.318 A  
HETATM   15  H2  UNL     1     -12.238   9.383  71.005  1.00  0.00     0.000 HD 
HETATM   16  N   UNL     1     -13.100   9.928  70.969  1.00  0.00    -0.507 NA 
HETATM   17  N   UNL     1     -13.272  12.065  71.799  1.00  0.00    -0.410 NA 
HETATM   18  H1  UNL     1     -13.713   9.563  71.697  1.00  0.00     0.000 HD 
HETATM   19  C   UNL     1     -12.976  13.367  71.795  1.00  0.00    -0.342 A  
ENDROOT
BRANCH  12  20
HETATM   20  C   UNL     1     -11.313  10.993  68.723  1.00  0.00    -0.349 A  
HETATM   21  C   UNL     1     -11.227  11.556  67.433  1.00  0.00    -0.367 A  
HETATM   22  C   UNL     1     -10.737  10.829  66.342  1.00  0.00    -0.228 A  
HETATM   23  C   UNL     1     -10.315   9.515  66.515  1.00  0.00    -0.263 A  
HETATM   24  C   UNL     1     -10.385   8.931  67.775  1.00  0.00    -0.301 A  
HETATM   25  C   UNL     1     -10.886   9.659  68.861  1.00  0.00    -0.201 A  
ENDBRANCH  12  20
TORSDOF 1
ENDMDL
MODEL       33
REMARK 921   NORMALIZED FREE ENERGY PREDICTED BY IDOCK:   -6.43 KCAL/MOL
REMARK 922        TOTAL FREE ENERGY PREDICTED BY IDOCK:   -6.99 KCAL/MOL
REMARK 923 INTER-LIGAND FREE ENERGY PREDICTED BY IDOCK:   -7.00 KCAL/MOL
REMARK 924 INTRA-LIGAND FREE ENERGY PREDICTED BY IDOCK:    0.01 KCAL/MOL
REMARK 927      BINDING AFFINITY PREDICTED BY RF-SCORE:    0.00 PKD
ROOT
HETATM    1  N   UNL     1     -10.045  17.822  65.828  1.00  0.00    -0.581 NA 
HETATM    2  H1  UNL     1      -9.913  17.538  64.858  1.00  0.00     0.000 HD 
HETATM    3  C   UNL     1     -10.439  16.857  66.729  1.00  0.00    -0.260 A  
HETATM    4  H2  UNL     1      -9.890  18.786  66.122  1.00  0.00     0.000 HD 
HETATM    5  N   UNL     1     -10.611  17.226  67.993  1.00  0.00    -0.384 NA 
HETATM    6  C   UNL     1     -10.958  16.259  68.856  1.00  0.00    -0.334 A  
HETATM    7  N   UNL     1     -11.187  16.688  70.175  1.00  0.00    -0.435 NA 
HETATM    8  C   UNL     1     -11.161  14.929  68.499  1.00  0.00    -0.266 A  
HETATM    9  H2  UNL     1     -11.883  17.434  70.186  1.00  0.00     0.000 HD 
HETATM   10  H1  UNL     1     -11.452  15.952  70.830  1.00  0.00     0.000 HD 
HETATM   11  N   UNL     1     -11.471  13.940  69.389  1.00  0.00    -0.268 NA 
HETATM   12  C   UNL     1     -11.623  12.683  68.897  1.00  0.00    -0.317 A  
HETATM   13  N   UNL     1     -10.645  15.630  66.264  1.00  0.00    -0.303 NA 
HETATM   14  C   UNL     1     -11.509  12.464  67.514  1.00  0.00    -0.346 A  
HETATM   15  H2  UNL     1     -12.625  10.897  67.172  1.00  0.00     0.000 HD 
HETATM   16  N   UNL     1     -11.702  11.229  66.893  1.00  0.00    -0.403 NA 
HETATM   17  N   UNL     1     -11.185  13.456  66.656  1.00  0.00    -0.302 NA 
HETATM   18  H1  UNL     1     -11.619  11.070  65.890  1.00  0.00     0.000 HD 
HETATM   19  C   UNL     1     -10.992  14.687  67.134  1.00  0.00    -0.316 A  
ENDROOT
BRANCH  12  20
HETATM   20  C   UNL     1     -11.888  11.643  69.921  1.00  0.00    -0.434 A  
HETATM   21  C   UNL     1     -11.157  10.437  69.924  1.00  0.00    -0.367 A  
HETATM   22  C   UNL     1     -11.416   9.419  70.848  1.00  0.00    -0.382 A  
HETATM   23  C   UNL     1     -12.417   9.582  71.801  1.00  0.00    -0.484 A  
HETATM   24  C   UNL     1     -13.155  10.760  71.826  1.00  0.00    -0.573 A  
HETATM   25  C   UNL     1     -12.899  11.772  70.892  1.00  0.00    -0.243 A  
ENDBRANCH  12  20
TORSDOF 1
ENDMDL
MODEL       34
REMARK 921   NORMALIZED FREE ENERGY PREDICTED BY IDOCK:   -6.40 KCAL/MOL
REMARK 922        TOTAL FREE ENERGY PREDICTED BY IDOCK:   -6.95 KCAL/MOL
REMARK 923 INTER-LIGAND FREE ENERGY PREDICTED BY IDOCK:   -6.78 KCAL/MOL
REMARK 924 INTRA-LIGAND FREE ENERGY PREDICTED BY IDOCK:   -0.17 KCAL/MOL
REMARK 927      BINDING AFFINITY PREDICTED BY RF-SCORE:    0.00 PKD
ROOT
HETATM    1  N   UNL     1     -11.258  12.636  63.274  1.00  0.00    -0.731 NA 
HETATM    2  H1  UNL     1     -11.744  13.531  63.342  1.00  0.00     0.000 HD 
HETATM    3  C   UNL     1     -11.012  11.952  64.444  1.00  0.00    -0.337 A  
HETATM    4  H2  UNL     1     -10.965  12.262  62.372  1.00  0.00     0.000 HD 
HETATM    5  N   UNL     1     -10.379  10.787  64.356  1.00  0.00    -0.362 NA 
HETATM    6  C   UNL     1     -10.186  10.125  65.506  1.00  0.00    -0.218 A  
HETATM    7  N   UNL     1      -9.467   8.923  65.391  1.00  0.00    -0.454 NA 
HETATM    8  C   UNL     1     -10.588  10.592  66.755  1.00  0.00    -0.237 A  
HETATM    9  H2  UNL     1      -8.573   9.092  64.929  1.00  0.00     0.000 HD 
HETATM   10  H1  UNL     1      -9.320   8.420  66.266  1.00  0.00     0.000 HD 
HETATM   11  N   UNL     1     -10.427   9.893  67.918  1.00  0.00    -0.219 NA 
HETATM   12  C   UNL     1     -10.883  10.470  69.060  1.00  0.00    -0.232 A  
HETATM   13  N   UNL     1     -11.401  12.518  65.580  1.00  0.00    -0.320 NA 
HETATM   14  C   UNL     1     -11.442  11.757  69.008  1.00  0.00    -0.297 A  
HETATM   15  H2  UNL     1     -11.112  12.507  70.783  1.00  0.00     0.000 HD 
HETATM   16  N   UNL     1     -11.890  12.467  70.123  1.00  0.00    -0.510 NA 
HETATM   17  N   UNL     1     -11.604  12.422  67.843  1.00  0.00    -0.336 NA 
HETATM   18  H1  UNL     1     -12.295  13.402  70.086  1.00  0.00     0.000 HD 
HETATM   19  C   UNL     1     -11.198  11.847  66.709  1.00  0.00    -0.327 A  
ENDROOT
BRANCH  12  20
HETATM   20  C   UNL     1     -10.746   9.632  70.277  1.00  0.00    -0.335 A  
HETATM   21  C   UNL     1     -11.889   9.131  70.935  1.00  0.00    -0.327 A  
HETATM   22  C   UNL     1     -11.792   8.378  72.110  1.00  0.00    -0.441 A  
HETATM   23  C   UNL     1     -10.544   8.100  72.658  1.00  0.00    -0.414 A  
HETATM   24  C   UNL     1      -9.398   8.578  72.033  1.00  0.00    -0.353 A  
HETATM   25  C   UNL     1      -9.500   9.340  70.863  1.00  0.00    -0.330 A  
ENDBRANCH  12  20
TORSDOF 1
ENDMDL
MODEL       35
REMARK 921   NORMALIZED FREE ENERGY PREDICTED BY IDOCK:   -6.39 KCAL/MOL
REMARK 922        TOTAL FREE ENERGY PREDICTED BY IDOCK:   -6.95 KCAL/MOL
REMARK 923 INTER-LIGAND FREE ENERGY PREDICTED BY IDOCK:   -6.73 KCAL/MOL
REMARK 924 INTRA-LIGAND FREE ENERGY PREDICTED BY IDOCK:   -0.22 KCAL/MOL
REMARK 927      BINDING AFFINITY PREDICTED BY RF-SCORE:    0.00 PKD
ROOT
HETATM    1  N   UNL     1     -11.166  16.990  69.779  1.00  0.00    -0.189 NA 
HETATM    2  H1  UNL     1     -10.724  17.075  68.863  1.00  0.00     0.000 HD 
HETATM    3  C   UNL     1     -11.586  15.739  70.172  1.00  0.00    -0.357 A  
HETATM    4  H2  UNL     1     -11.292  17.802  70.382  1.00  0.00     0.000 HD 
HETATM    5  N   UNL     1     -12.161  15.628  71.365  1.00  0.00    -0.382 NA 
HETATM    6  C   UNL     1     -12.526  14.392  71.738  1.00  0.00    -0.339 A  
HETATM    7  N   UNL     1     -13.182  14.311  72.979  1.00  0.00    -0.616 NA 
HETATM    8  C   UNL     1     -12.355  13.255  70.954  1.00  0.00    -0.329 A  
HETATM    9  H2  UNL     1     -13.990  14.935  72.991  1.00  0.00     0.000 HD 
HETATM   10  H1  UNL     1     -13.460  13.372  73.263  1.00  0.00     0.000 HD 
HETATM   11  N   UNL     1     -12.690  11.993  71.358  1.00  0.00    -0.335 NA 
HETATM   12  C   UNL     1     -12.449  10.977  70.489  1.00  0.00    -0.344 A  
HETATM   13  N   UNL     1     -11.410  14.735  69.321  1.00  0.00    -0.278 NA 
HETATM   14  C   UNL     1     -11.927  11.263  69.217  1.00  0.00    -0.342 A  
HETATM   15  H2  UNL     1     -12.573   9.809  68.082  1.00  0.00     0.000 HD 
HETATM   16  N   UNL     1     -11.695  10.307  68.227  1.00  0.00    -0.719 NA 
HETATM   17  N   UNL     1     -11.590  12.518  68.847  1.00  0.00    -0.296 NA 
HETATM   18  H1  UNL     1     -11.315  10.515  67.304  1.00  0.00     0.000 HD 
HETATM   19  C   UNL     1     -11.782  13.520  69.709  1.00  0.00    -0.295 A  
ENDROOT
BRANCH  12  20
HETATM   20  C   UNL     1     -12.766   9.625  71.012  1.00  0.00    -0.354 A  
HETATM   21  C   UNL     1     -11.734   8.753  71.418  1.00  0.00    -0.369 A  
HETATM   22  C   UNL     1     -11.999   7.457  71.871  1.00  0.00    -0.337 A  
HETATM   23  C   UNL     1     -13.311   6.996  71.935  1.00  0.00    -0.242 A  
HETATM   24  C   UNL     1     -14.351   7.831  71.544  1.00  0.00    -0.574 A  
HETATM   25  C   UNL     1     -14.080   9.124  71.082  1.00  0.00    -0.028 A  
ENDBRANCH  12  20
TORSDOF 1
ENDMDL
MODEL       36
REMARK 921   NORMALIZED FREE ENERGY PREDICTED BY IDOCK:   -6.38 KCAL/MOL
REMARK 922        TOTAL FREE ENERGY PREDICTED BY IDOCK:   -6.93 KCAL/MOL
REMARK 923 INTER-LIGAND FREE ENERGY PREDICTED BY IDOCK:   -7.13 KCAL/MOL
REMARK 924 INTRA-LIGAND FREE ENERGY PREDICTED BY IDOCK:    0.20 KCAL/MOL
REMARK 927      BINDING AFFINITY PREDICTED BY RF-SCORE:    0.00 PKD
ROOT
HETATM    1  N   UNL     1     -13.432  14.045  72.879  1.00  0.00    -0.663 NA 
HETATM    2  H1  UNL     1     -13.536  13.236  73.491  1.00  0.00     0.000 HD 
HETATM    3  C   UNL     1     -12.934  13.829  71.613  1.00  0.00    -0.364 A  
HETATM    4  H2  UNL     1     -13.686  14.982  73.192  1.00  0.00     0.000 HD 
HETATM    5  N   UNL     1     -12.798  14.882  70.815  1.00  0.00    -0.361 NA 
HETATM    6  C   UNL     1     -12.348  14.638  69.575  1.00  0.00    -0.195 A  
HETATM    7  N   UNL     1     -12.160  15.775  68.771  1.00  0.00    -0.545 NA 
HETATM    8  C   UNL     1     -12.007  13.373  69.102  1.00  0.00    -0.317 A  
HETATM    9  H2  UNL     1     -11.547  16.441  69.242  1.00  0.00     0.000 HD 
HETATM   10  H1  UNL     1     -11.818  15.589  67.828  1.00  0.00     0.000 HD 
HETATM   11  N   UNL     1     -11.590  13.125  67.825  1.00  0.00    -0.316 NA 
HETATM   12  C   UNL     1     -11.308  11.836  67.501  1.00  0.00    -0.310 A  
HETATM   13  N   UNL     1     -12.601  12.585  71.288  1.00  0.00    -0.306 NA 
HETATM   14  C   UNL     1     -11.403  10.839  68.486  1.00  0.00    -0.295 A  
HETATM   15  H2  UNL     1     -10.129   9.469  67.923  1.00  0.00     0.000 HD 
HETATM   16  N   UNL     1     -11.083   9.496  68.282  1.00  0.00    -0.497 NA 
HETATM   17  N   UNL     1     -11.833  11.108  69.739  1.00  0.00    -0.317 NA 
HETATM   18  H1  UNL     1     -11.152   8.773  68.997  1.00  0.00     0.000 HD 
HETATM   19  C   UNL     1     -12.154  12.365  70.056  1.00  0.00    -0.263 A  
ENDROOT
BRANCH  12  20
HETATM   20  C   UNL     1     -10.930  11.620  66.083  1.00  0.00    -0.339 A  
HETATM   21  C   UNL     1      -9.990  10.628  65.734  1.00  0.00    -0.315 A  
HETATM   22  C   UNL     1      -9.581  10.433  64.410  1.00  0.00    -0.375 A  
HETATM   23  C   UNL     1     -10.106  11.226  63.395  1.00  0.00    -0.445 A  
HETATM   24  C   UNL     1     -11.036  12.212  63.705  1.00  0.00    -0.528 A  
HETATM   25  C   UNL     1     -11.435  12.410  65.032  1.00  0.00    -0.378 A  
ENDBRANCH  12  20
TORSDOF 1
ENDMDL
MODEL       37
REMARK 921   NORMALIZED FREE ENERGY PREDICTED BY IDOCK:   -6.38 KCAL/MOL
REMARK 922        TOTAL FREE ENERGY PREDICTED BY IDOCK:   -6.93 KCAL/MOL
REMARK 923 INTER-LIGAND FREE ENERGY PREDICTED BY IDOCK:   -6.95 KCAL/MOL
REMARK 924 INTRA-LIGAND FREE ENERGY PREDICTED BY IDOCK:    0.03 KCAL/MOL
REMARK 927      BINDING AFFINITY PREDICTED BY RF-SCORE:    0.00 PKD
ROOT
HETATM    1  N   UNL     1     -10.411  19.427  65.620  1.00  0.00    -0.510 NA 
HETATM    2  H1  UNL     1     -10.343  20.162  66.324  1.00  0.00     0.000 HD 
HETATM    3  C   UNL     1     -10.522  18.127  66.062  1.00  0.00    -0.335 A  
HETATM    4  H2  UNL     1     -10.398  19.647  64.624  1.00  0.00     0.000 HD 
HETATM    5  N   UNL     1     -10.611  17.170  65.145  1.00  0.00    -0.682 NA 
HETATM    6  C   UNL     1     -10.756  15.917  65.602  1.00  0.00    -0.339 A  
HETATM    7  N   UNL     1     -10.791  14.919  64.613  1.00  0.00    -0.614 NA 
HETATM    8  C   UNL     1     -10.798  15.577  66.952  1.00  0.00    -0.301 A  
HETATM    9  H2  UNL     1      -9.963  14.983  64.020  1.00  0.00     0.000 HD 
HETATM   10  H1  UNL     1     -10.901  13.966  64.961  1.00  0.00     0.000 HD 
HETATM   11  N   UNL     1     -10.989  14.304  67.411  1.00  0.00    -0.289 NA 
HETATM   12  C   UNL     1     -11.024  14.127  68.757  1.00  0.00    -0.257 A  
HETATM   13  N   UNL     1     -10.506  17.920  67.373  1.00  0.00    -0.383 NA 
HETATM   14  C   UNL     1     -10.813  15.226  69.605  1.00  0.00    -0.286 A  
HETATM   15  H2  UNL     1     -10.066  14.452  71.237  1.00  0.00     0.000 HD 
HETATM   16  N   UNL     1     -10.770  15.150  70.998  1.00  0.00    -0.516 NA 
HETATM   17  N   UNL     1     -10.641  16.478  69.126  1.00  0.00    -0.299 NA 
HETATM   18  H1  UNL     1     -10.617  15.948  71.614  1.00  0.00     0.000 HD 
HETATM   19  C   UNL     1     -10.648  16.671  67.805  1.00  0.00    -0.342 A  
ENDROOT
BRANCH  12  20
HETATM   20  C   UNL     1     -11.307  12.737  69.193  1.00  0.00    -0.337 A  
HETATM   21  C   UNL     1     -10.724  11.642  68.521  1.00  0.00    -0.250 A  
HETATM   22  C   UNL     1     -11.009  10.320  68.880  1.00  0.00    -0.279 A  
HETATM   23  C   UNL     1     -11.885  10.056  69.928  1.00  0.00    -0.141 A  
HETATM   24  C   UNL     1     -12.475  11.113  70.612  1.00  0.00    -0.448 A  
HETATM   25  C   UNL     1     -12.194  12.434  70.243  1.00  0.00    -0.345 A  
ENDBRANCH  12  20
TORSDOF 1
ENDMDL
MODEL       38
REMARK 921   NORMALIZED FREE ENERGY PREDICTED BY IDOCK:   -6.37 KCAL/MOL
REMARK 922        TOTAL FREE ENERGY PREDICTED BY IDOCK:   -6.92 KCAL/MOL
REMARK 923 INTER-LIGAND FREE ENERGY PREDICTED BY IDOCK:   -6.71 KCAL/MOL
REMARK 924 INTRA-LIGAND FREE ENERGY PREDICTED BY IDOCK:   -0.21 KCAL/MOL
REMARK 927      BINDING AFFINITY PREDICTED BY RF-SCORE:    0.00 PKD
ROOT
HETATM    1  N   UNL     1     -11.449  10.155  67.455  1.00  0.00    -0.480 NA 
HETATM    2  H1  UNL     1     -10.829   9.711  68.133  1.00  0.00     0.000 HD 
HETATM    3  C   UNL     1     -11.341  11.518  67.288  1.00  0.00    -0.290 A  
HETATM    4  H2  UNL     1     -12.124   9.610  66.920  1.00  0.00     0.000 HD 
HETATM    5  N   UNL     1     -12.148  12.097  66.405  1.00  0.00    -0.587 NA 
HETATM    6  C   UNL     1     -11.996  13.419  66.234  1.00  0.00    -0.411 A  
HETATM    7  N   UNL     1     -12.898  14.014  65.336  1.00  0.00    -0.716 NA 
HETATM    8  C   UNL     1     -11.074  14.196  66.930  1.00  0.00    -0.307 A  
HETATM    9  H2  UNL     1     -13.858  13.804  65.612  1.00  0.00     0.000 HD 
HETATM   10  H1  UNL     1     -12.783  15.019  65.207  1.00  0.00     0.000 HD 
HETATM   11  N   UNL     1     -10.894  15.534  66.721  1.00  0.00    -0.310 NA 
HETATM   12  C   UNL     1      -9.944  16.159  67.465  1.00  0.00    -0.243 A  
HETATM   13  N   UNL     1     -10.456  12.162  68.040  1.00  0.00    -0.206 NA 
HETATM   14  C   UNL     1      -9.237  15.431  68.436  1.00  0.00    -0.192 A  
HETATM   15  H2  UNL     1      -8.730  16.762  69.774  1.00  0.00     0.000 HD 
HETATM   16  N   UNL     1      -8.283  15.981  69.293  1.00  0.00    -0.239 NA 
HETATM   17  N   UNL     1      -9.423  14.105  68.613  1.00  0.00    -0.195 NA 
HETATM   18  H1  UNL     1      -7.770  15.453  69.998  1.00  0.00     0.000 HD 
HETATM   19  C   UNL     1     -10.323  13.472  67.857  1.00  0.00    -0.249 A  
ENDROOT
BRANCH  12  20
HETATM   20  C   UNL     1      -9.746  17.594  67.141  1.00  0.00    -0.291 A  
HETATM   21  C   UNL     1     -10.745  18.542  67.446  1.00  0.00    -0.424 A  
HETATM   22  C   UNL     1     -10.605  19.893  67.110  1.00  0.00    -0.527 A  
HETATM   23  C   UNL     1      -9.456  20.335  66.462  1.00  0.00    -0.460 A  
HETATM   24  C   UNL     1      -8.452  19.425  66.149  1.00  0.00    -0.303 A  
HETATM   25  C   UNL     1      -8.601  18.073  66.477  1.00  0.00    -0.280 A  
ENDBRANCH  12  20
TORSDOF 1
ENDMDL
MODEL       39
REMARK 921   NORMALIZED FREE ENERGY PREDICTED BY IDOCK:   -6.36 KCAL/MOL
REMARK 922        TOTAL FREE ENERGY PREDICTED BY IDOCK:   -6.91 KCAL/MOL
REMARK 923 INTER-LIGAND FREE ENERGY PREDICTED BY IDOCK:   -6.67 KCAL/MOL
REMARK 924 INTRA-LIGAND FREE ENERGY PREDICTED BY IDOCK:   -0.24 KCAL/MOL
REMARK 927      BINDING AFFINITY PREDICTED BY RF-SCORE:    0.00 PKD
ROOT
HETATM    1  N   UNL     1     -10.973  18.334  64.935  1.00  0.00    -0.374 NA 
HETATM    2  H1  UNL     1     -10.369  18.876  65.553  1.00  0.00     0.000 HD 
HETATM    3  C   UNL     1     -10.874  16.961  64.986  1.00  0.00    -0.064 A  
HETATM    4  H2  UNL     1     -11.627  18.792  64.301  1.00  0.00     0.000 HD 
HETATM    5  N   UNL     1     -11.661  16.255  64.181  1.00  0.00    -0.946 NA 
HETATM    6  C   UNL     1     -11.571  14.921  64.278  1.00  0.00    -0.191 A  
HETATM    7  N   UNL     1     -12.373  14.199  63.377  1.00  0.00    -1.144 NA 
HETATM    8  C   UNL     1     -10.705  14.256  65.143  1.00  0.00    -0.394 A  
HETATM    9  H2  UNL     1     -12.179  14.495  62.420  1.00  0.00     0.000 HD 
HETATM   10  H1  UNL     1     -12.304  13.184  63.452  1.00  0.00     0.000 HD 
HETATM   11  N   UNL     1     -10.650  12.897  65.269  1.00  0.00    -0.290 NA 
HETATM   12  C   UNL     1      -9.765  12.390  66.167  1.00  0.00    -0.246 A  
HETATM   13  N   UNL     1      -9.980  16.440  65.818  1.00  0.00    -0.478 NA 
HETATM   14  C   UNL     1      -8.924  13.263  66.876  1.00  0.00    -0.207 A  
HETATM   15  H2  UNL     1      -7.338  12.194  67.282  1.00  0.00     0.000 HD 
HETATM   16  N   UNL     1      -7.942  12.851  67.778  1.00  0.00    -0.148 NA 
HETATM   17  N   UNL     1      -9.009  14.605  66.745  1.00  0.00    -0.258 NA 
HETATM   18  H1  UNL     1      -7.331  13.484  68.293  1.00  0.00     0.000 HD 
HETATM   19  C   UNL     1      -9.905  15.115  65.897  1.00  0.00    -0.341 A  
ENDROOT
BRANCH  12  20
HETATM   20  C   UNL     1      -9.802  10.913  66.310  1.00  0.00    -0.261 A  
HETATM   21  C   UNL     1     -10.704  10.303  67.206  1.00  0.00    -0.323 A  
HETATM   22  C   UNL     1     -10.729   8.917  67.396  1.00  0.00    -0.225 A  
HETATM   23  C   UNL     1      -9.852   8.100  66.688  1.00  0.00    -0.331 A  
HETATM   24  C   UNL     1      -8.952   8.671  65.796  1.00  0.00    -0.244 A  
HETATM   25  C   UNL     1      -8.923  10.060  65.617  1.00  0.00    -0.203 A  
ENDBRANCH  12  20
TORSDOF 1
ENDMDL
MODEL       40
REMARK 921   NORMALIZED FREE ENERGY PREDICTED BY IDOCK:   -6.31 KCAL/MOL
REMARK 922        TOTAL FREE ENERGY PREDICTED BY IDOCK:   -6.86 KCAL/MOL
REMARK 923 INTER-LIGAND FREE ENERGY PREDICTED BY IDOCK:   -6.68 KCAL/MOL
REMARK 924 INTRA-LIGAND FREE ENERGY PREDICTED BY IDOCK:   -0.17 KCAL/MOL
REMARK 927      BINDING AFFINITY PREDICTED BY RF-SCORE:    0.00 PKD
ROOT
HETATM    1  N   UNL     1     -12.274  14.485  63.704  1.00  0.00    -1.062 NA 
HETATM    2  H1  UNL     1     -12.061  14.019  62.822  1.00  0.00     0.000 HD 
HETATM    3  C   UNL     1     -12.019  13.796  64.869  1.00  0.00    -0.390 A  
HETATM    4  H2  UNL     1     -12.663  15.427  63.723  1.00  0.00     0.000 HD 
HETATM    5  N   UNL     1     -12.296  14.402  66.018  1.00  0.00    -0.365 NA 
HETATM    6  C   UNL     1     -12.002  13.724  67.137  1.00  0.00    -0.405 A  
HETATM    7  N   UNL     1     -12.357  14.365  68.337  1.00  0.00    -0.599 NA 
HETATM    8  C   UNL     1     -11.454  12.444  67.155  1.00  0.00    -0.357 A  
HETATM    9  H2  UNL     1     -13.347  14.609  68.324  1.00  0.00     0.000 HD 
HETATM   10  H1  UNL     1     -12.133  13.849  69.187  1.00  0.00     0.000 HD 
HETATM   11  N   UNL     1     -11.116  11.776  68.298  1.00  0.00    -0.221 NA 
HETATM   12  C   UNL     1     -10.574  10.538  68.158  1.00  0.00    -0.204 A  
HETATM   13  N   UNL     1     -11.537  12.563  64.761  1.00  0.00    -0.324 NA 
HETATM   14  C   UNL     1     -10.434   9.985  66.875  1.00  0.00    -0.218 A  
HETATM   15  H2  UNL     1     -10.513   8.053  67.161  1.00  0.00     0.000 HD 
HETATM   16  N   UNL     1      -9.945   8.703  66.618  1.00  0.00    -0.265 NA 
HETATM   17  N   UNL     1     -10.761  10.673  65.759  1.00  0.00    -0.094 NA 
HETATM   18  H1  UNL     1      -9.843   8.302  65.686  1.00  0.00     0.000 HD 
HETATM   19  C   UNL     1     -11.255  11.907  65.882  1.00  0.00    -0.322 A  
ENDROOT
BRANCH  12  20
HETATM   20  C   UNL     1     -10.162   9.894  69.430  1.00  0.00    -0.231 A  
HETATM   21  C   UNL     1     -11.117   9.592  70.423  1.00  0.00    -0.346 A  
HETATM   22  C   UNL     1     -10.752   9.028  71.650  1.00  0.00    -0.441 A  
HETATM   23  C   UNL     1      -9.416   8.744  71.916  1.00  0.00    -0.362 A  
HETATM   24  C   UNL     1      -8.450   9.028  70.957  1.00  0.00    -0.254 A  
HETATM   25  C   UNL     1      -8.819   9.602  69.735  1.00  0.00    -0.224 A  
ENDBRANCH  12  20
TORSDOF 1
ENDMDL
MODEL       41
REMARK 921   NORMALIZED FREE ENERGY PREDICTED BY IDOCK:   -6.25 KCAL/MOL
REMARK 922        TOTAL FREE ENERGY PREDICTED BY IDOCK:   -6.79 KCAL/MOL
REMARK 923 INTER-LIGAND FREE ENERGY PREDICTED BY IDOCK:   -6.82 KCAL/MOL
REMARK 924 INTRA-LIGAND FREE ENERGY PREDICTED BY IDOCK:    0.02 KCAL/MOL
REMARK 927      BINDING AFFINITY PREDICTED BY RF-SCORE:    0.00 PKD
ROOT
HETATM    1  N   UNL     1     -13.310  13.873  72.839  1.00  0.00    -0.623 NA 
HETATM    2  H1  UNL     1     -13.239  14.887  72.931  1.00  0.00     0.000 HD 
HETATM    3  C   UNL     1     -12.941  13.313  71.637  1.00  0.00    -0.349 A  
HETATM    4  H2  UNL     1     -13.643  13.295  73.611  1.00  0.00     0.000 HD 
HETATM    5  N   UNL     1     -13.033  11.993  71.517  1.00  0.00    -0.369 NA 
HETATM    6  C   UNL     1     -12.632  11.470  70.349  1.00  0.00    -0.157 A  
HETATM    7  N   UNL     1     -12.792  10.079  70.229  1.00  0.00    -0.566 NA 
HETATM    8  C   UNL     1     -12.155  12.222  69.278  1.00  0.00    -0.166 A  
HETATM    9  H2  UNL     1     -13.761   9.819  70.415  1.00  0.00     0.000 HD 
HETATM   10  H1  UNL     1     -12.487   9.681  69.341  1.00  0.00     0.000 HD 
HETATM   11  N   UNL     1     -11.707  11.679  68.107  1.00  0.00    -0.482 NA 
HETATM   12  C   UNL     1     -11.254  12.538  67.156  1.00  0.00    -0.300 A  
HETATM   13  N   UNL     1     -12.544  14.134  70.672  1.00  0.00    -0.342 NA 
HETATM   14  C   UNL     1     -11.313  13.922  67.390  1.00  0.00    -0.326 A  
HETATM   15  H2  UNL     1     -11.457  14.715  65.609  1.00  0.00     0.000 HD 
HETATM   16  N   UNL     1     -10.931  14.894  66.465  1.00  0.00    -0.324 NA 
HETATM   17  N   UNL     1     -11.747  14.432  68.564  1.00  0.00    -0.320 NA 
HETATM   18  H1  UNL     1     -10.973  15.899  66.635  1.00  0.00     0.000 HD 
HETATM   19  C   UNL     1     -12.153  13.596  69.521  1.00  0.00    -0.314 A  
ENDROOT
BRANCH  12  20
HETATM   20  C   UNL     1     -10.715  11.887  65.937  1.00  0.00    -0.326 A  
HETATM   21  C   UNL     1     -11.128  12.308  64.656  1.00  0.00    -0.358 A  
HETATM   22  C   UNL     1     -10.672  11.682  63.491  1.00  0.00    -0.495 A  
HETATM   23  C   UNL     1      -9.782  10.615  63.576  1.00  0.00    -0.389 A  
HETATM   24  C   UNL     1      -9.354  10.177  64.824  1.00  0.00    -0.324 A  
HETATM   25  C   UNL     1      -9.821  10.800  65.988  1.00  0.00    -0.285 A  
ENDBRANCH  12  20
TORSDOF 1
ENDMDL
MODEL       42
REMARK 921   NORMALIZED FREE ENERGY PREDICTED BY IDOCK:   -6.23 KCAL/MOL
REMARK 922        TOTAL FREE ENERGY PREDICTED BY IDOCK:   -6.77 KCAL/MOL
REMARK 923 INTER-LIGAND FREE ENERGY PREDICTED BY IDOCK:   -6.52 KCAL/MOL
REMARK 924 INTRA-LIGAND FREE ENERGY PREDICTED BY IDOCK:   -0.24 KCAL/MOL
REMARK 927      BINDING AFFINITY PREDICTED BY RF-SCORE:    0.00 PKD
ROOT
HETATM    1  N   UNL     1     -12.626  14.999  64.096  1.00  0.00    -0.808 NA 
HETATM    2  H1  UNL     1     -13.306  15.428  64.723  1.00  0.00     0.000 HD 
HETATM    3  C   UNL     1     -11.980  13.863  64.533  1.00  0.00    -0.437 A  
HETATM    4  H2  UNL     1     -12.431  15.395  63.177  1.00  0.00     0.000 HD 
HETATM    5  N   UNL     1     -11.095  13.303  63.717  1.00  0.00    -0.244 NA 
HETATM    6  C   UNL     1     -10.509  12.178  64.152  1.00  0.00    -0.362 A  
HETATM    7  N   UNL     1      -9.537  11.638  63.293  1.00  0.00    -0.514 NA 
HETATM    8  C   UNL     1     -10.761  11.594  65.391  1.00  0.00    -0.287 A  
HETATM    9  H2  UNL     1      -8.829  12.341  63.077  1.00  0.00     0.000 HD 
HETATM   10  H1  UNL     1      -9.091  10.782  63.625  1.00  0.00     0.000 HD 
HETATM   11  N   UNL     1     -10.194  10.424  65.811  1.00  0.00    -0.255 NA 
HETATM   12  C   UNL     1     -10.548   9.966  67.040  1.00  0.00    -0.203 A  
HETATM   13  N   UNL     1     -12.270  13.423  65.752  1.00  0.00    -0.437 NA 
HETATM   14  C   UNL     1     -11.424  10.725  67.834  1.00  0.00    -0.227 A  
HETATM   15  H2  UNL     1     -10.955  10.251  69.671  1.00  0.00     0.000 HD 
HETATM   16  N   UNL     1     -11.810  10.380  69.130  1.00  0.00    -0.518 NA 
HETATM   17  N   UNL     1     -11.984  11.871  67.389  1.00  0.00    -0.601 NA 
HETATM   18  H1  UNL     1     -12.446  10.931  69.707  1.00  0.00     0.000 HD 
HETATM   19  C   UNL     1     -11.676  12.308  66.166  1.00  0.00    -0.376 A  
ENDROOT
BRANCH  12  20
HETATM   20  C   UNL     1      -9.955   8.657  67.409  1.00  0.00    -0.270 A  
HETATM   21  C   UNL     1     -10.590   7.453  67.039  1.00  0.00    -0.414 A  
HETATM   22  C   UNL     1     -10.079   6.206  67.413  1.00  0.00    -0.190 A  
HETATM   23  C   UNL     1      -8.913   6.128  68.168  1.00  0.00    -0.114 A  
HETATM   24  C   UNL     1      -8.262   7.296  68.548  1.00  0.00    -0.125 A  
HETATM   25  C   UNL     1      -8.783   8.543  68.180  1.00  0.00    -0.142 A  
ENDBRANCH  12  20
TORSDOF 1
ENDMDL
MODEL       43
REMARK 921   NORMALIZED FREE ENERGY PREDICTED BY IDOCK:   -6.22 KCAL/MOL
REMARK 922        TOTAL FREE ENERGY PREDICTED BY IDOCK:   -6.77 KCAL/MOL
REMARK 923 INTER-LIGAND FREE ENERGY PREDICTED BY IDOCK:   -6.53 KCAL/MOL
REMARK 924 INTRA-LIGAND FREE ENERGY PREDICTED BY IDOCK:   -0.24 KCAL/MOL
REMARK 927      BINDING AFFINITY PREDICTED BY RF-SCORE:    0.00 PKD
ROOT
HETATM    1  N   UNL     1     -13.039   8.988  72.847  1.00  0.00    -0.726 NA 
HETATM    2  H1  UNL     1     -12.754   8.028  72.651  1.00  0.00     0.000 HD 
HETATM    3  C   UNL     1     -12.721   9.951  71.916  1.00  0.00    -0.409 A  
HETATM    4  H2  UNL     1     -13.541   9.225  73.703  1.00  0.00     0.000 HD 
HETATM    5  N   UNL     1     -13.092  11.201  72.171  1.00  0.00    -0.367 NA 
HETATM    6  C   UNL     1     -12.804  12.113  71.230  1.00  0.00    -0.250 A  
HETATM    7  N   UNL     1     -13.157  13.435  71.550  1.00  0.00    -0.361 NA 
HETATM    8  C   UNL     1     -12.137  11.827  70.042  1.00  0.00    -0.310 A  
HETATM    9  H2  UNL     1     -12.738  13.705  72.440  1.00  0.00     0.000 HD 
HETATM   10  H1  UNL     1     -12.937  14.128  70.834  1.00  0.00     0.000 HD 
HETATM   11  N   UNL     1     -11.885  12.751  69.068  1.00  0.00    -0.305 NA 
HETATM   12  C   UNL     1     -11.238  12.322  67.953  1.00  0.00    -0.274 A  
HETATM   13  N   UNL     1     -12.044   9.567  70.841  1.00  0.00    -0.292 NA 
HETATM   14  C   UNL     1     -10.817  10.984  67.871  1.00  0.00    -0.237 A  
HETATM   15  H2  UNL     1      -9.267  11.030  66.681  1.00  0.00     0.000 HD 
HETATM   16  N   UNL     1     -10.097  10.449  66.801  1.00  0.00    -0.206 NA 
HETATM   17  N   UNL     1     -11.093  10.085  68.841  1.00  0.00    -0.208 NA 
HETATM   18  H1  UNL     1      -9.792   9.478  66.742  1.00  0.00     0.000 HD 
HETATM   19  C   UNL     1     -11.765  10.487  69.922  1.00  0.00    -0.294 A  
ENDROOT
BRANCH  12  20
HETATM   20  C   UNL     1     -11.058  13.354  66.903  1.00  0.00    -0.309 A  
HETATM   21  C   UNL     1      -9.863  14.100  66.829  1.00  0.00    -0.275 A  
HETATM   22  C   UNL     1      -9.684  15.111  65.879  1.00  0.00    -0.385 A  
HETATM   23  C   UNL     1     -10.697  15.402  64.971  1.00  0.00    -0.460 A  
HETATM   24  C   UNL     1     -11.886  14.684  65.016  1.00  0.00    -0.377 A  
HETATM   25  C   UNL     1     -12.066  13.680  65.976  1.00  0.00    -0.480 A  
ENDBRANCH  12  20
TORSDOF 1
ENDMDL
MODEL       44
REMARK 921   NORMALIZED FREE ENERGY PREDICTED BY IDOCK:   -6.22 KCAL/MOL
REMARK 922        TOTAL FREE ENERGY PREDICTED BY IDOCK:   -6.77 KCAL/MOL
REMARK 923 INTER-LIGAND FREE ENERGY PREDICTED BY IDOCK:   -6.73 KCAL/MOL
REMARK 924 INTRA-LIGAND FREE ENERGY PREDICTED BY IDOCK:   -0.04 KCAL/MOL
REMARK 927      BINDING AFFINITY PREDICTED BY RF-SCORE:    0.00 PKD
ROOT
HETATM    1  N   UNL     1     -12.348  15.985  63.791  1.00  0.00    -1.000 NA 
HETATM    2  H1  UNL     1     -11.960  16.763  64.324  1.00  0.00     0.000 HD 
HETATM    3  C   UNL     1     -11.912  14.716  64.101  1.00  0.00    -0.292 A  
HETATM    4  H2  UNL     1     -13.036  16.141  63.054  1.00  0.00     0.000 HD 
HETATM    5  N   UNL     1     -12.418  13.703  63.408  1.00  0.00    -0.800 NA 
HETATM    6  C   UNL     1     -12.004  12.475  63.756  1.00  0.00    -0.517 A  
HETATM    7  N   UNL     1     -12.512  11.426  62.970  1.00  0.00    -0.854 NA 
HETATM    8  C   UNL     1     -11.082  12.218  64.768  1.00  0.00    -0.311 A  
HETATM    9  H2  UNL     1     -12.312  11.598  61.984  1.00  0.00     0.000 HD 
HETATM   10  H1  UNL     1     -12.197  10.493  63.235  1.00  0.00     0.000 HD 
HETATM   11  N   UNL     1     -10.698  10.963  65.147  1.00  0.00    -0.197 NA 
HETATM   12  C   UNL     1      -9.800  10.867  66.163  1.00  0.00    -0.222 A  
HETATM   13  N   UNL     1     -10.996  14.598  65.056  1.00  0.00    -0.380 NA 
HETATM   14  C   UNL     1      -9.275  12.038  66.734  1.00  0.00    -0.201 A  
HETATM   15  H2  UNL     1      -7.517  11.511  67.404  1.00  0.00     0.000 HD 
HETATM   16  N   UNL     1      -8.309  12.058  67.741  1.00  0.00    -0.146 NA 
HETATM   17  N   UNL     1      -9.684  13.268  66.352  1.00  0.00    -0.275 NA 
HETATM   18  H1  UNL     1      -7.928  12.908  68.156  1.00  0.00     0.000 HD 
HETATM   19  C   UNL     1     -10.597  13.373  65.384  1.00  0.00    -0.303 A  
ENDROOT
BRANCH  12  20
HETATM   20  C   UNL     1      -9.478   9.479  66.577  1.00  0.00    -0.236 A  
HETATM   21  C   UNL     1     -10.504   8.582  66.939  1.00  0.00    -0.345 A  
HETATM   22  C   UNL     1     -10.227   7.283  67.378  1.00  0.00    -0.304 A  
HETATM   23  C   UNL     1      -8.909   6.843  67.463  1.00  0.00    -0.118 A  
HETATM   24  C   UNL     1      -7.875   7.702  67.112  1.00  0.00    -0.117 A  
HETATM   25  C   UNL     1      -8.157   9.005  66.683  1.00  0.00    -0.107 A  
ENDBRANCH  12  20
TORSDOF 1
ENDMDL
MODEL       45
REMARK 921   NORMALIZED FREE ENERGY PREDICTED BY IDOCK:   -6.20 KCAL/MOL
REMARK 922        TOTAL FREE ENERGY PREDICTED BY IDOCK:   -6.75 KCAL/MOL
REMARK 923 INTER-LIGAND FREE ENERGY PREDICTED BY IDOCK:   -6.54 KCAL/MOL
REMARK 924 INTRA-LIGAND FREE ENERGY PREDICTED BY IDOCK:   -0.21 KCAL/MOL
REMARK 927      BINDING AFFINITY PREDICTED BY RF-SCORE:    0.00 PKD
ROOT
HETATM    1  N   UNL     1     -11.560   8.705  72.174  1.00  0.00    -0.364 NA 
HETATM    2  H1  UNL     1     -11.812   9.126  73.068  1.00  0.00     0.000 HD 
HETATM    3  C   UNL     1     -11.573   9.514  71.060  1.00  0.00    -0.344 A  
HETATM    4  H2  UNL     1     -11.307   7.719  72.108  1.00  0.00     0.000 HD 
HETATM    5  N   UNL     1     -11.245   8.965  69.895  1.00  0.00    -0.135 NA 
HETATM    6  C   UNL     1     -11.229   9.784  68.833  1.00  0.00    -0.030 A  
HETATM    7  N   UNL     1     -10.932   9.167  67.605  1.00  0.00    -0.476 NA 
HETATM    8  C   UNL     1     -11.549  11.138  68.884  1.00  0.00    -0.317 A  
HETATM    9  H2  UNL     1     -11.572   8.389  67.440  1.00  0.00     0.000 HD 
HETATM   10  H1  UNL     1     -10.921   9.790  66.798  1.00  0.00     0.000 HD 
HETATM   11  N   UNL     1     -11.489  11.976  67.807  1.00  0.00    -0.305 NA 
HETATM   12  C   UNL     1     -11.815  13.279  68.013  1.00  0.00    -0.355 A  
HETATM   13  N   UNL     1     -11.938  10.779  71.223  1.00  0.00    -0.261 NA 
HETATM   14  C   UNL     1     -12.243  13.692  69.285  1.00  0.00    -0.238 A  
HETATM   15  H2  UNL     1     -13.399  15.229  68.939  1.00  0.00     0.000 HD 
HETATM   16  N   UNL     1     -12.656  14.989  69.595  1.00  0.00    -0.605 NA 
HETATM   17  N   UNL     1     -12.279  12.846  70.339  1.00  0.00    -0.345 NA 
HETATM   18  H1  UNL     1     -12.966  15.288  70.519  1.00  0.00     0.000 HD 
HETATM   19  C   UNL     1     -11.919  11.574  70.158  1.00  0.00    -0.369 A  
ENDROOT
BRANCH  12  20
HETATM   20  C   UNL     1     -11.661  14.153  66.823  1.00  0.00    -0.432 A  
HETATM   21  C   UNL     1     -12.504  13.995  65.704  1.00  0.00    -0.531 A  
HETATM   22  C   UNL     1     -12.352  14.773  64.551  1.00  0.00    -0.384 A  
HETATM   23  C   UNL     1     -11.351  15.737  64.488  1.00  0.00    -0.324 A  
HETATM   24  C   UNL     1     -10.504  15.919  65.576  1.00  0.00    -0.425 A  
HETATM   25  C   UNL     1     -10.654  15.131  66.724  1.00  0.00    -0.298 A  
ENDBRANCH  12  20
TORSDOF 1
ENDMDL
MODEL       46
REMARK 921   NORMALIZED FREE ENERGY PREDICTED BY IDOCK:   -6.17 KCAL/MOL
REMARK 922        TOTAL FREE ENERGY PREDICTED BY IDOCK:   -6.71 KCAL/MOL
REMARK 923 INTER-LIGAND FREE ENERGY PREDICTED BY IDOCK:   -7.04 KCAL/MOL
REMARK 924 INTRA-LIGAND FREE ENERGY PREDICTED BY IDOCK:    0.33 KCAL/MOL
REMARK 927      BINDING AFFINITY PREDICTED BY RF-SCORE:    0.00 PKD
ROOT
HETATM    1  N   UNL     1     -10.800   5.579  69.839  1.00  0.00    -0.299 NA 
HETATM    2  H1  UNL     1     -10.208   5.509  69.011  1.00  0.00     0.000 HD 
HETATM    3  C   UNL     1     -11.183   6.838  70.247  1.00  0.00    -0.334 A  
HETATM    4  H2  UNL     1     -11.099   4.746  70.347  1.00  0.00     0.000 HD 
HETATM    5  N   UNL     1     -11.955   6.929  71.324  1.00  0.00    -0.337 NA 
HETATM    6  C   UNL     1     -12.344   8.163  71.677  1.00  0.00    -0.314 A  
HETATM    7  N   UNL     1     -13.113   8.236  72.851  1.00  0.00    -0.542 NA 
HETATM    8  C   UNL     1     -11.975   9.323  71.001  1.00  0.00    -0.300 A  
HETATM    9  H2  UNL     1     -12.617   7.790  73.624  1.00  0.00     0.000 HD 
HETATM   10  H1  UNL     1     -13.408   9.175  73.120  1.00  0.00     0.000 HD 
HETATM   11  N   UNL     1     -12.410  10.573  71.339  1.00  0.00    -0.376 NA 
HETATM   12  C   UNL     1     -11.978  11.611  70.576  1.00  0.00    -0.319 A  
HETATM   13  N   UNL     1     -10.733   7.873  69.549  1.00  0.00    -0.223 NA 
HETATM   14  C   UNL     1     -11.079  11.368  69.524  1.00  0.00    -0.211 A  
HETATM   15  H2  UNL     1     -10.083  13.039  69.334  1.00  0.00     0.000 HD 
HETATM   16  N   UNL     1     -10.527  12.361  68.714  1.00  0.00    -0.357 NA 
HETATM   17  N   UNL     1     -10.676  10.120  69.200  1.00  0.00    -0.214 NA 
HETATM   18  H1  UNL     1      -9.875  12.185  67.951  1.00  0.00     0.000 HD 
HETATM   19  C   UNL     1     -11.128   9.088  69.917  1.00  0.00    -0.142 A  
ENDROOT
BRANCH  12  20
HETATM   20  C   UNL     1     -12.541  12.932  70.948  1.00  0.00    -0.355 A  
HETATM   21  C   UNL     1     -13.504  13.038  71.973  1.00  0.00    -0.584 A  
HETATM   22  C   UNL     1     -14.087  14.263  72.313  1.00  0.00    -0.621 A  
HETATM   23  C   UNL     1     -13.717  15.422  71.637  1.00  0.00    -0.606 A  
HETATM   24  C   UNL     1     -12.769  15.352  70.623  1.00  0.00    -0.490 A  
HETATM   25  C   UNL     1     -12.197  14.121  70.278  1.00  0.00    -0.416 A  
ENDBRANCH  12  20
TORSDOF 1
ENDMDL
MODEL       47
REMARK 921   NORMALIZED FREE ENERGY PREDICTED BY IDOCK:   -6.12 KCAL/MOL
REMARK 922        TOTAL FREE ENERGY PREDICTED BY IDOCK:   -6.66 KCAL/MOL
REMARK 923 INTER-LIGAND FREE ENERGY PREDICTED BY IDOCK:   -6.50 KCAL/MOL
REMARK 924 INTRA-LIGAND FREE ENERGY PREDICTED BY IDOCK:   -0.16 KCAL/MOL
REMARK 927      BINDING AFFINITY PREDICTED BY RF-SCORE:    0.00 PKD
ROOT
HETATM    1  N   UNL     1     -11.136  16.912  68.108  1.00  0.00    -0.293 NA 
HETATM    2  H1  UNL     1     -11.611  17.628  68.658  1.00  0.00     0.000 HD 
HETATM    3  C   UNL     1     -11.233  15.607  68.537  1.00  0.00    -0.342 A  
HETATM    4  H2  UNL     1     -10.607  17.154  67.270  1.00  0.00     0.000 HD 
HETATM    5  N   UNL     1     -10.615  14.674  67.820  1.00  0.00    -0.249 NA 
HETATM    6  C   UNL     1     -10.759  13.407  68.239  1.00  0.00    -0.258 A  
HETATM    7  N   UNL     1     -10.049  12.448  67.496  1.00  0.00    -0.201 NA 
HETATM    8  C   UNL     1     -11.486  13.033  69.365  1.00  0.00    -0.261 A  
HETATM    9  H2  UNL     1      -9.060  12.695  67.457  1.00  0.00     0.000 HD 
HETATM   10  H1  UNL     1     -10.158  11.485  67.814  1.00  0.00     0.000 HD 
HETATM   11  N   UNL     1     -11.665  11.738  69.761  1.00  0.00    -0.324 NA 
HETATM   12  C   UNL     1     -12.414  11.524  70.874  1.00  0.00    -0.366 A  
HETATM   13  N   UNL     1     -11.918  15.375  69.651  1.00  0.00    -0.337 NA 
HETATM   14  C   UNL     1     -12.921  12.623  71.587  1.00  0.00    -0.299 A  
HETATM   15  H2  UNL     1     -13.090  11.979  73.425  1.00  0.00     0.000 HD 
HETATM   16  N   UNL     1     -13.653  12.523  72.771  1.00  0.00    -0.593 NA 
HETATM   17  N   UNL     1     -12.744  13.894  71.166  1.00  0.00    -0.352 NA 
HETATM   18  H1  UNL     1     -14.021  13.321  73.289  1.00  0.00     0.000 HD 
HETATM   19  C   UNL     1     -12.045  14.114  70.050  1.00  0.00    -0.346 A  
ENDROOT
BRANCH  12  20
HETATM   20  C   UNL     1     -12.632  10.096  71.211  1.00  0.00    -0.508 A  
HETATM   21  C   UNL     1     -11.537   9.250  71.487  1.00  0.00    -0.452 A  
HETATM   22  C   UNL     1     -11.708   7.889  71.763  1.00  0.00    -0.329 A  
HETATM   23  C   UNL     1     -12.985   7.336  71.773  1.00  0.00    -0.368 A  
HETATM   24  C   UNL     1     -14.085   8.143  71.507  1.00  0.00    -0.464 A  
HETATM   25  C   UNL     1     -13.908   9.502  71.221  1.00  0.00    -0.159 A  
ENDBRANCH  12  20
TORSDOF 1
ENDMDL
MODEL       48
REMARK 921   NORMALIZED FREE ENERGY PREDICTED BY IDOCK:   -6.09 KCAL/MOL
REMARK 922        TOTAL FREE ENERGY PREDICTED BY IDOCK:   -6.62 KCAL/MOL
REMARK 923 INTER-LIGAND FREE ENERGY PREDICTED BY IDOCK:   -6.45 KCAL/MOL
REMARK 924 INTRA-LIGAND FREE ENERGY PREDICTED BY IDOCK:   -0.17 KCAL/MOL
REMARK 927      BINDING AFFINITY PREDICTED BY RF-SCORE:    0.00 PKD
ROOT
HETATM    1  N   UNL     1     -11.724  13.170  67.909  1.00  0.00    -0.341 NA 
HETATM    2  H1  UNL     1     -12.665  13.550  68.008  1.00  0.00     0.000 HD 
HETATM    3  C   UNL     1     -11.364  12.130  68.737  1.00  0.00    -0.288 A  
HETATM    4  H2  UNL     1     -11.071  13.547  67.222  1.00  0.00     0.000 HD 
HETATM    5  N   UNL     1     -10.138  11.634  68.608  1.00  0.00    -0.213 NA 
HETATM    6  C   UNL     1      -9.827  10.597  69.400  1.00  0.00    -0.139 A  
HETATM    7  N   UNL     1      -8.507  10.129  69.282  1.00  0.00    -0.152 NA 
HETATM    8  C   UNL     1     -10.694  10.042  70.337  1.00  0.00    -0.307 A  
HETATM    9  H2  UNL     1      -7.849  10.894  69.431  1.00  0.00     0.000 HD 
HETATM   10  H1  UNL     1      -8.271   9.341  69.885  1.00  0.00     0.000 HD 
HETATM   11  N   UNL     1     -10.386   8.958  71.110  1.00  0.00    -0.243 NA 
HETATM   12  C   UNL     1     -11.340   8.516  71.971  1.00  0.00    -0.355 A  
HETATM   13  N   UNL     1     -12.260  11.712  69.623  1.00  0.00    -0.246 NA 
HETATM   14  C   UNL     1     -12.558   9.209  72.068  1.00  0.00    -0.390 A  
HETATM   15  H2  UNL     1     -13.175   8.865  73.890  1.00  0.00     0.000 HD 
HETATM   16  N   UNL     1     -13.584   8.879  72.955  1.00  0.00    -0.981 NA 
HETATM   17  N   UNL     1     -12.844  10.269  71.281  1.00  0.00    -0.389 NA 
HETATM   18  H1  UNL     1     -14.468   9.382  73.026  1.00  0.00     0.000 HD 
HETATM   19  C   UNL     1     -11.931  10.686  70.401  1.00  0.00    -0.346 A  
ENDROOT
BRANCH  12  20
HETATM   20  C   UNL     1     -10.974   7.294  72.729  1.00  0.00    -0.366 A  
HETATM   21  C   UNL     1     -11.649   6.078  72.497  1.00  0.00    -0.315 A  
HETATM   22  C   UNL     1     -11.358   4.922  73.229  1.00  0.00    -0.408 A  
HETATM   23  C   UNL     1     -10.376   4.950  74.215  1.00  0.00    -0.317 A  
HETATM   24  C   UNL     1      -9.692   6.134  74.467  1.00  0.00    -0.287 A  
HETATM   25  C   UNL     1      -9.994   7.291  73.739  1.00  0.00    -0.368 A  
ENDBRANCH  12  20
TORSDOF 1
ENDMDL
MODEL       49
REMARK 921   NORMALIZED FREE ENERGY PREDICTED BY IDOCK:   -6.08 KCAL/MOL
REMARK 922        TOTAL FREE ENERGY PREDICTED BY IDOCK:   -6.61 KCAL/MOL
REMARK 923 INTER-LIGAND FREE ENERGY PREDICTED BY IDOCK:   -6.40 KCAL/MOL
REMARK 924 INTRA-LIGAND FREE ENERGY PREDICTED BY IDOCK:   -0.21 KCAL/MOL
REMARK 927      BINDING AFFINITY PREDICTED BY RF-SCORE:    0.00 PKD
ROOT
HETATM    1  N   UNL     1     -12.443  14.548  63.590  1.00  0.00    -1.078 NA 
HETATM    2  H1  UNL     1     -12.914  15.362  63.986  1.00  0.00     0.000 HD 
HETATM    3  C   UNL     1     -11.928  13.618  64.466  1.00  0.00    -0.418 A  
HETATM    4  H2  UNL     1     -12.357  14.427  62.581  1.00  0.00     0.000 HD 
HETATM    5  N   UNL     1     -11.316  12.558  63.951  1.00  0.00    -0.402 NA 
HETATM    6  C   UNL     1     -10.857  11.650  64.825  1.00  0.00    -0.308 A  
HETATM    7  N   UNL     1     -10.165  10.567  64.256  1.00  0.00    -0.370 NA 
HETATM    8  C   UNL     1     -10.972  11.768  66.208  1.00  0.00    -0.300 A  
HETATM    9  H2  UNL     1      -9.402  10.907  63.671  1.00  0.00     0.000 HD 
HETATM   10  H1  UNL     1      -9.817   9.877  64.921  1.00  0.00     0.000 HD 
HETATM   11  N   UNL     1     -10.542  10.819  67.091  1.00  0.00    -0.241 NA 
HETATM   12  C   UNL     1     -10.736  11.065  68.413  1.00  0.00    -0.203 A  
HETATM   13  N   UNL     1     -12.059  13.860  65.765  1.00  0.00    -0.400 NA 
HETATM   14  C   UNL     1     -11.310  12.283  68.813  1.00  0.00    -0.289 A  
HETATM   15  H2  UNL     1     -10.597  12.598  70.605  1.00  0.00     0.000 HD 
HETATM   16  N   UNL     1     -11.503  12.665  70.141  1.00  0.00    -0.526 NA 
HETATM   17  N   UNL     1     -11.742  13.199  67.918  1.00  0.00    -0.341 NA 
HETATM   18  H1  UNL     1     -11.920  13.550  70.431  1.00  0.00     0.000 HD 
HETATM   19  C   UNL     1     -11.595  12.949  66.615  1.00  0.00    -0.372 A  
ENDROOT
BRANCH  12  20
HETATM   20  C   UNL     1     -10.314   9.967  69.318  1.00  0.00    -0.237 A  
HETATM   21  C   UNL     1      -8.948   9.658  69.481  1.00  0.00    -0.203 A  
HETATM   22  C   UNL     1      -8.524   8.599  70.291  1.00  0.00    -0.133 A  
HETATM   23  C   UNL     1      -9.459   7.820  70.966  1.00  0.00    -0.165 A  
HETATM   24  C   UNL     1     -10.813   8.100  70.827  1.00  0.00    -0.247 A  
HETATM   25  C   UNL     1     -11.234   9.154  70.007  1.00  0.00    -0.168 A  
ENDBRANCH  12  20
TORSDOF 1
ENDMDL
MODEL       50
REMARK 921   NORMALIZED FREE ENERGY PREDICTED BY IDOCK:   -6.08 KCAL/MOL
REMARK 922        TOTAL FREE ENERGY PREDICTED BY IDOCK:   -6.61 KCAL/MOL
REMARK 923 INTER-LIGAND FREE ENERGY PREDICTED BY IDOCK:   -6.39 KCAL/MOL
REMARK 924 INTRA-LIGAND FREE ENERGY PREDICTED BY IDOCK:   -0.22 KCAL/MOL
REMARK 927      BINDING AFFINITY PREDICTED BY RF-SCORE:    0.00 PKD
ROOT
HETATM    1  N   UNL     1     -10.858   6.814  73.599  1.00  0.00    -0.514 NA 
HETATM    2  H1  UNL     1      -9.958   6.343  73.504  1.00  0.00     0.000 HD 
HETATM    3  C   UNL     1     -11.118   7.872  72.756  1.00  0.00    -0.400 A  
HETATM    4  H2  UNL     1     -11.541   6.513  74.294  1.00  0.00     0.000 HD 
HETATM    5  N   UNL     1     -12.290   8.485  72.879  1.00  0.00    -0.192 NA 
HETATM    6  C   UNL     1     -12.532   9.487  72.021  1.00  0.00    -0.349 A  
HETATM    7  N   UNL     1     -13.755  10.154  72.209  1.00  0.00    -0.500 NA 
HETATM    8  C   UNL     1     -11.634   9.917  71.047  1.00  0.00    -0.389 A  
HETATM    9  H2  UNL     1     -13.827  10.490  73.170  1.00  0.00     0.000 HD 
HETATM   10  H1  UNL     1     -13.939  10.916  71.556  1.00  0.00     0.000 HD 
HETATM   11  N   UNL     1     -11.905  10.909  70.147  1.00  0.00    -0.321 NA 
HETATM   12  C   UNL     1     -10.936  11.210  69.243  1.00  0.00    -0.247 A  
HETATM   13  N   UNL     1     -10.168   8.221  71.897  1.00  0.00    -0.222 NA 
HETATM   14  C   UNL     1      -9.703  10.540  69.302  1.00  0.00    -0.196 A  
HETATM   15  H2  UNL     1      -8.421  11.805  68.542  1.00  0.00     0.000 HD 
HETATM   16  N   UNL     1      -8.621  10.808  68.462  1.00  0.00    -0.141 NA 
HETATM   17  N   UNL     1      -9.466   9.551  70.191  1.00  0.00    -0.231 NA 
HETATM   18  H1  UNL     1      -7.725  10.321  68.505  1.00  0.00     0.000 HD 
HETATM   19  C   UNL     1     -10.426   9.218  71.057  1.00  0.00    -0.314 A  
ENDROOT
BRANCH  12  20
HETATM   20  C   UNL     1     -11.315  12.244  68.248  1.00  0.00    -0.339 A  
HETATM   21  C   UNL     1     -11.483  13.588  68.640  1.00  0.00    -0.343 A  
HETATM   22  C   UNL     1     -11.885  14.576  67.734  1.00  0.00    -0.390 A  
HETATM   23  C   UNL     1     -12.127  14.244  66.404  1.00  0.00    -0.442 A  
HETATM   24  C   UNL     1     -11.969  12.928  65.986  1.00  0.00    -0.505 A  
HETATM   25  C   UNL     1     -11.577  11.941  66.899  1.00  0.00    -0.358 A  
ENDBRANCH  12  20
TORSDOF 1
ENDMDL
MODEL       51
REMARK 921   NORMALIZED FREE ENERGY PREDICTED BY IDOCK:   -6.03 KCAL/MOL
REMARK 922        TOTAL FREE ENERGY PREDICTED BY IDOCK:   -6.56 KCAL/MOL
REMARK 923 INTER-LIGAND FREE ENERGY PREDICTED BY IDOCK:   -6.35 KCAL/MOL
REMARK 924 INTRA-LIGAND FREE ENERGY PREDICTED BY IDOCK:   -0.21 KCAL/MOL
REMARK 927      BINDING AFFINITY PREDICTED BY RF-SCORE:    0.00 PKD
ROOT
HETATM    1  N   UNL     1      -8.713  20.047  69.189  1.00  0.00     0.141 NA 
HETATM    2  H1  UNL     1      -9.370  20.182  69.958  1.00  0.00     0.000 HD 
HETATM    3  C   UNL     1      -8.885  18.940  68.388  1.00  0.00    -0.344 A  
HETATM    4  H2  UNL     1      -7.955  20.708  69.020  1.00  0.00     0.000 HD 
HETATM    5  N   UNL     1      -8.030  18.764  67.387  1.00  0.00    -0.239 NA 
HETATM    6  C   UNL     1      -8.244  17.699  66.599  1.00  0.00    -0.260 A  
HETATM    7  N   UNL     1      -7.293  17.506  65.583  1.00  0.00    -0.365 NA 
HETATM    8  C   UNL     1      -9.276  16.784  66.785  1.00  0.00    -0.243 A  
HETATM    9  H2  UNL     1      -6.355  17.465  65.982  1.00  0.00     0.000 HD 
HETATM   10  H1  UNL     1      -7.455  16.696  64.984  1.00  0.00     0.000 HD 
HETATM   11  N   UNL     1      -9.515  15.726  65.954  1.00  0.00    -0.347 NA 
HETATM   12  C   UNL     1     -10.571  14.925  66.253  1.00  0.00    -0.308 A  
HETATM   13  N   UNL     1      -9.879  18.112  68.689  1.00  0.00    -0.365 NA 
HETATM   14  C   UNL     1     -11.327  15.181  67.408  1.00  0.00    -0.306 A  
HETATM   15  H2  UNL     1     -12.046  13.437  67.920  1.00  0.00     0.000 HD 
HETATM   16  N   UNL     1     -12.394  14.393  67.842  1.00  0.00    -0.599 NA 
HETATM   17  N   UNL     1     -11.081  16.243  68.206  1.00  0.00    -0.352 NA 
HETATM   18  H1  UNL     1     -12.943  14.578  68.681  1.00  0.00     0.000 HD 
HETATM   19  C   UNL     1     -10.072  17.062  67.898  1.00  0.00    -0.306 A  
ENDROOT
BRANCH  12  20
HETATM   20  C   UNL     1     -10.822  13.838  65.275  1.00  0.00    -0.326 A  
HETATM   21  C   UNL     1     -11.909  13.916  64.379  1.00  0.00    -0.456 A  
HETATM   22  C   UNL     1     -12.197  12.885  63.478  1.00  0.00    -0.595 A  
HETATM   23  C   UNL     1     -11.400  11.745  63.446  1.00  0.00    -0.437 A  
HETATM   24  C   UNL     1     -10.320  11.638  64.314  1.00  0.00    -0.371 A  
HETATM   25  C   UNL     1     -10.041  12.668  65.221  1.00  0.00    -0.271 A  
ENDBRANCH  12  20
TORSDOF 1
ENDMDL
MODEL       52
REMARK 921   NORMALIZED FREE ENERGY PREDICTED BY IDOCK:   -5.99 KCAL/MOL
REMARK 922        TOTAL FREE ENERGY PREDICTED BY IDOCK:   -6.51 KCAL/MOL
REMARK 923 INTER-LIGAND FREE ENERGY PREDICTED BY IDOCK:   -6.43 KCAL/MOL
REMARK 924 INTRA-LIGAND FREE ENERGY PREDICTED BY IDOCK:   -0.08 KCAL/MOL
REMARK 927      BINDING AFFINITY PREDICTED BY RF-SCORE:    0.00 PKD
ROOT
HETATM    1  N   UNL     1     -13.540  15.500  70.985  1.00  0.00    -0.766 NA 
HETATM    2  H1  UNL     1     -14.268  15.615  71.690  1.00  0.00     0.000 HD 
HETATM    3  C   UNL     1     -12.986  14.248  70.837  1.00  0.00    -0.329 A  
HETATM    4  H2  UNL     1     -13.233  16.284  70.410  1.00  0.00     0.000 HD 
HETATM    5  N   UNL     1     -12.038  14.097  69.919  1.00  0.00    -0.328 NA 
HETATM    6  C   UNL     1     -11.542  12.859  69.770  1.00  0.00    -0.218 A  
HETATM    7  N   UNL     1     -10.503  12.740  68.831  1.00  0.00    -0.416 NA 
HETATM    8  C   UNL     1     -11.947  11.759  70.521  1.00  0.00    -0.289 A  
HETATM    9  H2  UNL     1      -9.752  13.394  69.053  1.00  0.00     0.000 HD 
HETATM   10  H1  UNL     1     -10.126  11.799  68.718  1.00  0.00     0.000 HD 
HETATM   11  N   UNL     1     -11.470  10.493  70.335  1.00  0.00    -0.323 NA 
HETATM   12  C   UNL     1     -11.970   9.515  71.134  1.00  0.00    -0.348 A  
HETATM   13  N   UNL     1     -13.420  13.285  71.641  1.00  0.00    -0.322 NA 
HETATM   14  C   UNL     1     -12.899   9.847  72.134  1.00  0.00    -0.345 A  
HETATM   15  H2  UNL     1     -12.647   8.483  73.511  1.00  0.00     0.000 HD 
HETATM   16  N   UNL     1     -13.434   8.936  73.046  1.00  0.00    -0.952 NA 
HETATM   17  N   UNL     1     -13.367  11.105  72.288  1.00  0.00    -0.229 NA 
HETATM   18  H1  UNL     1     -14.108   9.177  73.772  1.00  0.00     0.000 HD 
HETATM   19  C   UNL     1     -12.914  12.066  71.480  1.00  0.00    -0.304 A  
ENDROOT
BRANCH  12  20
HETATM   20  C   UNL     1     -11.467   8.151  70.836  1.00  0.00    -0.288 A  
HETATM   21  C   UNL     1     -11.647   7.585  69.557  1.00  0.00     0.367 A  
HETATM   22  C   UNL     1     -11.225   6.284  69.260  1.00  0.00    -0.458 A  
HETATM   23  C   UNL     1     -10.605   5.513  70.239  1.00  0.00    -0.357 A  
HETATM   24  C   UNL     1     -10.412   6.042  71.510  1.00  0.00    -0.278 A  
HETATM   25  C   UNL     1     -10.845   7.341  71.804  1.00  0.00    -0.251 A  
ENDBRANCH  12  20
TORSDOF 1
ENDMDL
MODEL       53
REMARK 921   NORMALIZED FREE ENERGY PREDICTED BY IDOCK:   -5.97 KCAL/MOL
REMARK 922        TOTAL FREE ENERGY PREDICTED BY IDOCK:   -6.50 KCAL/MOL
REMARK 923 INTER-LIGAND FREE ENERGY PREDICTED BY IDOCK:   -6.28 KCAL/MOL
REMARK 924 INTRA-LIGAND FREE ENERGY PREDICTED BY IDOCK:   -0.21 KCAL/MOL
REMARK 927      BINDING AFFINITY PREDICTED BY RF-SCORE:    0.00 PKD
ROOT
HETATM    1  N   UNL     1     -12.252  15.837  63.905  1.00  0.00    -1.086 NA 
HETATM    2  H1  UNL     1     -12.076  15.912  62.903  1.00  0.00     0.000 HD 
HETATM    3  C   UNL     1     -11.892  14.664  64.531  1.00  0.00    -0.431 A  
HETATM    4  H2  UNL     1     -12.680  16.603  64.425  1.00  0.00     0.000 HD 
HETATM    5  N   UNL     1     -12.121  14.566  65.836  1.00  0.00    -0.324 NA 
HETATM    6  C   UNL     1     -11.726  13.428  66.427  1.00  0.00    -0.368 A  
HETATM    7  N   UNL     1     -12.030  13.328  67.795  1.00  0.00    -0.341 NA 
HETATM    8  C   UNL     1     -11.122  12.367  65.757  1.00  0.00    -0.315 A  
HETATM    9  H2  UNL     1     -13.029  13.472  67.945  1.00  0.00     0.000 HD 
HETATM   10  H1  UNL     1     -11.730  12.463  68.245  1.00  0.00     0.000 HD 
HETATM   11  N   UNL     1     -10.683  11.229  66.372  1.00  0.00    -0.270 NA 
HETATM   12  C   UNL     1     -10.097  10.285  65.591  1.00  0.00    -0.271 A  
HETATM   13  N   UNL     1     -11.365  13.704  63.781  1.00  0.00    -0.106 NA 
HETATM   14  C   UNL     1     -10.017  10.489  64.203  1.00  0.00    -0.318 A  
HETATM   15  H2  UNL     1      -9.993   8.688  63.443  1.00  0.00     0.000 HD 
HETATM   16  N   UNL     1      -9.490   9.564  63.300  1.00  0.00    -0.479 NA 
HETATM   17  N   UNL     1     -10.445  11.630  63.621  1.00  0.00    -0.384 NA 
HETATM   18  H1  UNL     1      -9.431   9.712  62.293  1.00  0.00     0.000 HD 
HETATM   19  C   UNL     1     -10.983  12.583  64.385  1.00  0.00    -0.340 A  
ENDROOT
BRANCH  12  20
HETATM   20  C   UNL     1      -9.577   9.106  66.326  1.00  0.00    -0.321 A  
HETATM   21  C   UNL     1     -10.462   8.197  66.941  1.00  0.00    -0.379 A  
HETATM   22  C   UNL     1      -9.999   7.102  67.680  1.00  0.00    -0.201 A  
HETATM   23  C   UNL     1      -8.632   6.885  67.820  1.00  0.00    -0.122 A  
HETATM   24  C   UNL     1      -7.733   7.762  67.224  1.00  0.00    -0.113 A  
HETATM   25  C   UNL     1      -8.201   8.861  66.494  1.00  0.00    -0.114 A  
ENDBRANCH  12  20
TORSDOF 1
ENDMDL
MODEL       54
REMARK 921   NORMALIZED FREE ENERGY PREDICTED BY IDOCK:   -5.96 KCAL/MOL
REMARK 922        TOTAL FREE ENERGY PREDICTED BY IDOCK:   -6.49 KCAL/MOL
REMARK 923 INTER-LIGAND FREE ENERGY PREDICTED BY IDOCK:   -6.78 KCAL/MOL
REMARK 924 INTRA-LIGAND FREE ENERGY PREDICTED BY IDOCK:    0.30 KCAL/MOL
REMARK 927      BINDING AFFINITY PREDICTED BY RF-SCORE:    0.00 PKD
ROOT
HETATM    1  N   UNL     1      -7.117  20.463  65.629  1.00  0.00    -0.466 NA 
HETATM    2  H1  UNL     1      -6.621  20.114  64.809  1.00  0.00     0.000 HD 
HETATM    3  C   UNL     1      -7.930  19.581  66.306  1.00  0.00    -0.321 A  
HETATM    4  H2  UNL     1      -7.014  21.429  65.938  1.00  0.00     0.000 HD 
HETATM    5  N   UNL     1      -8.576  20.034  67.375  1.00  0.00    -0.331 NA 
HETATM    6  C   UNL     1      -9.332  19.146  68.038  1.00  0.00    -0.324 A  
HETATM    7  N   UNL     1     -10.047  19.664  69.131  1.00  0.00    -0.609 NA 
HETATM    8  C   UNL     1      -9.483  17.814  67.661  1.00  0.00    -0.255 A  
HETATM    9  H2  UNL     1     -10.617  20.457  68.833  1.00  0.00     0.000 HD 
HETATM   10  H1  UNL     1     -10.621  18.988  69.634  1.00  0.00     0.000 HD 
HETATM   11  N   UNL     1     -10.219  16.903  68.365  1.00  0.00    -0.301 NA 
HETATM   12  C   UNL     1     -10.263  15.633  67.884  1.00  0.00    -0.239 A  
HETATM   13  N   UNL     1      -8.032  18.347  65.828  1.00  0.00    -0.493 NA 
HETATM   14  C   UNL     1      -9.607  15.326  66.680  1.00  0.00    -0.257 A  
HETATM   15  H2  UNL     1     -10.614  13.822  65.942  1.00  0.00     0.000 HD 
HETATM   16  N   UNL     1      -9.633  14.073  66.066  1.00  0.00    -0.470 NA 
HETATM   17  N   UNL     1      -8.873  16.242  66.011  1.00  0.00    -0.399 NA 
HETATM   18  H1  UNL     1      -9.157  13.851  65.192  1.00  0.00     0.000 HD 
HETATM   19  C   UNL     1      -8.787  17.482  66.497  1.00  0.00    -0.266 A  
ENDROOT
BRANCH  12  20
HETATM   20  C   UNL     1     -11.017  14.674  68.729  1.00  0.00    -0.268 A  
HETATM   21  C   UNL     1     -11.779  15.130  69.824  1.00  0.00    -0.347 A  
HETATM   22  C   UNL     1     -12.463  14.246  70.666  1.00  0.00    -0.428 A  
HETATM   23  C   UNL     1     -12.405  12.876  70.432  1.00  0.00    -0.333 A  
HETATM   24  C   UNL     1     -11.663  12.394  69.359  1.00  0.00    -0.384 A  
HETATM   25  C   UNL     1     -10.973  13.282  68.525  1.00  0.00    -0.291 A  
ENDBRANCH  12  20
TORSDOF 1
ENDMDL
MODEL       55
REMARK 921   NORMALIZED FREE ENERGY PREDICTED BY IDOCK:   -5.94 KCAL/MOL
REMARK 922        TOTAL FREE ENERGY PREDICTED BY IDOCK:   -6.46 KCAL/MOL
REMARK 923 INTER-LIGAND FREE ENERGY PREDICTED BY IDOCK:   -6.56 KCAL/MOL
REMARK 924 INTRA-LIGAND FREE ENERGY PREDICTED BY IDOCK:    0.10 KCAL/MOL
REMARK 927      BINDING AFFINITY PREDICTED BY RF-SCORE:    0.00 PKD
ROOT
HETATM    1  N   UNL     1      -9.868   9.914  64.412  1.00  0.00    -0.404 NA 
HETATM    2  H1  UNL     1      -9.674  10.564  63.650  1.00  0.00     0.000 HD 
HETATM    3  C   UNL     1     -10.205  10.446  65.636  1.00  0.00    -0.238 A  
HETATM    4  H2  UNL     1      -9.813   8.905  64.272  1.00  0.00     0.000 HD 
HETATM    5  N   UNL     1     -10.458   9.599  66.629  1.00  0.00    -0.197 NA 
HETATM    6  C   UNL     1     -10.821  10.144  67.800  1.00  0.00    -0.292 A  
HETATM    7  N   UNL     1     -11.029   9.229  68.846  1.00  0.00    -0.431 NA 
HETATM    8  C   UNL     1     -10.925  11.513  68.027  1.00  0.00    -0.231 A  
HETATM    9  H2  UNL     1     -10.201   8.645  68.972  1.00  0.00     0.000 HD 
HETATM   10  H1  UNL     1     -11.304   9.643  69.737  1.00  0.00     0.000 HD 
HETATM   11  N   UNL     1     -11.337  12.060  69.209  1.00  0.00    -0.265 NA 
HETATM   12  C   UNL     1     -11.405  13.415  69.278  1.00  0.00    -0.257 A  
HETATM   13  N   UNL     1     -10.229  11.769  65.746  1.00  0.00    -0.230 NA 
HETATM   14  C   UNL     1     -11.007  14.185  68.173  1.00  0.00    -0.249 A  
HETATM   15  H2  UNL     1     -10.411  15.879  68.944  1.00  0.00     0.000 HD 
HETATM   16  N   UNL     1     -10.981  15.580  68.153  1.00  0.00    -0.299 NA 
HETATM   17  N   UNL     1     -10.618  13.619  67.009  1.00  0.00    -0.272 NA 
HETATM   18  H1  UNL     1     -10.692  16.139  67.350  1.00  0.00     0.000 HD 
HETATM   19  C   UNL     1     -10.588  12.288  66.916  1.00  0.00    -0.224 A  
ENDROOT
BRANCH  12  20
HETATM   20  C   UNL     1     -11.928  13.946  70.562  1.00  0.00    -0.384 A  
HETATM   21  C   UNL     1     -13.014  13.319  71.207  1.00  0.00    -0.353 A  
HETATM   22  C   UNL     1     -13.558  13.824  72.393  1.00  0.00    -0.690 A  
HETATM   23  C   UNL     1     -13.025  14.973  72.971  1.00  0.00    -0.590 A  
HETATM   24  C   UNL     1     -11.952  15.613  72.360  1.00  0.00    -0.569 A  
HETATM   25  C   UNL     1     -11.418  15.110  71.168  1.00  0.00    -0.387 A  
ENDBRANCH  12  20
TORSDOF 1
ENDMDL
MODEL       56
REMARK 921   NORMALIZED FREE ENERGY PREDICTED BY IDOCK:   -5.93 KCAL/MOL
REMARK 922        TOTAL FREE ENERGY PREDICTED BY IDOCK:   -6.46 KCAL/MOL
REMARK 923 INTER-LIGAND FREE ENERGY PREDICTED BY IDOCK:   -6.74 KCAL/MOL
REMARK 924 INTRA-LIGAND FREE ENERGY PREDICTED BY IDOCK:    0.29 KCAL/MOL
REMARK 927      BINDING AFFINITY PREDICTED BY RF-SCORE:    0.00 PKD
ROOT
HETATM    1  N   UNL     1      -9.222   8.690  64.994  1.00  0.00    -0.417 NA 
HETATM    2  H1  UNL     1      -8.930   7.804  65.406  1.00  0.00     0.000 HD 
HETATM    3  C   UNL     1      -9.881   9.586  65.806  1.00  0.00    -0.293 A  
HETATM    4  H2  UNL     1      -9.034   8.905  64.015  1.00  0.00     0.000 HD 
HETATM    5  N   UNL     1     -10.262  10.741  65.270  1.00  0.00    -0.284 NA 
HETATM    6  C   UNL     1     -10.867  11.610  66.092  1.00  0.00    -0.294 A  
HETATM    7  N   UNL     1     -11.309  12.799  65.487  1.00  0.00    -0.301 NA 
HETATM    8  C   UNL     1     -11.126  11.364  67.438  1.00  0.00    -0.289 A  
HETATM    9  H2  UNL     1     -11.915  12.585  64.694  1.00  0.00     0.000 HD 
HETATM   10  H1  UNL     1     -11.769  13.460  66.113  1.00  0.00     0.000 HD 
HETATM   11  N   UNL     1     -11.703  12.271  68.281  1.00  0.00    -0.324 NA 
HETATM   12  C   UNL     1     -11.878  11.895  69.575  1.00  0.00    -0.331 A  
HETATM   13  N   UNL     1     -10.111   9.223  67.062  1.00  0.00    -0.227 NA 
HETATM   14  C   UNL     1     -11.515  10.597  69.973  1.00  0.00    -0.325 A  
HETATM   15  H2  UNL     1     -12.691  10.200  71.483  1.00  0.00     0.000 HD 
HETATM   16  N   UNL     1     -11.702  10.086  71.258  1.00  0.00    -0.376 NA 
HETATM   17  N   UNL     1     -10.931   9.724  69.123  1.00  0.00    -0.207 NA 
HETATM   18  H1  UNL     1     -11.439   9.145  71.547  1.00  0.00     0.000 HD 
HETATM   19  C   UNL     1     -10.715  10.098  67.860  1.00  0.00    -0.269 A  
ENDROOT
BRANCH  12  20
HETATM   20  C   UNL     1     -12.443  12.946  70.456  1.00  0.00    -0.294 A  
HETATM   21  C   UNL     1     -12.398  14.303  70.073  1.00  0.00    -0.403 A  
HETATM   22  C   UNL     1     -12.879  15.320  70.904  1.00  0.00    -0.511 A  
HETATM   23  C   UNL     1     -13.426  15.006  72.145  1.00  0.00    -0.508 A  
HETATM   24  C   UNL     1     -13.486  13.678  72.551  1.00  0.00    -0.675 A  
HETATM   25  C   UNL     1     -12.993  12.664  71.721  1.00  0.00    -0.417 A  
ENDBRANCH  12  20
TORSDOF 1
ENDMDL
MODEL       57
REMARK 921   NORMALIZED FREE ENERGY PREDICTED BY IDOCK:   -5.90 KCAL/MOL
REMARK 922        TOTAL FREE ENERGY PREDICTED BY IDOCK:   -6.43 KCAL/MOL
REMARK 923 INTER-LIGAND FREE ENERGY PREDICTED BY IDOCK:   -6.18 KCAL/MOL
REMARK 924 INTRA-LIGAND FREE ENERGY PREDICTED BY IDOCK:   -0.25 KCAL/MOL
REMARK 927      BINDING AFFINITY PREDICTED BY RF-SCORE:    0.00 PKD
ROOT
HETATM    1  N   UNL     1     -12.196  13.929  65.882  1.00  0.00    -0.439 NA 
HETATM    2  H1  UNL     1     -12.082  13.494  64.966  1.00  0.00     0.000 HD 
HETATM    3  C   UNL     1     -11.987  13.143  66.993  1.00  0.00    -0.355 A  
HETATM    4  H2  UNL     1     -12.455  14.911  65.971  1.00  0.00     0.000 HD 
HETATM    5  N   UNL     1     -12.135  13.710  68.186  1.00  0.00    -0.339 NA 
HETATM    6  C   UNL     1     -11.888  12.932  69.251  1.00  0.00    -0.309 A  
HETATM    7  N   UNL     1     -12.106  13.540  70.499  1.00  0.00    -0.445 NA 
HETATM    8  C   UNL     1     -11.514  11.593  69.171  1.00  0.00    -0.300 A  
HETATM    9  H2  UNL     1     -13.055  13.911  70.548  1.00  0.00     0.000 HD 
HETATM   10  H1  UNL     1     -11.919  12.948  71.309  1.00  0.00     0.000 HD 
HETATM   11  N   UNL     1     -11.222  10.819  70.259  1.00  0.00    -0.285 NA 
HETATM   12  C   UNL     1     -10.855   9.531  70.026  1.00  0.00    -0.252 A  
HETATM   13  N   UNL     1     -11.677  11.868  66.795  1.00  0.00    -0.590 NA 
HETATM   14  C   UNL     1     -10.842   9.044  68.708  1.00  0.00    -0.030 A  
HETATM   15  H2  UNL     1     -11.165   7.125  68.892  1.00  0.00     0.000 HD 
HETATM   16  N   UNL     1     -10.537   7.728  68.358  1.00  0.00    -0.355 NA 
HETATM   17  N   UNL     1     -11.120   9.835  67.649  1.00  0.00    -0.166 NA 
HETATM   18  H1  UNL     1     -10.528   7.374  67.402  1.00  0.00     0.000 HD 
HETATM   19  C   UNL     1     -11.440  11.113  67.863  1.00  0.00    -0.284 A  
ENDROOT
BRANCH  12  20
HETATM   20  C   UNL     1     -10.481   8.763  71.239  1.00  0.00    -0.326 A  
HETATM   21  C   UNL     1     -11.457   8.044  71.961  1.00  0.00    -0.364 A  
HETATM   22  C   UNL     1     -11.143   7.349  73.134  1.00  0.00    -0.357 A  
HETATM   23  C   UNL     1      -9.837   7.351  73.616  1.00  0.00    -0.365 A  
HETATM   24  C   UNL     1      -8.852   8.048  72.926  1.00  0.00    -0.287 A  
HETATM   25  C   UNL     1      -9.173   8.751  71.758  1.00  0.00    -0.332 A  
ENDBRANCH  12  20
TORSDOF 1
ENDMDL
MODEL       58
REMARK 921   NORMALIZED FREE ENERGY PREDICTED BY IDOCK:   -5.84 KCAL/MOL
REMARK 922        TOTAL FREE ENERGY PREDICTED BY IDOCK:   -6.37 KCAL/MOL
REMARK 923 INTER-LIGAND FREE ENERGY PREDICTED BY IDOCK:   -6.26 KCAL/MOL
REMARK 924 INTRA-LIGAND FREE ENERGY PREDICTED BY IDOCK:   -0.10 KCAL/MOL
REMARK 927      BINDING AFFINITY PREDICTED BY RF-SCORE:    0.00 PKD
ROOT
HETATM    1  N   UNL     1     -10.854   8.330  68.077  1.00  0.00    -0.467 NA 
HETATM    2  H1  UNL     1     -11.699   7.962  67.640  1.00  0.00     0.000 HD 
HETATM    3  C   UNL     1     -10.601   9.677  67.947  1.00  0.00    -0.255 A  
HETATM    4  H2  UNL     1     -10.219   7.721  68.593  1.00  0.00     0.000 HD 
HETATM    5  N   UNL     1      -9.501  10.156  68.517  1.00  0.00    -0.153 NA 
HETATM    6  C   UNL     1      -9.298  11.478  68.407  1.00  0.00    -0.194 A  
HETATM    7  N   UNL     1      -8.100  11.949  68.970  1.00  0.00    -0.358 NA 
HETATM    8  C   UNL     1     -10.150  12.346  67.729  1.00  0.00    -0.203 A  
HETATM    9  H2  UNL     1      -7.306  11.439  68.583  1.00  0.00     0.000 HD 
HETATM   10  H1  UNL     1      -7.946  12.954  68.886  1.00  0.00     0.000 HD 
HETATM   11  N   UNL     1      -9.962  13.697  67.658  1.00  0.00    -0.234 NA 
HETATM   12  C   UNL     1     -10.886  14.420  66.974  1.00  0.00    -0.297 A  
HETATM   13  N   UNL     1     -11.462  10.399  67.239  1.00  0.00    -0.212 NA 
HETATM   14  C   UNL     1     -11.948  13.757  66.336  1.00  0.00    -0.438 A  
HETATM   15  H2  UNL     1     -12.428  14.923  64.843  1.00  0.00     0.000 HD 
HETATM   16  N   UNL     1     -12.920  14.391  65.561  1.00  0.00    -0.501 NA 
HETATM   17  N   UNL     1     -12.121  12.421  66.434  1.00  0.00    -0.614 NA 
HETATM   18  H1  UNL     1     -13.691  13.910  65.098  1.00  0.00     0.000 HD 
HETATM   19  C   UNL     1     -11.242  11.706  67.140  1.00  0.00    -0.309 A  
ENDROOT
BRANCH  12  20
HETATM   20  C   UNL     1     -10.666  15.887  66.993  1.00  0.00    -0.292 A  
HETATM   21  C   UNL     1     -10.661  16.595  68.213  1.00  0.00    -0.338 A  
HETATM   22  C   UNL     1     -10.503  17.984  68.259  1.00  0.00    -0.355 A  
HETATM   23  C   UNL     1     -10.340  18.706  67.080  1.00  0.00    -0.445 A  
HETATM   24  C   UNL     1     -10.339  18.038  65.861  1.00  0.00    -0.274 A  
HETATM   25  C   UNL     1     -10.508  16.648  65.820  1.00  0.00    -0.324 A  
ENDBRANCH  12  20
TORSDOF 1
ENDMDL
MODEL       59
REMARK 921   NORMALIZED FREE ENERGY PREDICTED BY IDOCK:   -5.79 KCAL/MOL
REMARK 922        TOTAL FREE ENERGY PREDICTED BY IDOCK:   -6.30 KCAL/MOL
REMARK 923 INTER-LIGAND FREE ENERGY PREDICTED BY IDOCK:   -6.42 KCAL/MOL
REMARK 924 INTRA-LIGAND FREE ENERGY PREDICTED BY IDOCK:    0.12 KCAL/MOL
REMARK 927      BINDING AFFINITY PREDICTED BY RF-SCORE:    0.00 PKD
ROOT
HETATM    1  N   UNL     1     -11.664   5.854  72.624  1.00  0.00    -0.491 NA 
HETATM    2  H1  UNL     1     -12.230   5.809  73.471  1.00  0.00     0.000 HD 
HETATM    3  C   UNL     1     -11.633   7.047  71.937  1.00  0.00    -0.284 A  
HETATM    4  H2  UNL     1     -11.140   5.042  72.296  1.00  0.00     0.000 HD 
HETATM    5  N   UNL     1     -10.896   7.105  70.834  1.00  0.00    -0.239 NA 
HETATM    6  C   UNL     1     -10.853   8.290  70.206  1.00  0.00    -0.240 A  
HETATM    7  N   UNL     1     -10.112   8.308  69.012  1.00  0.00    -0.197 NA 
HETATM    8  C   UNL     1     -11.539   9.425  70.630  1.00  0.00    -0.269 A  
HETATM    9  H2  UNL     1     -10.452   7.586  68.376  1.00  0.00     0.000 HD 
HETATM   10  H1  UNL     1     -10.080   9.209  68.535  1.00  0.00     0.000 HD 
HETATM   11  N   UNL     1     -11.456  10.640  70.011  1.00  0.00    -0.299 NA 
HETATM   12  C   UNL     1     -12.170  11.663  70.550  1.00  0.00    -0.361 A  
HETATM   13  N   UNL     1     -12.363   8.049  72.413  1.00  0.00    -0.290 NA 
HETATM   14  C   UNL     1     -12.988  11.423  71.666  1.00  0.00    -0.418 A  
HETATM   15  H2  UNL     1     -14.407  12.760  71.532  1.00  0.00     0.000 HD 
HETATM   16  N   UNL     1     -13.806  12.382  72.265  1.00  0.00    -0.387 NA 
HETATM   17  N   UNL     1     -13.040  10.215  72.270  1.00  0.00    -0.349 NA 
HETATM   18  H1  UNL     1     -14.399  12.208  73.075  1.00  0.00     0.000 HD 
HETATM   19  C   UNL     1     -12.309   9.213  71.775  1.00  0.00    -0.372 A  
ENDROOT
BRANCH  12  20
HETATM   20  C   UNL     1     -11.984  12.972  69.877  1.00  0.00    -0.381 A  
HETATM   21  C   UNL     1     -11.720  13.036  68.493  1.00  0.00    -0.377 A  
HETATM   22  C   UNL     1     -11.494  14.253  67.841  1.00  0.00    -0.341 A  
HETATM   23  C   UNL     1     -11.529  15.445  68.558  1.00  0.00    -0.360 A  
HETATM   24  C   UNL     1     -11.788  15.416  69.923  1.00  0.00    -0.373 A  
HETATM   25  C   UNL     1     -12.004  14.195  70.574  1.00  0.00    -0.393 A  
ENDBRANCH  12  20
TORSDOF 1
ENDMDL
MODEL       60
REMARK 921   NORMALIZED FREE ENERGY PREDICTED BY IDOCK:   -5.76 KCAL/MOL
REMARK 922        TOTAL FREE ENERGY PREDICTED BY IDOCK:   -6.28 KCAL/MOL
REMARK 923 INTER-LIGAND FREE ENERGY PREDICTED BY IDOCK:   -6.15 KCAL/MOL
REMARK 924 INTRA-LIGAND FREE ENERGY PREDICTED BY IDOCK:   -0.13 KCAL/MOL
REMARK 927      BINDING AFFINITY PREDICTED BY RF-SCORE:    0.00 PKD
ROOT
HETATM    1  N   UNL     1      -9.589   8.141  72.957  1.00  0.00    -0.278 NA 
HETATM    2  H1  UNL     1      -8.583   7.999  73.045  1.00  0.00     0.000 HD 
HETATM    3  C   UNL     1     -10.044   8.835  71.858  1.00  0.00    -0.339 A  
HETATM    4  H2  UNL     1     -10.236   7.780  73.659  1.00  0.00     0.000 HD 
HETATM    5  N   UNL     1     -11.355   9.018  71.743  1.00  0.00    -0.357 NA 
HETATM    6  C   UNL     1     -11.773   9.664  70.645  1.00  0.00    -0.280 A  
HETATM    7  N   UNL     1     -13.158   9.894  70.576  1.00  0.00    -0.586 NA 
HETATM    8  C   UNL     1     -10.925  10.155  69.655  1.00  0.00    -0.264 A  
HETATM    9  H2  UNL     1     -13.475  10.384  71.413  1.00  0.00     0.000 HD 
HETATM   10  H1  UNL     1     -13.476  10.385  69.741  1.00  0.00     0.000 HD 
HETATM   11  N   UNL     1     -11.360  10.773  68.517  1.00  0.00    -0.279 NA 
HETATM   12  C   UNL     1     -10.415  11.186  67.633  1.00  0.00    -0.196 A  
HETATM   13  N   UNL     1      -9.138   9.294  71.003  1.00  0.00    -0.234 NA 
HETATM   14  C   UNL     1      -9.056  11.011  67.941  1.00  0.00    -0.147 A  
HETATM   15  H2  UNL     1      -8.145  12.443  66.972  1.00  0.00     0.000 HD 
HETATM   16  N   UNL     1      -8.003  11.446  67.135  1.00  0.00    -0.148 NA 
HETATM   17  N   UNL     1      -8.652  10.382  69.066  1.00  0.00    -0.148 NA 
HETATM   18  H1  UNL     1      -7.017  11.319  67.359  1.00  0.00     0.000 HD 
HETATM   19  C   UNL     1      -9.573   9.934  69.923  1.00  0.00    -0.227 A  
ENDROOT
BRANCH  12  20
HETATM   20  C   UNL     1     -10.952  11.784  66.385  1.00  0.00    -0.341 A  
HETATM   21  C   UNL     1     -11.821  12.893  66.439  1.00  0.00    -0.478 A  
HETATM   22  C   UNL     1     -12.379  13.449  65.282  1.00  0.00    -0.513 A  
HETATM   23  C   UNL     1     -12.078  12.911  64.035  1.00  0.00    -0.526 A  
HETATM   24  C   UNL     1     -11.222  11.818  63.948  1.00  0.00    -0.493 A  
HETATM   25  C   UNL     1     -10.675  11.259  65.109  1.00  0.00    -0.312 A  
ENDBRANCH  12  20
TORSDOF 1
ENDMDL
MODEL       61
REMARK 921   NORMALIZED FREE ENERGY PREDICTED BY IDOCK:   -5.76 KCAL/MOL
REMARK 922        TOTAL FREE ENERGY PREDICTED BY IDOCK:   -6.27 KCAL/MOL
REMARK 923 INTER-LIGAND FREE ENERGY PREDICTED BY IDOCK:   -6.04 KCAL/MOL
REMARK 924 INTRA-LIGAND FREE ENERGY PREDICTED BY IDOCK:   -0.23 KCAL/MOL
REMARK 927      BINDING AFFINITY PREDICTED BY RF-SCORE:    0.00 PKD
ROOT
HETATM    1  N   UNL     1     -11.868  13.305  67.258  1.00  0.00    -0.372 NA 
HETATM    2  H1  UNL     1     -12.829  13.565  67.483  1.00  0.00     0.000 HD 
HETATM    3  C   UNL     1     -10.902  14.281  67.357  1.00  0.00    -0.285 A  
HETATM    4  H2  UNL     1     -11.632  12.355  66.970  1.00  0.00     0.000 HD 
HETATM    5  N   UNL     1      -9.651  13.942  67.064  1.00  0.00    -0.245 NA 
HETATM    6  C   UNL     1      -8.724  14.902  67.205  1.00  0.00    -0.219 A  
HETATM    7  N   UNL     1      -7.419  14.533  66.836  1.00  0.00    -0.292 NA 
HETATM    8  C   UNL     1      -9.002  16.204  67.613  1.00  0.00    -0.191 A  
HETATM    9  H2  UNL     1      -7.412  14.176  65.880  1.00  0.00     0.000 HD 
HETATM   10  H1  UNL     1      -6.715  15.263  66.943  1.00  0.00     0.000 HD 
HETATM   11  N   UNL     1      -8.048  17.164  67.797  1.00  0.00    -0.190 NA 
HETATM   12  C   UNL     1      -8.467  18.387  68.214  1.00  0.00    -0.303 A  
HETATM   13  N   UNL     1     -11.292  15.499  67.713  1.00  0.00    -0.317 NA 
HETATM   14  C   UNL     1      -9.841  18.625  68.385  1.00  0.00    -0.384 A  
HETATM   15  H2  UNL     1     -10.048  20.545  68.084  1.00  0.00     0.000 HD 
HETATM   16  N   UNL     1     -10.387  19.855  68.754  1.00  0.00    -0.567 NA 
HETATM   17  N   UNL     1     -10.764  17.654  68.212  1.00  0.00    -0.331 NA 
HETATM   18  H1  UNL     1     -11.385  20.028  68.879  1.00  0.00     0.000 HD 
HETATM   19  C   UNL     1     -10.359  16.436  67.844  1.00  0.00    -0.286 A  
ENDROOT
BRANCH  12  20
HETATM   20  C   UNL     1      -7.380  19.365  68.465  1.00  0.00    -0.368 A  
HETATM   21  C   UNL     1      -7.041  20.326  67.490  1.00  0.00    -0.326 A  
HETATM   22  C   UNL     1      -5.990  21.230  67.679  1.00  0.00    -0.423 A  
HETATM   23  C   UNL     1      -5.249  21.199  68.856  1.00  0.00    -0.291 A  
HETATM   24  C   UNL     1      -5.558  20.264  69.838  1.00  0.00    -0.342 A  
HETATM   25  C   UNL     1      -6.604  19.355  69.639  1.00  0.00    -0.307 A  
ENDBRANCH  12  20
TORSDOF 1
ENDMDL
MODEL       62
REMARK 921   NORMALIZED FREE ENERGY PREDICTED BY IDOCK:   -5.76 KCAL/MOL
REMARK 922        TOTAL FREE ENERGY PREDICTED BY IDOCK:   -6.27 KCAL/MOL
REMARK 923 INTER-LIGAND FREE ENERGY PREDICTED BY IDOCK:   -6.20 KCAL/MOL
REMARK 924 INTRA-LIGAND FREE ENERGY PREDICTED BY IDOCK:   -0.07 KCAL/MOL
REMARK 927      BINDING AFFINITY PREDICTED BY RF-SCORE:    0.00 PKD
ROOT
HETATM    1  N   UNL     1     -10.589  18.886  66.120  1.00  0.00    -0.443 NA 
HETATM    2  H1  UNL     1     -10.887  19.226  65.205  1.00  0.00     0.000 HD 
HETATM    3  C   UNL     1     -10.461  17.525  66.285  1.00  0.00    -0.283 A  
HETATM    4  H2  UNL     1     -10.391  19.532  66.884  1.00  0.00     0.000 HD 
HETATM    5  N   UNL     1     -10.071  17.082  67.476  1.00  0.00    -0.285 NA 
HETATM    6  C   UNL     1      -9.919  15.755  67.599  1.00  0.00    -0.239 A  
HETATM    7  N   UNL     1      -9.560  15.310  68.882  1.00  0.00    -0.209 NA 
HETATM    8  C   UNL     1     -10.160  14.842  66.575  1.00  0.00    -0.271 A  
HETATM    9  H2  UNL     1     -10.230  15.651  69.572  1.00  0.00     0.000 HD 
HETATM   10  H1  UNL     1      -9.444  14.301  68.975  1.00  0.00     0.000 HD 
HETATM   11  N   UNL     1      -9.960  13.496  66.693  1.00  0.00    -0.274 NA 
HETATM   12  C   UNL     1     -10.223  12.729  65.603  1.00  0.00    -0.279 A  
HETATM   13  N   UNL     1     -10.761  16.749  65.251  1.00  0.00    -0.596 NA 
HETATM   14  C   UNL     1     -10.729  13.332  64.439  1.00  0.00    -0.415 A  
HETATM   15  H2  UNL     1     -11.758  11.921  63.562  1.00  0.00     0.000 HD 
HETATM   16  N   UNL     1     -11.087  12.637  63.283  1.00  0.00    -0.701 NA 
HETATM   17  N   UNL     1     -10.902  14.669  64.343  1.00  0.00    -0.159 NA 
HETATM   18  H1  UNL     1     -11.454  13.075  62.439  1.00  0.00     0.000 HD 
HETATM   19  C   UNL     1     -10.606  15.437  65.394  1.00  0.00    -0.410 A  
ENDROOT
BRANCH  12  20
HETATM   20  C   UNL     1      -9.919  11.287  65.770  1.00  0.00    -0.281 A  
HETATM   21  C   UNL     1      -9.049  10.629  64.876  1.00  0.00    -0.231 A  
HETATM   22  C   UNL     1      -8.780   9.260  64.981  1.00  0.00    -0.221 A  
HETATM   23  C   UNL     1      -9.375   8.509  65.990  1.00  0.00    -0.266 A  
HETATM   24  C   UNL     1     -10.237   9.127  66.888  1.00  0.00    -0.336 A  
HETATM   25  C   UNL     1     -10.510  10.496  66.773  1.00  0.00    -0.302 A  
ENDBRANCH  12  20
TORSDOF 1
ENDMDL
MODEL       63
REMARK 921   NORMALIZED FREE ENERGY PREDICTED BY IDOCK:   -5.72 KCAL/MOL
REMARK 922        TOTAL FREE ENERGY PREDICTED BY IDOCK:   -6.23 KCAL/MOL
REMARK 923 INTER-LIGAND FREE ENERGY PREDICTED BY IDOCK:   -6.07 KCAL/MOL
REMARK 924 INTRA-LIGAND FREE ENERGY PREDICTED BY IDOCK:   -0.16 KCAL/MOL
REMARK 927      BINDING AFFINITY PREDICTED BY RF-SCORE:    0.00 PKD
ROOT
HETATM    1  N   UNL     1     -13.887  13.281  72.184  1.00  0.00    -0.498 NA 
HETATM    2  H1  UNL     1     -14.538  13.074  72.942  1.00  0.00     0.000 HD 
HETATM    3  C   UNL     1     -13.158  12.234  71.664  1.00  0.00    -0.306 A  
HETATM    4  H2  UNL     1     -13.781  14.229  71.823  1.00  0.00     0.000 HD 
HETATM    5  N   UNL     1     -12.311  12.503  70.677  1.00  0.00    -0.337 NA 
HETATM    6  C   UNL     1     -11.642  11.459  70.164  1.00  0.00    -0.280 A  
HETATM    7  N   UNL     1     -10.713  11.780  69.159  1.00  0.00    -0.382 NA 
HETATM    8  C   UNL     1     -11.773  10.149  70.615  1.00  0.00    -0.338 A  
HETATM    9  H2  UNL     1     -10.057  12.484  69.499  1.00  0.00     0.000 HD 
HETATM   10  H1  UNL     1     -10.204  10.986  68.770  1.00  0.00     0.000 HD 
HETATM   11  N   UNL     1     -11.121   9.084  70.059  1.00  0.00    -0.220 NA 
HETATM   12  C   UNL     1     -11.360   7.859  70.596  1.00  0.00    -0.259 A  
HETATM   13  N   UNL     1     -13.334  11.034  72.205  1.00  0.00    -0.357 NA 
HETATM   14  C   UNL     1     -12.208   7.745  71.709  1.00  0.00    -0.306 A  
HETATM   15  H2  UNL     1     -11.581   6.147  72.643  1.00  0.00     0.000 HD 
HETATM   16  N   UNL     1     -12.480   6.549  72.374  1.00  0.00    -0.538 NA 
HETATM   17  N   UNL     1     -12.854   8.812  72.230  1.00  0.00    -0.393 NA 
HETATM   18  H1  UNL     1     -13.096   6.466  73.182  1.00  0.00     0.000 HD 
HETATM   19  C   UNL     1     -12.660  10.014  71.684  1.00  0.00    -0.427 A  
ENDROOT
BRANCH  12  20
HETATM   20  C   UNL     1     -10.680   6.735  69.905  1.00  0.00    -0.290 A  
HETATM   21  C   UNL     1     -11.051   6.371  68.594  1.00  0.00    -0.393 A  
HETATM   22  C   UNL     1     -10.460   5.287  67.935  1.00  0.00    -0.154 A  
HETATM   23  C   UNL     1      -9.476   4.537  68.572  1.00  0.00    -0.213 A  
HETATM   24  C   UNL     1      -9.087   4.871  69.864  1.00  0.00    -0.164 A  
HETATM   25  C   UNL     1      -9.688   5.951  70.523  1.00  0.00    -0.217 A  
ENDBRANCH  12  20
TORSDOF 1
ENDMDL
MODEL       64
REMARK 921   NORMALIZED FREE ENERGY PREDICTED BY IDOCK:   -5.71 KCAL/MOL
REMARK 922        TOTAL FREE ENERGY PREDICTED BY IDOCK:   -6.23 KCAL/MOL
REMARK 923 INTER-LIGAND FREE ENERGY PREDICTED BY IDOCK:   -5.98 KCAL/MOL
REMARK 924 INTRA-LIGAND FREE ENERGY PREDICTED BY IDOCK:   -0.25 KCAL/MOL
REMARK 927      BINDING AFFINITY PREDICTED BY RF-SCORE:    0.00 PKD
ROOT
HETATM    1  N   UNL     1     -10.263  13.609  64.288  1.00  0.00    -0.753 NA 
HETATM    2  H1  UNL     1     -10.131  13.005  63.477  1.00  0.00     0.000 HD 
HETATM    3  C   UNL     1     -10.437  13.005  65.513  1.00  0.00    -0.285 A  
HETATM    4  H2  UNL     1     -10.264  14.625  64.196  1.00  0.00     0.000 HD 
HETATM    5  N   UNL     1     -10.607  13.791  66.571  1.00  0.00    -0.277 NA 
HETATM    6  C   UNL     1     -10.737  13.177  67.756  1.00  0.00    -0.240 A  
HETATM    7  N   UNL     1     -10.971  14.029  68.849  1.00  0.00    -0.254 NA 
HETATM    8  C   UNL     1     -10.721  11.795  67.928  1.00  0.00    -0.204 A  
HETATM    9  H2  UNL     1     -11.785  14.617  68.668  1.00  0.00     0.000 HD 
HETATM   10  H1  UNL     1     -11.070  13.562  69.751  1.00  0.00     0.000 HD 
HETATM   11  N   UNL     1     -10.809  11.178  69.143  1.00  0.00    -0.227 NA 
HETATM   12  C   UNL     1     -10.764   9.820  69.156  1.00  0.00    -0.221 A  
HETATM   13  N   UNL     1     -10.448  11.678  65.548  1.00  0.00    -0.264 NA 
HETATM   14  C   UNL     1     -10.683   9.119  67.942  1.00  0.00    -0.162 A  
HETATM   15  H2  UNL     1     -11.523   7.394  68.313  1.00  0.00     0.000 HD 
HETATM   16  N   UNL     1     -10.687   7.728  67.833  1.00  0.00    -0.442 NA 
HETATM   17  N   UNL     1     -10.580   9.754  66.753  1.00  0.00    -0.178 NA 
HETATM   18  H1  UNL     1     -10.628   7.219  66.952  1.00  0.00     0.000 HD 
HETATM   19  C   UNL     1     -10.581  11.089  66.732  1.00  0.00    -0.266 A  
ENDROOT
BRANCH  12  20
HETATM   20  C   UNL     1     -10.792   9.211  70.509  1.00  0.00    -0.306 A  
HETATM   21  C   UNL     1      -9.592   8.853  71.159  1.00  0.00    -0.342 A  
HETATM   22  C   UNL     1      -9.590   8.235  72.414  1.00  0.00    -0.364 A  
HETATM   23  C   UNL     1     -10.793   7.960  73.058  1.00  0.00    -0.408 A  
HETATM   24  C   UNL     1     -11.992   8.302  72.445  1.00  0.00    -0.447 A  
HETATM   25  C   UNL     1     -11.990   8.911  71.184  1.00  0.00    -0.344 A  
ENDBRANCH  12  20
TORSDOF 1
ENDMDL
MODEL       65
REMARK 921   NORMALIZED FREE ENERGY PREDICTED BY IDOCK:   -5.71 KCAL/MOL
REMARK 922        TOTAL FREE ENERGY PREDICTED BY IDOCK:   -6.22 KCAL/MOL
REMARK 923 INTER-LIGAND FREE ENERGY PREDICTED BY IDOCK:   -6.00 KCAL/MOL
REMARK 924 INTRA-LIGAND FREE ENERGY PREDICTED BY IDOCK:   -0.22 KCAL/MOL
REMARK 927      BINDING AFFINITY PREDICTED BY RF-SCORE:    0.00 PKD
ROOT
HETATM    1  N   UNL     1     -10.542   7.461  70.801  1.00  0.00    -0.221 NA 
HETATM    2  H1  UNL     1     -10.778   7.721  71.759  1.00  0.00     0.000 HD 
HETATM    3  C   UNL     1     -10.704   8.415  69.821  1.00  0.00    -0.211 A  
HETATM    4  H2  UNL     1     -10.199   6.527  70.577  1.00  0.00     0.000 HD 
HETATM    5  N   UNL     1     -10.397   8.076  68.573  1.00  0.00    -0.207 NA 
HETATM    6  C   UNL     1     -10.527   9.035  67.645  1.00  0.00    -0.260 A  
HETATM    7  N   UNL     1     -10.249   8.634  66.327  1.00  0.00    -0.408 NA 
HETATM    8  C   UNL     1     -10.974  10.327  67.912  1.00  0.00    -0.292 A  
HETATM    9  H2  UNL     1     -10.819   7.825  66.078  1.00  0.00     0.000 HD 
HETATM   10  H1  UNL     1     -10.349   9.364  65.621  1.00  0.00     0.000 HD 
HETATM   11  N   UNL     1     -11.063  11.312  66.970  1.00  0.00    -0.298 NA 
HETATM   12  C   UNL     1     -11.501  12.530  67.382  1.00  0.00    -0.341 A  
HETATM   13  N   UNL     1     -11.180   9.598  70.188  1.00  0.00    -0.253 NA 
HETATM   14  C   UNL     1     -11.887  12.710  68.720  1.00  0.00    -0.300 A  
HETATM   15  H2  UNL     1     -13.206  14.150  68.662  1.00  0.00     0.000 HD 
HETATM   16  N   UNL     1     -12.404  13.898  69.239  1.00  0.00    -0.426 NA 
HETATM   17  N   UNL     1     -11.774  11.723  69.637  1.00  0.00    -0.321 NA 
HETATM   18  H1  UNL     1     -12.684  14.028  70.210  1.00  0.00     0.000 HD 
HETATM   19  C   UNL     1     -11.304  10.534  69.252  1.00  0.00    -0.262 A  
ENDROOT
BRANCH  12  20
HETATM   20  C   UNL     1     -11.507  13.576  66.329  1.00  0.00    -0.350 A  
HETATM   21  C   UNL     1     -10.531  14.594  66.325  1.00  0.00    -0.302 A  
HETATM   22  C   UNL     1     -10.539  15.619  65.373  1.00  0.00    -0.436 A  
HETATM   23  C   UNL     1     -11.527  15.652  64.393  1.00  0.00    -0.266 A  
HETATM   24  C   UNL     1     -12.503  14.663  64.370  1.00  0.00    -0.312 A  
HETATM   25  C   UNL     1     -12.496  13.645  65.330  1.00  0.00    -0.537 A  
ENDBRANCH  12  20
TORSDOF 1
ENDMDL
MODEL       66
REMARK 921   NORMALIZED FREE ENERGY PREDICTED BY IDOCK:   -5.70 KCAL/MOL
REMARK 922        TOTAL FREE ENERGY PREDICTED BY IDOCK:   -6.22 KCAL/MOL
REMARK 923 INTER-LIGAND FREE ENERGY PREDICTED BY IDOCK:   -5.99 KCAL/MOL
REMARK 924 INTRA-LIGAND FREE ENERGY PREDICTED BY IDOCK:   -0.22 KCAL/MOL
REMARK 927      BINDING AFFINITY PREDICTED BY RF-SCORE:    0.00 PKD
ROOT
HETATM    1  N   UNL     1     -12.851   9.693  70.896  1.00  0.00    -0.523 NA 
HETATM    2  H1  UNL     1     -13.088   9.816  71.881  1.00  0.00     0.000 HD 
HETATM    3  C   UNL     1     -12.436  10.803  70.195  1.00  0.00    -0.285 A  
HETATM    4  H2  UNL     1     -12.920   8.780  70.447  1.00  0.00     0.000 HD 
HETATM    5  N   UNL     1     -12.128  10.643  68.913  1.00  0.00    -0.344 NA 
HETATM    6  C   UNL     1     -11.691  11.733  68.264  1.00  0.00    -0.310 A  
HETATM    7  N   UNL     1     -11.425  11.548  66.896  1.00  0.00    -0.483 NA 
HETATM    8  C   UNL     1     -11.565  12.991  68.845  1.00  0.00    -0.311 A  
HETATM    9  H2  UNL     1     -12.247  11.167  66.427  1.00  0.00     0.000 HD 
HETATM   10  H1  UNL     1     -11.093  12.377  66.403  1.00  0.00     0.000 HD 
HETATM   11  N   UNL     1     -11.077  14.087  68.190  1.00  0.00    -0.251 NA 
HETATM   12  C   UNL     1     -10.997  15.248  68.893  1.00  0.00    -0.261 A  
HETATM   13  N   UNL     1     -12.398  11.961  70.844  1.00  0.00    -0.356 NA 
HETATM   14  C   UNL     1     -11.458  15.286  70.219  1.00  0.00    -0.297 A  
HETATM   15  H2  UNL     1     -11.996  17.144  70.498  1.00  0.00     0.000 HD 
HETATM   16  N   UNL     1     -11.477  16.433  71.014  1.00  0.00    -0.556 NA 
HETATM   17  N   UNL     1     -11.921  14.184  70.849  1.00  0.00    -0.323 NA 
HETATM   18  H1  UNL     1     -11.811  16.461  71.976  1.00  0.00     0.000 HD 
HETATM   19  C   UNL     1     -11.965  13.029  70.182  1.00  0.00    -0.303 A  
ENDROOT
BRANCH  12  20
HETATM   20  C   UNL     1     -10.394  16.382  68.151  1.00  0.00    -0.283 A  
HETATM   21  C   UNL     1      -8.995  16.476  67.999  1.00  0.00    -0.204 A  
HETATM   22  C   UNL     1      -8.395  17.557  67.345  1.00  0.00    -0.220 A  
HETATM   23  C   UNL     1      -9.183  18.577  66.819  1.00  0.00    -0.297 A  
HETATM   24  C   UNL     1     -10.565  18.514  66.951  1.00  0.00    -0.406 A  
HETATM   25  C   UNL     1     -11.160  17.434  67.615  1.00  0.00     0.022 A  
ENDBRANCH  12  20
TORSDOF 1
ENDMDL
MODEL       67
REMARK 921   NORMALIZED FREE ENERGY PREDICTED BY IDOCK:   -5.67 KCAL/MOL
REMARK 922        TOTAL FREE ENERGY PREDICTED BY IDOCK:   -6.18 KCAL/MOL
REMARK 923 INTER-LIGAND FREE ENERGY PREDICTED BY IDOCK:   -5.93 KCAL/MOL
REMARK 924 INTRA-LIGAND FREE ENERGY PREDICTED BY IDOCK:   -0.25 KCAL/MOL
REMARK 927      BINDING AFFINITY PREDICTED BY RF-SCORE:    0.00 PKD
ROOT
HETATM    1  N   UNL     1     -14.153   8.943  73.237  1.00  0.00    -1.248 NA 
HETATM    2  H1  UNL     1     -14.262   7.955  73.467  1.00  0.00     0.000 HD 
HETATM    3  C   UNL     1     -13.269   9.271  72.234  1.00  0.00    -0.460 A  
HETATM    4  H2  UNL     1     -14.680   9.662  73.732  1.00  0.00     0.000 HD 
HETATM    5  N   UNL     1     -13.126  10.557  71.933  1.00  0.00    -0.479 NA 
HETATM    6  C   UNL     1     -12.287  10.846  70.927  1.00  0.00    -0.400 A  
HETATM    7  N   UNL     1     -12.113  12.216  70.667  1.00  0.00    -0.473 NA 
HETATM    8  C   UNL     1     -11.564   9.893  70.214  1.00  0.00    -0.250 A  
HETATM    9  H2  UNL     1     -11.822  12.700  71.517  1.00  0.00     0.000 HD 
HETATM   10  H1  UNL     1     -11.475  12.435  69.902  1.00  0.00     0.000 HD 
HETATM   11  N   UNL     1     -10.745  10.190  69.161  1.00  0.00    -0.214 NA 
HETATM   12  C   UNL     1     -10.116   9.152  68.550  1.00  0.00    -0.191 A  
HETATM   13  N   UNL     1     -12.601   8.280  71.654  1.00  0.00    -0.318 NA 
HETATM   14  C   UNL     1     -10.288   7.850  69.047  1.00  0.00    -0.214 A  
HETATM   15  H2  UNL     1      -8.646   6.914  68.549  1.00  0.00     0.000 HD 
HETATM   16  N   UNL     1      -9.648   6.720  68.536  1.00  0.00    -0.130 NA 
HETATM   17  N   UNL     1     -11.116   7.581  70.080  1.00  0.00    -0.255 NA 
HETATM   18  H1  UNL     1      -9.772   5.775  68.897  1.00  0.00     0.000 HD 
HETATM   19  C   UNL     1     -11.773   8.588  70.661  1.00  0.00    -0.144 A  
ENDROOT
BRANCH  12  20
HETATM   20  C   UNL     1      -9.298   9.530  67.371  1.00  0.00    -0.153 A  
HETATM   21  C   UNL     1      -9.842   9.462  66.071  1.00  0.00    -0.366 A  
HETATM   22  C   UNL     1      -9.081   9.767  64.937  1.00  0.00    -0.278 A  
HETATM   23  C   UNL     1      -7.751  10.153  65.074  1.00  0.00    -0.141 A  
HETATM   24  C   UNL     1      -7.186  10.231  66.342  1.00  0.00    -0.113 A  
HETATM   25  C   UNL     1      -7.949   9.916  67.473  1.00  0.00    -0.106 A  
ENDBRANCH  12  20
TORSDOF 1
ENDMDL
MODEL       68
REMARK 921   NORMALIZED FREE ENERGY PREDICTED BY IDOCK:   -5.64 KCAL/MOL
REMARK 922        TOTAL FREE ENERGY PREDICTED BY IDOCK:   -6.15 KCAL/MOL
REMARK 923 INTER-LIGAND FREE ENERGY PREDICTED BY IDOCK:   -6.13 KCAL/MOL
REMARK 924 INTRA-LIGAND FREE ENERGY PREDICTED BY IDOCK:   -0.01 KCAL/MOL
REMARK 927      BINDING AFFINITY PREDICTED BY RF-SCORE:    0.00 PKD
ROOT
HETATM    1  N   UNL     1     -13.709   9.499  72.332  1.00  0.00    -0.635 NA 
HETATM    2  H1  UNL     1     -13.393   8.645  71.873  1.00  0.00     0.000 HD 
HETATM    3  C   UNL     1     -13.255  10.700  71.833  1.00  0.00    -0.423 A  
HETATM    4  H2  UNL     1     -14.340   9.466  73.133  1.00  0.00     0.000 HD 
HETATM    5  N   UNL     1     -13.667  11.812  72.431  1.00  0.00     0.054 NA 
HETATM    6  C   UNL     1     -13.240  12.968  71.901  1.00  0.00    -0.430 A  
HETATM    7  N   UNL     1     -13.645  14.127  72.585  1.00  0.00    -0.611 NA 
HETATM    8  C   UNL     1     -12.394  13.057  70.798  1.00  0.00    -0.310 A  
HETATM    9  H2  UNL     1     -13.372  14.068  73.567  1.00  0.00     0.000 HD 
HETATM   10  H1  UNL     1     -13.320  15.005  72.182  1.00  0.00     0.000 HD 
HETATM   11  N   UNL     1     -11.998  14.238  70.236  1.00  0.00    -0.308 NA 
HETATM   12  C   UNL     1     -11.182  14.169  69.151  1.00  0.00    -0.272 A  
HETATM   13  N   UNL     1     -12.416  10.659  70.805  1.00  0.00    -0.354 NA 
HETATM   14  C   UNL     1     -10.747  12.915  68.693  1.00  0.00    -0.247 A  
HETATM   15  H2  UNL     1      -9.031  13.276  67.831  1.00  0.00     0.000 HD 
HETATM   16  N   UNL     1      -9.866  12.728  67.626  1.00  0.00    -0.209 NA 
HETATM   17  N   UNL     1     -11.167  11.760  69.256  1.00  0.00    -0.258 NA 
HETATM   18  H1  UNL     1      -9.550  11.818  67.293  1.00  0.00     0.000 HD 
HETATM   19  C   UNL     1     -12.002  11.815  70.296  1.00  0.00    -0.343 A  
ENDROOT
BRANCH  12  20
HETATM   20  C   UNL     1     -10.845  15.480  68.543  1.00  0.00    -0.272 A  
HETATM   21  C   UNL     1     -10.487  16.575  69.356  1.00  0.00    -0.320 A  
HETATM   22  C   UNL     1     -10.209  17.835  68.814  1.00  0.00    -0.373 A  
HETATM   23  C   UNL     1     -10.279  18.032  67.438  1.00  0.00    -0.370 A  
HETATM   24  C   UNL     1     -10.628  16.972  66.610  1.00  0.00    -0.182 A  
HETATM   25  C   UNL     1     -10.915  15.716  67.158  1.00  0.00    -0.270 A  
ENDBRANCH  12  20
TORSDOF 1
ENDMDL
MODEL       69
REMARK 921   NORMALIZED FREE ENERGY PREDICTED BY IDOCK:   -5.56 KCAL/MOL
REMARK 922        TOTAL FREE ENERGY PREDICTED BY IDOCK:   -6.06 KCAL/MOL
REMARK 923 INTER-LIGAND FREE ENERGY PREDICTED BY IDOCK:   -6.07 KCAL/MOL
REMARK 924 INTRA-LIGAND FREE ENERGY PREDICTED BY IDOCK:    0.01 KCAL/MOL
REMARK 927      BINDING AFFINITY PREDICTED BY RF-SCORE:    0.00 PKD
ROOT
HETATM    1  N   UNL     1     -12.306  12.916  64.685  1.00  0.00    -0.482 NA 
HETATM    2  H1  UNL     1     -13.150  13.247  64.218  1.00  0.00     0.000 HD 
HETATM    3  C   UNL     1     -11.408  13.861  65.127  1.00  0.00    -0.318 A  
HETATM    4  H2  UNL     1     -12.133  11.920  64.820  1.00  0.00     0.000 HD 
HETATM    5  N   UNL     1     -10.308  13.430  65.736  1.00  0.00    -0.288 NA 
HETATM    6  C   UNL     1      -9.469  14.373  66.191  1.00  0.00    -0.242 A  
HETATM    7  N   UNL     1      -8.289  13.890  66.781  1.00  0.00    -0.422 NA 
HETATM    8  C   UNL     1      -9.677  15.742  66.044  1.00  0.00    -0.345 A  
HETATM    9  H2  UNL     1      -7.802  13.269  66.134  1.00  0.00     0.000 HD 
HETATM   10  H1  UNL     1      -7.651  14.607  67.126  1.00  0.00     0.000 HD 
HETATM   11  N   UNL     1      -8.841  16.698  66.547  1.00  0.00    -0.255 NA 
HETATM   12  C   UNL     1      -9.182  17.997  66.339  1.00  0.00    -0.242 A  
HETATM   13  N   UNL     1     -11.692  15.136  64.891  1.00  0.00    -0.329 NA 
HETATM   14  C   UNL     1     -10.329  18.298  65.585  1.00  0.00    -0.035 A  
HETATM   15  H2  UNL     1      -9.955  20.048  64.801  1.00  0.00     0.000 HD 
HETATM   16  N   UNL     1     -10.742  19.591  65.262  1.00  0.00    -0.371 NA 
HETATM   17  N   UNL     1     -11.148  17.334  65.111  1.00  0.00    -0.461 NA 
HETATM   18  H1  UNL     1     -11.574  19.809  64.715  1.00  0.00     0.000 HD 
HETATM   19  C   UNL     1     -10.846  16.055  65.347  1.00  0.00    -0.328 A  
ENDROOT
BRANCH  12  20
HETATM   20  C   UNL     1      -8.275  18.986  66.970  1.00  0.00    -0.285 A  
HETATM   21  C   UNL     1      -7.740  20.051  66.216  1.00  0.00    -0.323 A  
HETATM   22  C   UNL     1      -6.845  20.972  66.773  1.00  0.00    -0.326 A  
HETATM   23  C   UNL     1      -6.463  20.854  68.106  1.00  0.00    -0.305 A  
HETATM   24  C   UNL     1      -6.974  19.816  68.877  1.00  0.00    -0.367 A  
HETATM   25  C   UNL     1      -7.861  18.891  68.312  1.00  0.00    -0.340 A  
ENDBRANCH  12  20
TORSDOF 1
ENDMDL
MODEL       70
REMARK 921   NORMALIZED FREE ENERGY PREDICTED BY IDOCK:   -5.53 KCAL/MOL
REMARK 922        TOTAL FREE ENERGY PREDICTED BY IDOCK:   -6.03 KCAL/MOL
REMARK 923 INTER-LIGAND FREE ENERGY PREDICTED BY IDOCK:   -6.38 KCAL/MOL
REMARK 924 INTRA-LIGAND FREE ENERGY PREDICTED BY IDOCK:    0.35 KCAL/MOL
REMARK 927      BINDING AFFINITY PREDICTED BY RF-SCORE:    0.00 PKD
ROOT
HETATM    1  N   UNL     1      -9.586   5.643  69.824  1.00  0.00    -0.153 NA 
HETATM    2  H1  UNL     1     -10.054   4.958  70.416  1.00  0.00     0.000 HD 
HETATM    3  C   UNL     1     -10.032   6.945  69.876  1.00  0.00    -0.176 A  
HETATM    4  H2  UNL     1      -8.813   5.375  69.214  1.00  0.00     0.000 HD 
HETATM    5  N   UNL     1      -9.422   7.838  69.105  1.00  0.00    -0.151 NA 
HETATM    6  C   UNL     1      -9.852   9.105  69.204  1.00  0.00    -0.171 A  
HETATM    7  N   UNL     1      -9.227  10.018  68.337  1.00  0.00    -0.129 NA 
HETATM    8  C   UNL     1     -10.889   9.516  70.036  1.00  0.00    -0.252 A  
HETATM    9  H2  UNL     1      -9.304   9.696  67.372  1.00  0.00     0.000 HD 
HETATM   10  H1  UNL     1      -9.554  10.982  68.412  1.00  0.00     0.000 HD 
HETATM   11  N   UNL     1     -11.293  10.815  70.165  1.00  0.00    -0.308 NA 
HETATM   12  C   UNL     1     -12.310  11.068  71.029  1.00  0.00    -0.385 A  
HETATM   13  N   UNL     1     -11.059   7.211  70.675  1.00  0.00    -0.258 NA 
HETATM   14  C   UNL     1     -12.927  10.001  71.702  1.00  0.00    -0.449 A  
HETATM   15  H2  UNL     1     -14.746  10.626  72.050  1.00  0.00     0.000 HD 
HETATM   16  N   UNL     1     -14.014  10.138  72.567  1.00  0.00    -0.390 NA 
HETATM   17  N   UNL     1     -12.498   8.727  71.570  1.00  0.00    -0.316 NA 
HETATM   18  H1  UNL     1     -14.462   9.363  73.056  1.00  0.00     0.000 HD 
HETATM   19  C   UNL     1     -11.472   8.472  70.756  1.00  0.00    -0.253 A  
ENDROOT
BRANCH  12  20
HETATM   20  C   UNL     1     -12.655  12.504  71.179  1.00  0.00    -0.349 A  
HETATM   21  C   UNL     1     -13.461  12.939  72.251  1.00  0.00    -0.631 A  
HETATM   22  C   UNL     1     -13.841  14.278  72.392  1.00  0.00    -0.619 A  
HETATM   23  C   UNL     1     -13.419  15.223  71.461  1.00  0.00    -0.577 A  
HETATM   24  C   UNL     1     -12.622  14.827  70.394  1.00  0.00    -0.399 A  
HETATM   25  C   UNL     1     -12.253  13.483  70.252  1.00  0.00    -0.417 A  
ENDBRANCH  12  20
TORSDOF 1
ENDMDL
MODEL       71
REMARK 921   NORMALIZED FREE ENERGY PREDICTED BY IDOCK:   -5.50 KCAL/MOL
REMARK 922        TOTAL FREE ENERGY PREDICTED BY IDOCK:   -6.00 KCAL/MOL
REMARK 923 INTER-LIGAND FREE ENERGY PREDICTED BY IDOCK:   -5.75 KCAL/MOL
REMARK 924 INTRA-LIGAND FREE ENERGY PREDICTED BY IDOCK:   -0.25 KCAL/MOL
REMARK 927      BINDING AFFINITY PREDICTED BY RF-SCORE:    0.00 PKD
ROOT
HETATM    1  N   UNL     1     -14.349   8.834  73.322  1.00  0.00    -1.130 NA 
HETATM    2  H1  UNL     1     -14.703   9.697  73.734  1.00  0.00     0.000 HD 
HETATM    3  C   UNL     1     -13.472   8.941  72.265  1.00  0.00    -0.455 A  
HETATM    4  H2  UNL     1     -14.635   7.922  73.680  1.00  0.00     0.000 HD 
HETATM    5  N   UNL     1     -13.011   7.817  71.729  1.00  0.00    -0.328 NA 
HETATM    6  C   UNL     1     -12.130   7.951  70.726  1.00  0.00    -0.084 A  
HETATM    7  N   UNL     1     -11.702   6.747  70.141  1.00  0.00    -0.578 NA 
HETATM    8  C   UNL     1     -11.701   9.175  70.221  1.00  0.00    -0.017 A  
HETATM    9  H2  UNL     1     -12.506   6.202  69.830  1.00  0.00     0.000 HD 
HETATM   10  H1  UNL     1     -11.032   6.849  69.379  1.00  0.00     0.000 HD 
HETATM   11  N   UNL     1     -10.770   9.305  69.229  1.00  0.00    -0.219 NA 
HETATM   12  C   UNL     1     -10.437  10.567  68.850  1.00  0.00    -0.206 A  
HETATM   13  N   UNL     1     -13.169  10.162  71.840  1.00  0.00    -0.451 NA 
HETATM   14  C   UNL     1     -11.087  11.662  69.442  1.00  0.00    -0.206 A  
HETATM   15  H2  UNL     1     -11.020  13.066  68.085  1.00  0.00     0.000 HD 
HETATM   16  N   UNL     1     -10.866  12.994  69.091  1.00  0.00    -0.431 NA 
HETATM   17  N   UNL     1     -11.993  11.506  70.433  1.00  0.00    -0.367 NA 
HETATM   18  H1  UNL     1     -11.338  13.789  69.521  1.00  0.00     0.000 HD 
HETATM   19  C   UNL     1     -12.297  10.273  70.844  1.00  0.00    -0.373 A  
ENDROOT
BRANCH  12  20
HETATM   20  C   UNL     1      -9.370  10.644  67.821  1.00  0.00    -0.154 A  
HETATM   21  C   UNL     1      -9.696  10.648  66.449  1.00  0.00    -0.241 A  
HETATM   22  C   UNL     1      -8.710  10.674  65.457  1.00  0.00    -0.199 A  
HETATM   23  C   UNL     1      -7.365  10.700  65.812  1.00  0.00    -0.110 A  
HETATM   24  C   UNL     1      -7.010  10.699  67.156  1.00  0.00    -0.088 A  
HETATM   25  C   UNL     1      -8.001  10.663  68.146  1.00  0.00    -0.113 A  
ENDBRANCH  12  20
TORSDOF 1
ENDMDL
MODEL       72
REMARK 921   NORMALIZED FREE ENERGY PREDICTED BY IDOCK:   -5.49 KCAL/MOL
REMARK 922        TOTAL FREE ENERGY PREDICTED BY IDOCK:   -5.99 KCAL/MOL
REMARK 923 INTER-LIGAND FREE ENERGY PREDICTED BY IDOCK:   -5.97 KCAL/MOL
REMARK 924 INTRA-LIGAND FREE ENERGY PREDICTED BY IDOCK:   -0.02 KCAL/MOL
REMARK 927      BINDING AFFINITY PREDICTED BY RF-SCORE:    0.00 PKD
ROOT
HETATM    1  N   UNL     1      -8.906   9.052  62.586  1.00  0.00    -0.401 NA 
HETATM    2  H1  UNL     1      -8.365   8.273  62.960  1.00  0.00     0.000 HD 
HETATM    3  C   UNL     1      -9.410   9.969  63.481  1.00  0.00    -0.256 A  
HETATM    4  H2  UNL     1      -9.068   9.149  61.583  1.00  0.00     0.000 HD 
HETATM    5  N   UNL     1     -10.114  10.984  62.994  1.00  0.00    -0.294 NA 
HETATM    6  C   UNL     1     -10.561  11.883  63.884  1.00  0.00    -0.394 A  
HETATM    7  N   UNL     1     -11.349  12.916  63.349  1.00  0.00    -0.672 NA 
HETATM    8  C   UNL     1     -10.346  11.796  65.257  1.00  0.00    -0.274 A  
HETATM    9  H2  UNL     1     -12.131  12.524  62.823  1.00  0.00     0.000 HD 
HETATM   10  H1  UNL     1     -11.689  13.598  64.026  1.00  0.00     0.000 HD 
HETATM   11  N   UNL     1     -10.766  12.738  66.154  1.00  0.00    -0.271 NA 
HETATM   12  C   UNL     1     -10.469  12.527  67.463  1.00  0.00    -0.219 A  
HETATM   13  N   UNL     1      -9.178   9.759  64.771  1.00  0.00    -0.250 NA 
HETATM   14  C   UNL     1      -9.803  11.349  67.840  1.00  0.00    -0.179 A  
HETATM   15  H2  UNL     1     -10.373  11.030  69.682  1.00  0.00     0.000 HD 
HETATM   16  N   UNL     1      -9.498  11.003  69.157  1.00  0.00    -0.401 NA 
HETATM   17  N   UNL     1      -9.383  10.441  66.931  1.00  0.00    -0.160 NA 
HETATM   18  H1  UNL     1      -9.014  10.148  69.430  1.00  0.00     0.000 HD 
HETATM   19  C   UNL     1      -9.632  10.659  65.638  1.00  0.00    -0.218 A  
ENDROOT
BRANCH  12  20
HETATM   20  C   UNL     1     -10.888  13.617  68.379  1.00  0.00    -0.274 A  
HETATM   21  C   UNL     1     -11.674  13.336  69.515  1.00  0.00    -0.384 A  
HETATM   22  C   UNL     1     -12.123  14.349  70.370  1.00  0.00    -0.399 A  
HETATM   23  C   UNL     1     -11.792  15.675  70.112  1.00  0.00    -0.381 A  
HETATM   24  C   UNL     1     -11.017  15.985  69.000  1.00  0.00    -0.296 A  
HETATM   25  C   UNL     1     -10.579  14.969  68.142  1.00  0.00    -0.248 A  
ENDBRANCH  12  20
TORSDOF 1
ENDMDL
MODEL       73
REMARK 921   NORMALIZED FREE ENERGY PREDICTED BY IDOCK:   -5.49 KCAL/MOL
REMARK 922        TOTAL FREE ENERGY PREDICTED BY IDOCK:   -5.99 KCAL/MOL
REMARK 923 INTER-LIGAND FREE ENERGY PREDICTED BY IDOCK:   -5.74 KCAL/MOL
REMARK 924 INTRA-LIGAND FREE ENERGY PREDICTED BY IDOCK:   -0.25 KCAL/MOL
REMARK 927      BINDING AFFINITY PREDICTED BY RF-SCORE:    0.00 PKD
ROOT
HETATM    1  N   UNL     1     -10.708   6.875  70.460  1.00  0.00    -0.227 NA 
HETATM    2  H1  UNL     1     -10.381   6.067  69.930  1.00  0.00     0.000 HD 
HETATM    3  C   UNL     1     -10.779   8.083  69.803  1.00  0.00    -0.231 A  
HETATM    4  H2  UNL     1     -10.974   6.791  71.441  1.00  0.00     0.000 HD 
HETATM    5  N   UNL     1     -11.205   9.136  70.493  1.00  0.00    -0.258 NA 
HETATM    6  C   UNL     1     -11.300  10.292  69.819  1.00  0.00    -0.273 A  
HETATM    7  N   UNL     1     -11.699  11.400  70.586  1.00  0.00    -0.446 NA 
HETATM    8  C   UNL     1     -10.965  10.445  68.476  1.00  0.00    -0.254 A  
HETATM    9  H2  UNL     1     -11.081  11.513  71.390  1.00  0.00     0.000 HD 
HETATM   10  H1  UNL     1     -11.771  12.280  70.073  1.00  0.00     0.000 HD 
HETATM   11  N   UNL     1     -11.106  11.615  67.785  1.00  0.00    -0.231 NA 
HETATM   12  C   UNL     1     -10.753  11.609  66.472  1.00  0.00    -0.272 A  
HETATM   13  N   UNL     1     -10.391   8.117  68.534  1.00  0.00    -0.208 NA 
HETATM   14  C   UNL     1     -10.221  10.439  65.905  1.00  0.00    -0.234 A  
HETATM   15  H2  UNL     1      -9.084  11.075  64.448  1.00  0.00     0.000 HD 
HETATM   16  N   UNL     1      -9.774  10.336  64.587  1.00  0.00    -0.317 NA 
HETATM   17  N   UNL     1     -10.107   9.290  66.607  1.00  0.00    -0.263 NA 
HETATM   18  H1  UNL     1      -9.387   9.487  64.175  1.00  0.00     0.000 HD 
HETATM   19  C   UNL     1     -10.490   9.273  67.885  1.00  0.00    -0.236 A  
ENDROOT
BRANCH  12  20
HETATM   20  C   UNL     1     -10.996  12.886  65.758  1.00  0.00    -0.303 A  
HETATM   21  C   UNL     1     -10.062  13.940  65.838  1.00  0.00    -0.331 A  
HETATM   22  C   UNL     1     -10.286  15.172  65.214  1.00  0.00    -0.425 A  
HETATM   23  C   UNL     1     -11.454  15.383  64.486  1.00  0.00    -0.314 A  
HETATM   24  C   UNL     1     -12.393  14.363  64.387  1.00  0.00    -0.428 A  
HETATM   25  C   UNL     1     -12.169  13.135  65.022  1.00  0.00    -0.488 A  
ENDBRANCH  12  20
TORSDOF 1
ENDMDL
MODEL       74
REMARK 921   NORMALIZED FREE ENERGY PREDICTED BY IDOCK:   -5.48 KCAL/MOL
REMARK 922        TOTAL FREE ENERGY PREDICTED BY IDOCK:   -5.98 KCAL/MOL
REMARK 923 INTER-LIGAND FREE ENERGY PREDICTED BY IDOCK:   -5.77 KCAL/MOL
REMARK 924 INTRA-LIGAND FREE ENERGY PREDICTED BY IDOCK:   -0.21 KCAL/MOL
REMARK 927      BINDING AFFINITY PREDICTED BY RF-SCORE:    0.00 PKD
ROOT
HETATM    1  N   UNL     1      -8.291   2.268  67.158  1.00  0.00    -0.082 NA 
HETATM    2  H1  UNL     1      -7.837   1.641  67.822  1.00  0.00     0.000 HD 
HETATM    3  C   UNL     1      -9.055   3.294  67.668  1.00  0.00    -0.174 A  
HETATM    4  H2  UNL     1      -8.184   2.139  66.152  1.00  0.00     0.000 HD 
HETATM    5  N   UNL     1      -9.646   4.111  66.804  1.00  0.00    -0.197 NA 
HETATM    6  C   UNL     1     -10.352   5.125  67.327  1.00  0.00    -0.168 A  
HETATM    7  N   UNL     1     -11.013   5.940  66.392  1.00  0.00    -0.734 NA 
HETATM    8  C   UNL     1     -10.508   5.346  68.693  1.00  0.00    -0.129 A  
HETATM    9  H2  UNL     1     -11.609   5.371  65.789  1.00  0.00     0.000 HD 
HETATM   10  H1  UNL     1     -11.550   6.710  66.790  1.00  0.00     0.000 HD 
HETATM   11  N   UNL     1     -11.192   6.405  69.220  1.00  0.00    -0.378 NA 
HETATM   12  C   UNL     1     -11.246   6.500  70.574  1.00  0.00    -0.344 A  
HETATM   13  N   UNL     1      -9.167   3.380  68.988  1.00  0.00    -0.148 NA 
HETATM   14  C   UNL     1     -10.654   5.498  71.361  1.00  0.00    -0.243 A  
HETATM   15  H2  UNL     1     -11.681   5.511  73.024  1.00  0.00     0.000 HD 
HETATM   16  N   UNL     1     -10.697   5.464  72.756  1.00  0.00    -0.230 NA 
HETATM   17  N   UNL     1      -9.969   4.469  70.816  1.00  0.00    -0.213 NA 
HETATM   18  H1  UNL     1     -10.268   4.737  73.327  1.00  0.00     0.000 HD 
HETATM   19  C   UNL     1      -9.873   4.389  69.487  1.00  0.00    -0.188 A  
ENDROOT
BRANCH  12  20
HETATM   20  C   UNL     1     -11.940   7.708  71.085  1.00  0.00    -0.319 A  
HETATM   21  C   UNL     1     -13.241   7.614  71.621  1.00  0.00    -0.395 A  
HETATM   22  C   UNL     1     -13.938   8.742  72.067  1.00  0.00    -0.511 A  
HETATM   23  C   UNL     1     -13.347  10.000  71.992  1.00  0.00    -0.513 A  
HETATM   24  C   UNL     1     -12.065  10.126  71.470  1.00  0.00    -0.442 A  
HETATM   25  C   UNL     1     -11.376   8.995  71.015  1.00  0.00    -0.362 A  
ENDBRANCH  12  20
TORSDOF 1
ENDMDL
MODEL       75
REMARK 921   NORMALIZED FREE ENERGY PREDICTED BY IDOCK:   -5.46 KCAL/MOL
REMARK 922        TOTAL FREE ENERGY PREDICTED BY IDOCK:   -5.96 KCAL/MOL
REMARK 923 INTER-LIGAND FREE ENERGY PREDICTED BY IDOCK:   -5.72 KCAL/MOL
REMARK 924 INTRA-LIGAND FREE ENERGY PREDICTED BY IDOCK:   -0.24 KCAL/MOL
REMARK 927      BINDING AFFINITY PREDICTED BY RF-SCORE:    0.00 PKD
ROOT
HETATM    1  N   UNL     1     -14.259  13.801  72.570  1.00  0.00    -0.718 NA 
HETATM    2  H1  UNL     1     -14.816  13.306  73.266  1.00  0.00     0.000 HD 
HETATM    3  C   UNL     1     -13.382  13.059  71.809  1.00  0.00    -0.378 A  
HETATM    4  H2  UNL     1     -14.348  14.808  72.440  1.00  0.00     0.000 HD 
HETATM    5  N   UNL     1     -12.656  13.703  70.902  1.00  0.00    -0.353 NA 
HETATM    6  C   UNL     1     -11.838  12.952  70.150  1.00  0.00    -0.245 A  
HETATM    7  N   UNL     1     -11.042  13.664  69.236  1.00  0.00    -0.378 NA 
HETATM    8  C   UNL     1     -11.701  11.572  70.281  1.00  0.00    -0.289 A  
HETATM    9  H2  UNL     1     -10.508  14.385  69.723  1.00  0.00     0.000 HD 
HETATM   10  H1  UNL     1     -10.419  13.093  68.665  1.00  0.00     0.000 HD 
HETATM   11  N   UNL     1     -10.899  10.807  69.483  1.00  0.00    -0.238 NA 
HETATM   12  C   UNL     1     -10.879   9.469  69.720  1.00  0.00    -0.243 A  
HETATM   13  N   UNL     1     -13.305  11.757  72.055  1.00  0.00    -0.438 NA 
HETATM   14  C   UNL     1     -11.627   8.945  70.786  1.00  0.00    -0.259 A  
HETATM   15  H2  UNL     1     -10.666   7.326  71.311  1.00  0.00     0.000 HD 
HETATM   16  N   UNL     1     -11.637   7.599  71.155  1.00  0.00    -0.276 NA 
HETATM   17  N   UNL     1     -12.426   9.721  71.551  1.00  0.00    -0.374 NA 
HETATM   18  H1  UNL     1     -12.180   7.218  71.929  1.00  0.00     0.000 HD 
HETATM   19  C   UNL     1     -12.486  11.031  71.301  1.00  0.00    -0.370 A  
ENDROOT
BRANCH  12  20
HETATM   20  C   UNL     1     -10.046   8.684  68.775  1.00  0.00    -0.210 A  
HETATM   21  C   UNL     1     -10.557   8.299  67.518  1.00  0.00    -0.291 A  
HETATM   22  C   UNL     1      -9.812   7.520  66.627  1.00  0.00    -0.274 A  
HETATM   23  C   UNL     1      -8.528   7.105  66.969  1.00  0.00    -0.122 A  
HETATM   24  C   UNL     1      -7.995   7.469  68.200  1.00  0.00    -0.123 A  
HETATM   25  C   UNL     1      -8.748   8.241  69.093  1.00  0.00    -0.143 A  
ENDBRANCH  12  20
TORSDOF 1
ENDMDL
MODEL       76
REMARK 921   NORMALIZED FREE ENERGY PREDICTED BY IDOCK:   -5.45 KCAL/MOL
REMARK 922        TOTAL FREE ENERGY PREDICTED BY IDOCK:   -5.94 KCAL/MOL
REMARK 923 INTER-LIGAND FREE ENERGY PREDICTED BY IDOCK:   -5.75 KCAL/MOL
REMARK 924 INTRA-LIGAND FREE ENERGY PREDICTED BY IDOCK:   -0.19 KCAL/MOL
REMARK 927      BINDING AFFINITY PREDICTED BY RF-SCORE:    0.00 PKD
ROOT
HETATM    1  N   UNL     1     -12.526  14.422  69.611  1.00  0.00    -0.519 NA 
HETATM    2  H1  UNL     1     -13.460  14.664  69.281  1.00  0.00     0.000 HD 
HETATM    3  C   UNL     1     -11.474  15.198  69.178  1.00  0.00    -0.306 A  
HETATM    4  H2  UNL     1     -12.376  13.633  70.240  1.00  0.00     0.000 HD 
HETATM    5  N   UNL     1     -10.257  14.884  69.608  1.00  0.00    -0.149 NA 
HETATM    6  C   UNL     1      -9.256  15.679  69.202  1.00  0.00    -0.254 A  
HETATM    7  N   UNL     1      -7.974  15.291  69.626  1.00  0.00    -0.294 NA 
HETATM    8  C   UNL     1      -9.421  16.776  68.360  1.00  0.00    -0.241 A  
HETATM    9  H2  UNL     1      -7.789  14.326  69.350  1.00  0.00     0.000 HD 
HETATM   10  H1  UNL     1      -7.213  15.896  69.316  1.00  0.00     0.000 HD 
HETATM   11  N   UNL     1      -8.404  17.608  67.985  1.00  0.00    -0.239 NA 
HETATM   12  C   UNL     1      -8.720  18.649  67.171  1.00  0.00    -0.274 A  
HETATM   13  N   UNL     1     -11.747  16.192  68.341  1.00  0.00    -0.246 NA 
HETATM   14  C   UNL     1     -10.040  18.795  66.715  1.00  0.00    -0.369 A  
HETATM   15  H2  UNL     1      -9.869  19.728  65.007  1.00  0.00     0.000 HD 
HETATM   16  N   UNL     1     -10.464  19.790  65.833  1.00  0.00    -0.519 NA 
HETATM   17  N   UNL     1     -11.031  17.967  67.114  1.00  0.00    -0.140 NA 
HETATM   18  H1  UNL     1     -11.422  19.896  65.502  1.00  0.00     0.000 HD 
HETATM   19  C   UNL     1     -10.741  16.966  67.947  1.00  0.00    -0.344 A  
ENDROOT
BRANCH  12  20
HETATM   20  C   UNL     1      -7.588  19.557  66.858  1.00  0.00    -0.267 A  
HETATM   21  C   UNL     1      -7.009  19.562  65.572  1.00  0.00    -0.299 A  
HETATM   22  C   UNL     1      -5.912  20.373  65.261  1.00  0.00    -0.258 A  
HETATM   23  C   UNL     1      -5.365  21.207  66.231  1.00  0.00    -0.260 A  
HETATM   24  C   UNL     1      -5.914  21.226  67.508  1.00  0.00    -0.427 A  
HETATM   25  C   UNL     1      -7.006  20.405  67.818  1.00  0.00    -0.347 A  
ENDBRANCH  12  20
TORSDOF 1
ENDMDL
MODEL       77
REMARK 921   NORMALIZED FREE ENERGY PREDICTED BY IDOCK:   -5.40 KCAL/MOL
REMARK 922        TOTAL FREE ENERGY PREDICTED BY IDOCK:   -5.90 KCAL/MOL
REMARK 923 INTER-LIGAND FREE ENERGY PREDICTED BY IDOCK:   -5.70 KCAL/MOL
REMARK 924 INTRA-LIGAND FREE ENERGY PREDICTED BY IDOCK:   -0.19 KCAL/MOL
REMARK 927      BINDING AFFINITY PREDICTED BY RF-SCORE:    0.00 PKD
ROOT
HETATM    1  N   UNL     1     -13.830  15.024  72.253  1.00  0.00    -0.447 NA 
HETATM    2  H1  UNL     1     -13.664  15.934  71.824  1.00  0.00     0.000 HD 
HETATM    3  C   UNL     1     -13.265  13.921  71.652  1.00  0.00    -0.370 A  
HETATM    4  H2  UNL     1     -14.393  14.933  73.098  1.00  0.00     0.000 HD 
HETATM    5  N   UNL     1     -13.481  12.735  72.211  1.00  0.00    -0.558 NA 
HETATM    6  C   UNL     1     -12.889  11.683  71.626  1.00  0.00    -0.349 A  
HETATM    7  N   UNL     1     -13.178  10.435  72.205  1.00  0.00    -0.562 NA 
HETATM    8  C   UNL     1     -12.097  11.766  70.484  1.00  0.00    -0.347 A  
HETATM    9  H2  UNL     1     -14.188  10.292  72.244  1.00  0.00     0.000 HD 
HETATM   10  H1  UNL     1     -12.728   9.635  71.760  1.00  0.00     0.000 HD 
HETATM   11  N   UNL     1     -11.461  10.697  69.919  1.00  0.00    -0.291 NA 
HETATM   12  C   UNL     1     -10.707  10.934  68.813  1.00  0.00    -0.207 A  
HETATM   13  N   UNL     1     -12.567  14.117  70.540  1.00  0.00    -0.345 NA 
HETATM   14  C   UNL     1     -10.656  12.231  68.276  1.00  0.00    -0.227 A  
HETATM   15  H2  UNL     1     -10.298  11.961  66.374  1.00  0.00     0.000 HD 
HETATM   16  N   UNL     1      -9.963  12.576  67.115  1.00  0.00    -0.214 NA 
HETATM   17  N   UNL     1     -11.282  13.275  68.864  1.00  0.00    -0.265 NA 
HETATM   18  H1  UNL     1      -9.926  13.518  66.726  1.00  0.00     0.000 HD 
HETATM   19  C   UNL     1     -11.990  13.061  69.975  1.00  0.00    -0.312 A  
ENDROOT
BRANCH  12  20
HETATM   20  C   UNL     1      -9.985   9.749  68.289  1.00  0.00    -0.175 A  
HETATM   21  C   UNL     1     -10.397   9.131  67.090  1.00  0.00    -0.337 A  
HETATM   22  C   UNL     1      -9.764   7.985  66.596  1.00  0.00    -0.313 A  
HETATM   23  C   UNL     1      -8.694   7.426  67.289  1.00  0.00    -0.121 A  
HETATM   24  C   UNL     1      -8.262   8.013  68.473  1.00  0.00    -0.126 A  
HETATM   25  C   UNL     1      -8.906   9.154  68.969  1.00  0.00    -0.139 A  
ENDBRANCH  12  20
TORSDOF 1
ENDMDL
MODEL       78
REMARK 921   NORMALIZED FREE ENERGY PREDICTED BY IDOCK:   -5.30 KCAL/MOL
REMARK 922        TOTAL FREE ENERGY PREDICTED BY IDOCK:   -5.79 KCAL/MOL
REMARK 923 INTER-LIGAND FREE ENERGY PREDICTED BY IDOCK:   -5.63 KCAL/MOL
REMARK 924 INTRA-LIGAND FREE ENERGY PREDICTED BY IDOCK:   -0.17 KCAL/MOL
REMARK 927      BINDING AFFINITY PREDICTED BY RF-SCORE:    0.00 PKD
ROOT
HETATM    1  N   UNL     1      -8.296  20.867  67.191  1.00  0.00    -0.542 NA 
HETATM    2  H1  UNL     1      -9.046  21.456  67.553  1.00  0.00     0.000 HD 
HETATM    3  C   UNL     1      -8.478  19.502  67.237  1.00  0.00    -0.298 A  
HETATM    4  H2  UNL     1      -7.443  21.273  66.807  1.00  0.00     0.000 HD 
HETATM    5  N   UNL     1      -7.503  18.734  66.764  1.00  0.00    -0.218 NA 
HETATM    6  C   UNL     1      -7.722  17.410  66.787  1.00  0.00    -0.238 A  
HETATM    7  N   UNL     1      -6.653  16.619  66.333  1.00  0.00    -0.192 NA 
HETATM    8  C   UNL     1      -8.880  16.817  67.283  1.00  0.00    -0.204 A  
HETATM    9  H2  UNL     1      -5.804  16.843  66.854  1.00  0.00     0.000 HD 
HETATM   10  H1  UNL     1      -6.819  15.613  66.350  1.00  0.00     0.000 HD 
HETATM   11  N   UNL     1      -9.115  15.472  67.263  1.00  0.00    -0.197 NA 
HETATM   12  C   UNL     1     -10.299  15.039  67.769  1.00  0.00    -0.245 A  
HETATM   13  N   UNL     1      -9.605  19.050  67.774  1.00  0.00    -0.303 NA 
HETATM   14  C   UNL     1     -11.192  15.967  68.329  1.00  0.00    -0.354 A  
HETATM   15  H2  UNL     1     -12.201  14.941  69.651  1.00  0.00     0.000 HD 
HETATM   16  N   UNL     1     -12.407  15.629  68.927  1.00  0.00    -0.559 NA 
HETATM   17  N   UNL     1     -10.943  17.295  68.323  1.00  0.00    -0.280 NA 
HETATM   18  H1  UNL     1     -13.055  16.303  69.333  1.00  0.00     0.000 HD 
HETATM   19  C   UNL     1      -9.801  17.736  67.789  1.00  0.00    -0.295 A  
ENDROOT
BRANCH  12  20
HETATM   20  C   UNL     1     -10.527  13.577  67.653  1.00  0.00    -0.239 A  
HETATM   21  C   UNL     1     -10.727  12.981  66.391  1.00  0.00    -0.295 A  
HETATM   22  C   UNL     1     -10.990  11.613  66.255  1.00  0.00    -0.338 A  
HETATM   23  C   UNL     1     -11.056  10.801  67.383  1.00  0.00    -0.363 A  
HETATM   24  C   UNL     1     -10.861  11.358  68.642  1.00  0.00    -0.249 A  
HETATM   25  C   UNL     1     -10.608  12.729  68.774  1.00  0.00    -0.216 A  
ENDBRANCH  12  20
TORSDOF 1
ENDMDL
MODEL       79
REMARK 921   NORMALIZED FREE ENERGY PREDICTED BY IDOCK:   -5.30 KCAL/MOL
REMARK 922        TOTAL FREE ENERGY PREDICTED BY IDOCK:   -5.79 KCAL/MOL
REMARK 923 INTER-LIGAND FREE ENERGY PREDICTED BY IDOCK:   -5.55 KCAL/MOL
REMARK 924 INTRA-LIGAND FREE ENERGY PREDICTED BY IDOCK:   -0.25 KCAL/MOL
REMARK 927      BINDING AFFINITY PREDICTED BY RF-SCORE:    0.00 PKD
ROOT
HETATM    1  N   UNL     1     -12.287  15.167  68.837  1.00  0.00    -0.603 NA 
HETATM    2  H1  UNL     1     -12.117  15.724  68.000  1.00  0.00     0.000 HD 
HETATM    3  C   UNL     1     -12.006  13.820  68.776  1.00  0.00    -0.365 A  
HETATM    4  H2  UNL     1     -12.653  15.592  69.689  1.00  0.00     0.000 HD 
HETATM    5  N   UNL     1     -12.226  13.094  69.867  1.00  0.00    -0.266 NA 
HETATM    6  C   UNL     1     -11.908  11.793  69.792  1.00  0.00    -0.349 A  
HETATM    7  N   UNL     1     -12.203  11.038  70.940  1.00  0.00    -0.362 NA 
HETATM    8  C   UNL     1     -11.390  11.178  68.655  1.00  0.00    -0.277 A  
HETATM    9  H2  UNL     1     -13.188  11.144  71.187  1.00  0.00     0.000 HD 
HETATM   10  H1  UNL     1     -11.961  10.048  70.883  1.00  0.00     0.000 HD 
HETATM   11  N   UNL     1     -11.027   9.862  68.600  1.00  0.00    -0.209 NA 
HETATM   12  C   UNL     1     -10.520   9.406  67.425  1.00  0.00    -0.278 A  
HETATM   13  N   UNL     1     -11.557  13.337  67.624  1.00  0.00    -0.324 NA 
HETATM   14  C   UNL     1     -10.440  10.272  66.322  1.00  0.00    -0.144 A  
HETATM   15  H2  UNL     1     -10.554   9.098  64.765  1.00  0.00     0.000 HD 
HETATM   16  N   UNL     1      -9.991   9.897  65.056  1.00  0.00    -0.385 NA 
HETATM   17  N   UNL     1     -10.791  11.574  66.408  1.00  0.00    -0.278 NA 
HETATM   18  H1  UNL     1      -9.933  10.526  64.256  1.00  0.00     0.000 HD 
HETATM   19  C   UNL     1     -11.251  12.045  67.570  1.00  0.00    -0.294 A  
ENDROOT
BRANCH  12  20
HETATM   20  C   UNL     1     -10.077   7.989  67.448  1.00  0.00    -0.294 A  
HETATM   21  C   UNL     1      -8.746   7.660  67.776  1.00  0.00    -0.127 A  
HETATM   22  C   UNL     1      -8.288   6.338  67.761  1.00  0.00    -0.117 A  
HETATM   23  C   UNL     1      -9.156   5.304  67.420  1.00  0.00    -0.112 A  
HETATM   24  C   UNL     1     -10.475   5.596  67.093  1.00  0.00    -0.334 A  
HETATM   25  C   UNL     1     -10.925   6.922  67.100  1.00  0.00    -0.427 A  
ENDBRANCH  12  20
TORSDOF 1
ENDMDL
MODEL       80
REMARK 921   NORMALIZED FREE ENERGY PREDICTED BY IDOCK:   -5.22 KCAL/MOL
REMARK 922        TOTAL FREE ENERGY PREDICTED BY IDOCK:   -5.70 KCAL/MOL
REMARK 923 INTER-LIGAND FREE ENERGY PREDICTED BY IDOCK:   -5.52 KCAL/MOL
REMARK 924 INTRA-LIGAND FREE ENERGY PREDICTED BY IDOCK:   -0.18 KCAL/MOL
REMARK 927      BINDING AFFINITY PREDICTED BY RF-SCORE:    0.00 PKD
ROOT
HETATM    1  N   UNL     1      -8.709   7.035  74.564  1.00  0.00    -0.190 NA 
HETATM    2  H1  UNL     1      -9.504   6.765  75.143  1.00  0.00     0.000 HD 
HETATM    3  C   UNL     1      -8.967   7.750  73.416  1.00  0.00    -0.256 A  
HETATM    4  H2  UNL     1      -7.756   6.784  74.827  1.00  0.00     0.000 HD 
HETATM    5  N   UNL     1      -7.931   8.103  72.663  1.00  0.00    -0.137 NA 
HETATM    6  C   UNL     1      -8.207   8.831  71.571  1.00  0.00    -0.135 A  
HETATM    7  N   UNL     1      -7.100   9.143  70.763  1.00  0.00    -0.091 NA 
HETATM    8  C   UNL     1      -9.491   9.210  71.187  1.00  0.00    -0.261 A  
HETATM    9  H2  UNL     1      -6.606   8.289  70.500  1.00  0.00     0.000 HD 
HETATM   10  H1  UNL     1      -7.310   9.696  69.933  1.00  0.00     0.000 HD 
HETATM   11  N   UNL     1      -9.762   9.989  70.098  1.00  0.00    -0.196 NA 
HETATM   12  C   UNL     1     -11.064  10.291  69.857  1.00  0.00    -0.304 A  
HETATM   13  N   UNL     1     -10.236   8.015  73.129  1.00  0.00    -0.295 NA 
HETATM   14  C   UNL     1     -12.063   9.759  70.689  1.00  0.00    -0.230 A  
HETATM   15  H2  UNL     1     -13.648   9.658  69.551  1.00  0.00     0.000 HD 
HETATM   16  N   UNL     1     -13.432   9.956  70.502  1.00  0.00    -0.547 NA 
HETATM   17  N   UNL     1     -11.768   9.004  71.770  1.00  0.00    -0.347 NA 
HETATM   18  H1  UNL     1     -14.157   9.570  71.106  1.00  0.00     0.000 HD 
HETATM   19  C   UNL     1     -10.488   8.736  72.041  1.00  0.00    -0.344 A  
ENDROOT
BRANCH  12  20
HETATM   20  C   UNL     1     -11.288  11.198  68.704  1.00  0.00    -0.342 A  
HETATM   21  C   UNL     1     -10.948  10.792  67.397  1.00  0.00    -0.361 A  
HETATM   22  C   UNL     1     -11.104  11.643  66.297  1.00  0.00    -0.345 A  
HETATM   23  C   UNL     1     -11.611  12.926  66.475  1.00  0.00    -0.425 A  
HETATM   24  C   UNL     1     -11.958  13.356  67.751  1.00  0.00    -0.363 A  
HETATM   25  C   UNL     1     -11.790  12.505  68.850  1.00  0.00    -0.346 A  
ENDBRANCH  12  20
TORSDOF 1
ENDMDL
MODEL       81
REMARK 921   NORMALIZED FREE ENERGY PREDICTED BY IDOCK:   -5.21 KCAL/MOL
REMARK 922        TOTAL FREE ENERGY PREDICTED BY IDOCK:   -5.70 KCAL/MOL
REMARK 923 INTER-LIGAND FREE ENERGY PREDICTED BY IDOCK:   -5.72 KCAL/MOL
REMARK 924 INTRA-LIGAND FREE ENERGY PREDICTED BY IDOCK:    0.02 KCAL/MOL
REMARK 927      BINDING AFFINITY PREDICTED BY RF-SCORE:    0.00 PKD
ROOT
HETATM    1  N   UNL     1      -8.217   9.878  63.498  1.00  0.00    -0.151 NA 
HETATM    2  H1  UNL     1      -7.471   9.214  63.708  1.00  0.00     0.000 HD 
HETATM    3  C   UNL     1      -9.049  10.251  64.530  1.00  0.00    -0.234 A  
HETATM    4  H2  UNL     1      -8.342  10.253  62.558  1.00  0.00     0.000 HD 
HETATM    5  N   UNL     1     -10.020  11.116  64.258  1.00  0.00    -0.279 NA 
HETATM    6  C   UNL     1     -10.791  11.491  65.289  1.00  0.00    -0.259 A  
HETATM    7  N   UNL     1     -11.844  12.363  64.963  1.00  0.00    -0.382 NA 
HETATM    8  C   UNL     1     -10.642  11.018  66.590  1.00  0.00    -0.262 A  
HETATM    9  H2  UNL     1     -12.419  11.958  64.224  1.00  0.00     0.000 HD 
HETATM   10  H1  UNL     1     -12.431  12.648  65.747  1.00  0.00     0.000 HD 
HETATM   11  N   UNL     1     -11.403  11.437  67.645  1.00  0.00    -0.361 NA 
HETATM   12  C   UNL     1     -11.132  10.898  68.862  1.00  0.00    -0.252 A  
HETATM   13  N   UNL     1      -8.838   9.700  65.720  1.00  0.00    -0.149 NA 
HETATM   14  C   UNL     1     -10.136   9.914  68.976  1.00  0.00    -0.189 A  
HETATM   15  H2  UNL     1     -10.676   8.845  70.520  1.00  0.00     0.000 HD 
HETATM   16  N   UNL     1      -9.813   9.254  70.162  1.00  0.00    -0.199 NA 
HETATM   17  N   UNL     1      -9.386   9.529  67.920  1.00  0.00    -0.132 NA 
HETATM   18  H1  UNL     1      -9.090   8.539  70.244  1.00  0.00     0.000 HD 
HETATM   19  C   UNL     1      -9.615  10.083  66.727  1.00  0.00    -0.181 A  
ENDROOT
BRANCH  12  20
HETATM   20  C   UNL     1     -11.942  11.445  69.978  1.00  0.00    -0.442 A  
HETATM   21  C   UNL     1     -12.092  12.838  70.140  1.00  0.00    -0.370 A  
HETATM   22  C   UNL     1     -12.811  13.383  71.209  1.00  0.00    -0.407 A  
HETATM   23  C   UNL     1     -13.406  12.545  72.148  1.00  0.00    -0.540 A  
HETATM   24  C   UNL     1     -13.278  11.168  72.016  1.00  0.00    -0.428 A  
HETATM   25  C   UNL     1     -12.549  10.627  70.950  1.00  0.00    -0.503 A  
ENDBRANCH  12  20
TORSDOF 1
ENDMDL
MODEL       82
REMARK 921   NORMALIZED FREE ENERGY PREDICTED BY IDOCK:   -5.21 KCAL/MOL
REMARK 922        TOTAL FREE ENERGY PREDICTED BY IDOCK:   -5.69 KCAL/MOL
REMARK 923 INTER-LIGAND FREE ENERGY PREDICTED BY IDOCK:   -5.47 KCAL/MOL
REMARK 924 INTRA-LIGAND FREE ENERGY PREDICTED BY IDOCK:   -0.22 KCAL/MOL
REMARK 927      BINDING AFFINITY PREDICTED BY RF-SCORE:    0.00 PKD
ROOT
HETATM    1  N   UNL     1      -5.791  16.490  70.025  1.00  0.00    -0.210 NA 
HETATM    2  H1  UNL     1      -5.725  17.492  69.844  1.00  0.00     0.000 HD 
HETATM    3  C   UNL     1      -6.696  15.765  69.283  1.00  0.00    -0.174 A  
HETATM    4  H2  UNL     1      -5.207  16.042  70.730  1.00  0.00     0.000 HD 
HETATM    5  N   UNL     1      -6.782  14.460  69.518  1.00  0.00    -0.137 NA 
HETATM    6  C   UNL     1      -7.644  13.771  68.756  1.00  0.00    -0.099 A  
HETATM    7  N   UNL     1      -7.755  12.404  69.063  1.00  0.00    -0.332 NA 
HETATM    8  C   UNL     1      -8.446  14.342  67.771  1.00  0.00    -0.176 A  
HETATM    9  H2  UNL     1      -7.986  12.284  70.050  1.00  0.00     0.000 HD 
HETATM   10  H1  UNL     1      -8.411  11.881  68.484  1.00  0.00     0.000 HD 
HETATM   11  N   UNL     1      -9.290  13.628  66.968  1.00  0.00    -0.239 NA 
HETATM   12  C   UNL     1      -9.998  14.320  66.038  1.00  0.00    -0.319 A  
HETATM   13  N   UNL     1      -7.439  16.425  68.402  1.00  0.00    -0.164 NA 
HETATM   14  C   UNL     1      -9.876  15.718  65.975  1.00  0.00    -0.337 A  
HETATM   15  H2  UNL     1     -11.584  16.328  65.248  1.00  0.00     0.000 HD 
HETATM   16  N   UNL     1     -10.596  16.533  65.101  1.00  0.00    -0.674 NA 
HETATM   17  N   UNL     1      -9.022  16.399  66.770  1.00  0.00    -0.218 NA 
HETATM   18  H1  UNL     1     -10.508  17.548  65.055  1.00  0.00     0.000 HD 
HETATM   19  C   UNL     1      -8.289  15.724  67.659  1.00  0.00    -0.157 A  
ENDROOT
BRANCH  12  20
HETATM   20  C   UNL     1     -10.842  13.483  65.150  1.00  0.00    -0.336 A  
HETATM   21  C   UNL     1     -10.264  12.761  64.084  1.00  0.00    -0.344 A  
HETATM   22  C   UNL     1     -11.040  12.001  63.203  1.00  0.00    -0.265 A  
HETATM   23  C   UNL     1     -12.421  11.938  63.367  1.00  0.00    -0.582 A  
HETATM   24  C   UNL     1     -13.021  12.636  64.409  1.00  0.00    -0.232 A  
HETATM   25  C   UNL     1     -12.241  13.404  65.282  1.00  0.00    -0.478 A  
ENDBRANCH  12  20
TORSDOF 1
ENDMDL
MODEL       83
REMARK 921   NORMALIZED FREE ENERGY PREDICTED BY IDOCK:   -5.18 KCAL/MOL
REMARK 922        TOTAL FREE ENERGY PREDICTED BY IDOCK:   -5.67 KCAL/MOL
REMARK 923 INTER-LIGAND FREE ENERGY PREDICTED BY IDOCK:   -5.43 KCAL/MOL
REMARK 924 INTRA-LIGAND FREE ENERGY PREDICTED BY IDOCK:   -0.24 KCAL/MOL
REMARK 927      BINDING AFFINITY PREDICTED BY RF-SCORE:    0.00 PKD
ROOT
HETATM    1  N   UNL     1      -9.637   6.166  67.471  1.00  0.00    -0.111 NA 
HETATM    2  H1  UNL     1      -9.197   5.636  66.719  1.00  0.00     0.000 HD 
HETATM    3  C   UNL     1      -9.868   7.507  67.258  1.00  0.00    -0.179 A  
HETATM    4  H2  UNL     1      -9.896   5.720  68.351  1.00  0.00     0.000 HD 
HETATM    5  N   UNL     1     -10.440   8.198  68.237  1.00  0.00    -0.191 NA 
HETATM    6  C   UNL     1     -10.689   9.493  67.989  1.00  0.00    -0.212 A  
HETATM    7  N   UNL     1     -11.243  10.213  69.061  1.00  0.00    -0.373 NA 
HETATM    8  C   UNL     1     -10.368  10.135  66.796  1.00  0.00    -0.222 A  
HETATM    9  H2  UNL     1     -10.653  10.121  69.888  1.00  0.00     0.000 HD 
HETATM   10  H1  UNL     1     -11.432  11.197  68.871  1.00  0.00     0.000 HD 
HETATM   11  N   UNL     1     -10.663  11.443  66.532  1.00  0.00    -0.267 NA 
HETATM   12  C   UNL     1     -10.303  11.930  65.316  1.00  0.00    -0.276 A  
HETATM   13  N   UNL     1      -9.479   8.021  66.097  1.00  0.00    -0.165 NA 
HETATM   14  C   UNL     1      -9.610  11.102  64.417  1.00  0.00    -0.250 A  
HETATM   15  H2  UNL     1      -8.561  12.335  63.323  1.00  0.00     0.000 HD 
HETATM   16  N   UNL     1      -9.143  11.512  63.168  1.00  0.00    -0.537 NA 
HETATM   17  N   UNL     1      -9.344   9.807  64.696  1.00  0.00    -0.270 NA 
HETATM   18  H1  UNL     1      -8.640  10.911  62.516  1.00  0.00     0.000 HD 
HETATM   19  C   UNL     1      -9.732   9.306  65.871  1.00  0.00    -0.285 A  
ENDROOT
BRANCH  12  20
HETATM   20  C   UNL     1     -10.714  13.333  65.062  1.00  0.00    -0.346 A  
HETATM   21  C   UNL     1     -10.012  14.404  65.653  1.00  0.00    -0.365 A  
HETATM   22  C   UNL     1     -10.405  15.734  65.470  1.00  0.00    -0.430 A  
HETATM   23  C   UNL     1     -11.514  16.030  64.682  1.00  0.00    -0.252 A  
HETATM   24  C   UNL     1     -12.226  14.998  64.084  1.00  0.00    -0.234 A  
HETATM   25  C   UNL     1     -11.835  13.667  64.279  1.00  0.00    -0.464 A  
ENDBRANCH  12  20
TORSDOF 1
ENDMDL
MODEL       84
REMARK 921   NORMALIZED FREE ENERGY PREDICTED BY IDOCK:   -5.18 KCAL/MOL
REMARK 922        TOTAL FREE ENERGY PREDICTED BY IDOCK:   -5.66 KCAL/MOL
REMARK 923 INTER-LIGAND FREE ENERGY PREDICTED BY IDOCK:   -5.54 KCAL/MOL
REMARK 924 INTRA-LIGAND FREE ENERGY PREDICTED BY IDOCK:   -0.12 KCAL/MOL
REMARK 927      BINDING AFFINITY PREDICTED BY RF-SCORE:    0.00 PKD
ROOT
HETATM    1  N   UNL     1      -7.476  10.353  64.895  1.00  0.00    -0.284 NA 
HETATM    2  H1  UNL     1      -7.888  10.451  63.967  1.00  0.00     0.000 HD 
HETATM    3  C   UNL     1      -8.136  10.937  65.953  1.00  0.00    -0.120 A  
HETATM    4  H2  UNL     1      -6.605   9.840  65.035  1.00  0.00     0.000 HD 
HETATM    5  N   UNL     1      -7.600  10.808  67.162  1.00  0.00    -0.102 NA 
HETATM    6  C   UNL     1      -8.283  11.354  68.179  1.00  0.00    -0.143 A  
HETATM    7  N   UNL     1      -7.666  11.252  69.438  1.00  0.00    -0.363 NA 
HETATM    8  C   UNL     1      -9.483  12.045  68.033  1.00  0.00    -0.199 A  
HETATM    9  H2  UNL     1      -6.724  11.641  69.399  1.00  0.00     0.000 HD 
HETATM   10  H1  UNL     1      -8.186  11.667  70.211  1.00  0.00     0.000 HD 
HETATM   11  N   UNL     1     -10.196  12.561  69.078  1.00  0.00     0.025 NA 
HETATM   12  C   UNL     1     -11.360  13.198  68.784  1.00  0.00    -0.291 A  
HETATM   13  N   UNL     1      -9.249  11.609  65.687  1.00  0.00    -0.184 NA 
HETATM   14  C   UNL     1     -11.749  13.343  67.442  1.00  0.00    -0.373 A  
HETATM   15  H2  UNL     1     -12.841  14.963  67.420  1.00  0.00     0.000 HD 
HETATM   16  N   UNL     1     -12.891  14.025  67.022  1.00  0.00    -0.192 NA 
HETATM   17  N   UNL     1     -11.033  12.810  66.428  1.00  0.00    -0.271 NA 
HETATM   18  H1  UNL     1     -13.173  14.131  66.048  1.00  0.00     0.000 HD 
HETATM   19  C   UNL     1      -9.910  12.145  66.708  1.00  0.00    -0.206 A  
ENDROOT
BRANCH  12  20
HETATM   20  C   UNL     1     -12.124  13.672  69.965  1.00  0.00    -0.417 A  
HETATM   21  C   UNL     1     -12.626  12.753  70.910  1.00  0.00    -0.342 A  
HETATM   22  C   UNL     1     -13.389  13.167  72.007  1.00  0.00    -0.587 A  
HETATM   23  C   UNL     1     -13.669  14.517  72.191  1.00  0.00    -0.547 A  
HETATM   24  C   UNL     1     -13.187  15.449  71.278  1.00  0.00    -0.585 A  
HETATM   25  C   UNL     1     -12.433  15.029  70.176  1.00  0.00    -0.356 A  
ENDBRANCH  12  20
TORSDOF 1
ENDMDL
MODEL       85
REMARK 921   NORMALIZED FREE ENERGY PREDICTED BY IDOCK:   -5.15 KCAL/MOL
REMARK 922        TOTAL FREE ENERGY PREDICTED BY IDOCK:   -5.63 KCAL/MOL
REMARK 923 INTER-LIGAND FREE ENERGY PREDICTED BY IDOCK:   -5.39 KCAL/MOL
REMARK 924 INTRA-LIGAND FREE ENERGY PREDICTED BY IDOCK:   -0.25 KCAL/MOL
REMARK 927      BINDING AFFINITY PREDICTED BY RF-SCORE:    0.00 PKD
ROOT
HETATM    1  N   UNL     1      -8.662   5.305  67.234  1.00  0.00    -0.108 NA 
HETATM    2  H1  UNL     1      -9.012   5.036  68.154  1.00  0.00     0.000 HD 
HETATM    3  C   UNL     1      -9.010   6.549  66.757  1.00  0.00    -0.131 A  
HETATM    4  H2  UNL     1      -8.076   4.674  66.687  1.00  0.00     0.000 HD 
HETATM    5  N   UNL     1      -8.555   6.900  65.560  1.00  0.00    -0.118 NA 
HETATM    6  C   UNL     1      -8.876   8.131  65.136  1.00  0.00     0.067 A  
HETATM    7  N   UNL     1      -8.429   8.456  63.844  1.00  0.00    -0.388 NA 
HETATM    8  C   UNL     1      -9.657   9.028  65.860  1.00  0.00    -0.247 A  
HETATM    9  H2  UNL     1      -8.755   7.758  63.174  1.00  0.00     0.000 HD 
HETATM   10  H1  UNL     1      -8.674   9.392  63.522  1.00  0.00     0.000 HD 
HETATM   11  N   UNL     1      -9.945  10.297  65.442  1.00  0.00    -0.294 NA 
HETATM   12  C   UNL     1     -10.707  11.065  66.264  1.00  0.00    -0.212 A  
HETATM   13  N   UNL     1      -9.797   7.301  67.518  1.00  0.00    -0.146 NA 
HETATM   14  C   UNL     1     -11.202  10.519  67.459  1.00  0.00    -0.224 A  
HETATM   15  H2  UNL     1     -12.845  11.517  67.812  1.00  0.00     0.000 HD 
HETATM   16  N   UNL     1     -12.039  11.195  68.348  1.00  0.00    -0.727 NA 
HETATM   17  N   UNL     1     -10.890   9.266  67.857  1.00  0.00    -0.178 NA 
HETATM   18  H1  UNL     1     -12.398  10.799  69.216  1.00  0.00     0.000 HD 
HETATM   19  C   UNL     1     -10.106   8.516  67.078  1.00  0.00    -0.277 A  
ENDROOT
BRANCH  12  20
HETATM   20  C   UNL     1     -10.925  12.454  65.790  1.00  0.00    -0.333 A  
HETATM   21  C   UNL     1     -12.048  12.774  64.999  1.00  0.00    -0.491 A  
HETATM   22  C   UNL     1     -12.255  14.064  64.499  1.00  0.00    -0.463 A  
HETATM   23  C   UNL     1     -11.341  15.075  64.782  1.00  0.00    -0.409 A  
HETATM   24  C   UNL     1     -10.224  14.793  65.560  1.00  0.00    -0.400 A  
HETATM   25  C   UNL     1     -10.017  13.498  66.049  1.00  0.00    -0.308 A  
ENDBRANCH  12  20
TORSDOF 1
ENDMDL
MODEL       86
REMARK 921   NORMALIZED FREE ENERGY PREDICTED BY IDOCK:   -5.11 KCAL/MOL
REMARK 922        TOTAL FREE ENERGY PREDICTED BY IDOCK:   -5.59 KCAL/MOL
REMARK 923 INTER-LIGAND FREE ENERGY PREDICTED BY IDOCK:   -5.37 KCAL/MOL
REMARK 924 INTRA-LIGAND FREE ENERGY PREDICTED BY IDOCK:   -0.22 KCAL/MOL
REMARK 927      BINDING AFFINITY PREDICTED BY RF-SCORE:    0.00 PKD
ROOT
HETATM    1  N   UNL     1      -5.543  10.517  71.242  1.00  0.00    -0.271 NA 
HETATM    2  H1  UNL     1      -6.005  10.017  72.001  1.00  0.00     0.000 HD 
HETATM    3  C   UNL     1      -6.299  10.842  70.137  1.00  0.00    -0.147 A  
HETATM    4  H2  UNL     1      -4.556  10.769  71.298  1.00  0.00     0.000 HD 
HETATM    5  N   UNL     1      -5.698  11.494  69.148  1.00  0.00    -0.047 NA 
HETATM    6  C   UNL     1      -6.467  11.830  68.101  1.00  0.00    -0.051 A  
HETATM    7  N   UNL     1      -5.794  12.470  67.046  1.00  0.00    -0.449 NA 
HETATM    8  C   UNL     1      -7.821  11.523  67.994  1.00  0.00    -0.126 A  
HETATM    9  H2  UNL     1      -5.007  11.899  66.734  1.00  0.00     0.000 HD 
HETATM   10  H1  UNL     1      -6.379  12.725  66.250  1.00  0.00     0.000 HD 
HETATM   11  N   UNL     1      -8.608  11.907  66.945  1.00  0.00    -0.182 NA 
HETATM   12  C   UNL     1      -9.917  11.547  66.986  1.00  0.00    -0.200 A  
HETATM   13  N   UNL     1      -7.570  10.457  70.128  1.00  0.00    -0.150 NA 
HETATM   14  C   UNL     1     -10.388  10.767  68.055  1.00  0.00    -0.182 A  
HETATM   15  H2  UNL     1     -11.902   9.780  67.313  1.00  0.00     0.000 HD 
HETATM   16  N   UNL     1     -11.696  10.294  68.169  1.00  0.00    -0.714 NA 
HETATM   17  N   UNL     1      -9.592  10.414  69.088  1.00  0.00    -0.206 NA 
HETATM   18  H1  UNL     1     -12.037   9.728  68.946  1.00  0.00     0.000 HD 
HETATM   19  C   UNL     1      -8.314  10.798  69.080  1.00  0.00    -0.105 A  
ENDROOT
BRANCH  12  20
HETATM   20  C   UNL     1     -10.735  12.054  65.856  1.00  0.00    -0.314 A  
HETATM   21  C   UNL     1     -11.612  13.144  66.039  1.00  0.00    -0.393 A  
HETATM   22  C   UNL     1     -12.430  13.613  65.005  1.00  0.00    -0.454 A  
HETATM   23  C   UNL     1     -12.389  13.006  63.754  1.00  0.00    -0.477 A  
HETATM   24  C   UNL     1     -11.534  11.930  63.541  1.00  0.00    -0.523 A  
HETATM   25  C   UNL     1     -10.725  11.457  64.581  1.00  0.00    -0.378 A  
ENDBRANCH  12  20
TORSDOF 1
ENDMDL
MODEL       87
REMARK 921   NORMALIZED FREE ENERGY PREDICTED BY IDOCK:   -5.09 KCAL/MOL
REMARK 922        TOTAL FREE ENERGY PREDICTED BY IDOCK:   -5.57 KCAL/MOL
REMARK 923 INTER-LIGAND FREE ENERGY PREDICTED BY IDOCK:   -5.32 KCAL/MOL
REMARK 924 INTRA-LIGAND FREE ENERGY PREDICTED BY IDOCK:   -0.25 KCAL/MOL
REMARK 927      BINDING AFFINITY PREDICTED BY RF-SCORE:    0.00 PKD
ROOT
HETATM    1  N   UNL     1      -7.078   5.122  67.861  1.00  0.00    -0.065 NA 
HETATM    2  H1  UNL     1      -6.095   5.336  68.027  1.00  0.00     0.000 HD 
HETATM    3  C   UNL     1      -7.905   6.160  67.490  1.00  0.00    -0.102 A  
HETATM    4  H2  UNL     1      -7.437   4.174  67.965  1.00  0.00     0.000 HD 
HETATM    5  N   UNL     1      -9.186   5.882  67.273  1.00  0.00    -0.113 NA 
HETATM    6  C   UNL     1      -9.960   6.903  66.877  1.00  0.00    -0.200 A  
HETATM    7  N   UNL     1     -11.320   6.593  66.709  1.00  0.00    -0.795 NA 
HETATM    8  C   UNL     1      -9.505   8.208  66.704  1.00  0.00    -0.213 A  
HETATM    9  H2  UNL     1     -11.694   6.180  67.564  1.00  0.00     0.000 HD 
HETATM   10  H1  UNL     1     -11.909   7.369  66.408  1.00  0.00     0.000 HD 
HETATM   11  N   UNL     1     -10.289   9.234  66.258  1.00  0.00    -0.196 NA 
HETATM   12  C   UNL     1      -9.702  10.452  66.123  1.00  0.00    -0.209 A  
HETATM   13  N   UNL     1      -7.368   7.371  67.400  1.00  0.00    -0.099 NA 
HETATM   14  C   UNL     1      -8.356  10.616  66.489  1.00  0.00    -0.143 A  
HETATM   15  H2  UNL     1      -8.210  12.497  66.997  1.00  0.00     0.000 HD 
HETATM   16  N   UNL     1      -7.670  11.830  66.446  1.00  0.00    -0.383 NA 
HETATM   17  N   UNL     1      -7.598   9.580  66.913  1.00  0.00    -0.094 NA 
HETATM   18  H1  UNL     1      -6.693  11.948  66.712  1.00  0.00     0.000 HD 
HETATM   19  C   UNL     1      -8.153   8.370  67.009  1.00  0.00    -0.104 A  
ENDROOT
BRANCH  12  20
HETATM   20  C   UNL     1     -10.584  11.508  65.567  1.00  0.00    -0.334 A  
HETATM   21  C   UNL     1     -10.650  11.728  64.176  1.00  0.00    -0.403 A  
HETATM   22  C   UNL     1     -11.436  12.746  63.626  1.00  0.00    -0.544 A  
HETATM   23  C   UNL     1     -12.185  13.573  64.458  1.00  0.00    -0.445 A  
HETATM   24  C   UNL     1     -12.144  13.381  65.834  1.00  0.00    -0.486 A  
HETATM   25  C   UNL     1     -11.347  12.368  66.380  1.00  0.00    -0.392 A  
ENDBRANCH  12  20
TORSDOF 1
ENDMDL
MODEL       88
REMARK 921   NORMALIZED FREE ENERGY PREDICTED BY IDOCK:   -5.07 KCAL/MOL
REMARK 922        TOTAL FREE ENERGY PREDICTED BY IDOCK:   -5.55 KCAL/MOL
REMARK 923 INTER-LIGAND FREE ENERGY PREDICTED BY IDOCK:   -5.36 KCAL/MOL
REMARK 924 INTRA-LIGAND FREE ENERGY PREDICTED BY IDOCK:   -0.19 KCAL/MOL
REMARK 927      BINDING AFFINITY PREDICTED BY RF-SCORE:    0.00 PKD
ROOT
HETATM    1  N   UNL     1     -11.092  15.534  65.358  1.00  0.00    -0.325 NA 
HETATM    2  H1  UNL     1     -12.097  15.702  65.308  1.00  0.00     0.000 HD 
HETATM    3  C   UNL     1     -10.657  14.495  66.151  1.00  0.00    -0.306 A  
HETATM    4  H2  UNL     1     -10.433  16.114  64.839  1.00  0.00     0.000 HD 
HETATM    5  N   UNL     1      -9.348  14.275  66.216  1.00  0.00    -0.249 NA 
HETATM    6  C   UNL     1      -8.955  13.235  66.965  1.00  0.00    -0.228 A  
HETATM    7  N   UNL     1      -7.564  13.059  67.062  1.00  0.00    -0.388 NA 
HETATM    8  C   UNL     1      -9.823  12.408  67.673  1.00  0.00    -0.198 A  
HETATM    9  H2  UNL     1      -7.123  13.917  67.394  1.00  0.00     0.000 HD 
HETATM   10  H1  UNL     1      -7.264  12.268  67.632  1.00  0.00     0.000 HD 
HETATM   11  N   UNL     1      -9.419  11.323  68.399  1.00  0.00    -0.186 NA 
HETATM   12  C   UNL     1     -10.383  10.599  69.025  1.00  0.00    -0.218 A  
HETATM   13  N   UNL     1     -11.575  13.803  66.815  1.00  0.00    -0.351 NA 
HETATM   14  C   UNL     1     -11.722  11.015  68.946  1.00  0.00    -0.330 A  
HETATM   15  H2  UNL     1     -12.544  10.339  70.585  1.00  0.00     0.000 HD 
HETATM   16  N   UNL     1     -12.783  10.382  69.594  1.00  0.00    -0.614 NA 
HETATM   17  N   UNL     1     -12.097  12.083  68.208  1.00  0.00    -0.421 NA 
HETATM   18  H1  UNL     1     -13.755  10.685  69.537  1.00  0.00     0.000 HD 
HETATM   19  C   UNL     1     -11.163  12.777  67.554  1.00  0.00    -0.289 A  
ENDROOT
BRANCH  12  20
HETATM   20  C   UNL     1      -9.890   9.393  69.737  1.00  0.00    -0.218 A  
HETATM   21  C   UNL     1      -9.442   8.268  69.015  1.00  0.00    -0.155 A  
HETATM   22  C   UNL     1      -9.016   7.101  69.658  1.00  0.00    -0.141 A  
HETATM   23  C   UNL     1      -9.023   7.029  71.048  1.00  0.00    -0.151 A  
HETATM   24  C   UNL     1      -9.456   8.123  71.789  1.00  0.00    -0.249 A  
HETATM   25  C   UNL     1      -9.892   9.285  71.140  1.00  0.00    -0.342 A  
ENDBRANCH  12  20
TORSDOF 1
ENDMDL
MODEL       89
REMARK 921   NORMALIZED FREE ENERGY PREDICTED BY IDOCK:   -5.03 KCAL/MOL
REMARK 922        TOTAL FREE ENERGY PREDICTED BY IDOCK:   -5.50 KCAL/MOL
REMARK 923 INTER-LIGAND FREE ENERGY PREDICTED BY IDOCK:   -5.54 KCAL/MOL
REMARK 924 INTRA-LIGAND FREE ENERGY PREDICTED BY IDOCK:    0.03 KCAL/MOL
REMARK 927      BINDING AFFINITY PREDICTED BY RF-SCORE:    0.00 PKD
ROOT
HETATM    1  N   UNL     1     -12.324  10.796  68.473  1.00  0.00    -0.735 NA 
HETATM    2  H1  UNL     1     -13.070  10.997  69.139  1.00  0.00     0.000 HD 
HETATM    3  C   UNL     1     -11.492  11.832  68.112  1.00  0.00    -0.316 A  
HETATM    4  H2  UNL     1     -12.198   9.859  68.088  1.00  0.00     0.000 HD 
HETATM    5  N   UNL     1     -10.519  11.569  67.246  1.00  0.00    -0.205 NA 
HETATM    6  C   UNL     1      -9.700  12.587  66.941  1.00  0.00    -0.232 A  
HETATM    7  N   UNL     1      -8.716  12.296  65.981  1.00  0.00    -0.400 NA 
HETATM    8  C   UNL     1      -9.826  13.874  67.458  1.00  0.00    -0.236 A  
HETATM    9  H2  UNL     1      -9.150  11.929  65.133  1.00  0.00     0.000 HD 
HETATM   10  H1  UNL     1      -8.094  13.071  65.749  1.00  0.00     0.000 HD 
HETATM   11  N   UNL     1      -8.963  14.895  67.177  1.00  0.00    -0.201 NA 
HETATM   12  C   UNL     1      -9.203  16.094  67.769  1.00  0.00    -0.202 A  
HETATM   13  N   UNL     1     -11.735  13.027  68.636  1.00  0.00    -0.305 NA 
HETATM   14  C   UNL     1     -10.335  16.247  68.586  1.00  0.00    -0.263 A  
HETATM   15  H2  UNL     1     -10.779  18.146  68.460  1.00  0.00     0.000 HD 
HETATM   16  N   UNL     1     -10.709  17.445  69.197  1.00  0.00    -0.350 NA 
HETATM   17  N   UNL     1     -11.165  15.217  68.861  1.00  0.00    -0.267 NA 
HETATM   18  H1  UNL     1     -11.531  17.556  69.791  1.00  0.00     0.000 HD 
HETATM   19  C   UNL     1     -10.914  14.023  68.319  1.00  0.00    -0.255 A  
ENDROOT
BRANCH  12  20
HETATM   20  C   UNL     1      -8.192  17.141  67.483  1.00  0.00    -0.196 A  
HETATM   21  C   UNL     1      -7.669  17.937  68.524  1.00  0.00    -0.299 A  
HETATM   22  C   UNL     1      -6.750  18.962  68.278  1.00  0.00    -0.259 A  
HETATM   23  C   UNL     1      -6.323  19.218  66.978  1.00  0.00    -0.189 A  
HETATM   24  C   UNL     1      -6.818  18.451  65.930  1.00  0.00    -0.317 A  
HETATM   25  C   UNL     1      -7.746  17.432  66.180  1.00  0.00    -0.311 A  
ENDBRANCH  12  20
TORSDOF 1
ENDMDL
MODEL       90
REMARK 921   NORMALIZED FREE ENERGY PREDICTED BY IDOCK:   -4.98 KCAL/MOL
REMARK 922        TOTAL FREE ENERGY PREDICTED BY IDOCK:   -5.45 KCAL/MOL
REMARK 923 INTER-LIGAND FREE ENERGY PREDICTED BY IDOCK:   -5.61 KCAL/MOL
REMARK 924 INTRA-LIGAND FREE ENERGY PREDICTED BY IDOCK:    0.17 KCAL/MOL
REMARK 927      BINDING AFFINITY PREDICTED BY RF-SCORE:    0.00 PKD
ROOT
HETATM    1  N   UNL     1      -9.050   2.540  69.480  1.00  0.00    -0.108 NA 
HETATM    2  H1  UNL     1      -8.905   2.070  70.374  1.00  0.00     0.000 HD 
HETATM    3  C   UNL     1      -9.603   3.801  69.503  1.00  0.00    -0.160 A  
HETATM    4  H2  UNL     1      -8.795   2.091  68.600  1.00  0.00     0.000 HD 
HETATM    5  N   UNL     1      -9.792   4.413  68.339  1.00  0.00    -0.106 NA 
HETATM    6  C   UNL     1     -10.297   5.655  68.393  1.00  0.00    -0.196 A  
HETATM    7  N   UNL     1     -10.538   6.257  67.147  1.00  0.00    -0.268 NA 
HETATM    8  C   UNL     1     -10.640   6.309  69.573  1.00  0.00    -0.271 A  
HETATM    9  H2  UNL     1     -11.139   5.659  66.578  1.00  0.00     0.000 HD 
HETATM   10  H1  UNL     1     -10.922   7.201  67.188  1.00  0.00     0.000 HD 
HETATM   11  N   UNL     1     -11.112   7.590  69.624  1.00  0.00    -0.149 NA 
HETATM   12  C   UNL     1     -11.390   8.103  70.851  1.00  0.00    -0.268 A  
HETATM   13  N   UNL     1      -9.932   4.306  70.686  1.00  0.00    -0.188 NA 
HETATM   14  C   UNL     1     -11.234   7.296  71.990  1.00  0.00    -0.250 A  
HETATM   15  H2  UNL     1     -12.512   8.015  73.281  1.00  0.00     0.000 HD 
HETATM   16  N   UNL     1     -11.542   7.699  73.290  1.00  0.00    -0.629 NA 
HETATM   17  N   UNL     1     -10.749   6.036  71.914  1.00  0.00    -0.225 NA 
HETATM   18  H1  UNL     1     -11.428   7.112  74.116  1.00  0.00     0.000 HD 
HETATM   19  C   UNL     1     -10.433   5.537  70.717  1.00  0.00    -0.260 A  
ENDROOT
BRANCH  12  20
HETATM   20  C   UNL     1     -11.830   9.520  70.847  1.00  0.00    -0.385 A  
HETATM   21  C   UNL     1     -11.314  10.428  69.898  1.00  0.00    -0.370 A  
HETATM   22  C   UNL     1     -11.675  11.780  69.899  1.00  0.00    -0.399 A  
HETATM   23  C   UNL     1     -12.569  12.261  70.851  1.00  0.00    -0.334 A  
HETATM   24  C   UNL     1     -13.097  11.392  71.798  1.00  0.00    -0.523 A  
HETATM   25  C   UNL     1     -12.725  10.042  71.800  1.00  0.00    -0.526 A  
ENDBRANCH  12  20
TORSDOF 1
ENDMDL
MODEL       91
REMARK 921   NORMALIZED FREE ENERGY PREDICTED BY IDOCK:   -4.97 KCAL/MOL
REMARK 922        TOTAL FREE ENERGY PREDICTED BY IDOCK:   -5.44 KCAL/MOL
REMARK 923 INTER-LIGAND FREE ENERGY PREDICTED BY IDOCK:   -5.20 KCAL/MOL
REMARK 924 INTRA-LIGAND FREE ENERGY PREDICTED BY IDOCK:   -0.23 KCAL/MOL
REMARK 927      BINDING AFFINITY PREDICTED BY RF-SCORE:    0.00 PKD
ROOT
HETATM    1  N   UNL     1      -6.736   5.807  65.250  1.00  0.00    -0.043 NA 
HETATM    2  H1  UNL     1      -5.765   6.093  65.378  1.00  0.00     0.000 HD 
HETATM    3  C   UNL     1      -7.673   6.316  66.122  1.00  0.00    -0.096 A  
HETATM    4  H2  UNL     1      -7.004   5.166  64.503  1.00  0.00     0.000 HD 
HETATM    5  N   UNL     1      -8.938   5.944  65.955  1.00  0.00    -0.152 NA 
HETATM    6  C   UNL     1      -9.834   6.485  66.794  1.00  0.00    -0.162 A  
HETATM    7  N   UNL     1     -11.155   6.032  66.631  1.00  0.00    -0.747 NA 
HETATM    8  C   UNL     1      -9.513   7.377  67.813  1.00  0.00    -0.140 A  
HETATM    9  H2  UNL     1     -11.187   5.014  66.692  1.00  0.00     0.000 HD 
HETATM   10  H1  UNL     1     -11.836   6.443  67.269  1.00  0.00     0.000 HD 
HETATM   11  N   UNL     1     -10.436   7.958  68.636  1.00  0.00    -0.194 NA 
HETATM   12  C   UNL     1      -9.975   8.823  69.577  1.00  0.00    -0.195 A  
HETATM   13  N   UNL     1      -7.242   7.124  67.084  1.00  0.00    -0.083 NA 
HETATM   14  C   UNL     1      -8.593   9.040  69.699  1.00  0.00    -0.137 A  
HETATM   15  H2  UNL     1      -8.337   9.534  71.572  1.00  0.00     0.000 HD 
HETATM   16  N   UNL     1      -8.006   9.860  70.663  1.00  0.00    -0.408 NA 
HETATM   17  N   UNL     1      -7.701   8.465  68.862  1.00  0.00    -0.103 NA 
HETATM   18  H1  UNL     1      -7.003  10.017  70.751  1.00  0.00     0.000 HD 
HETATM   19  C   UNL     1      -8.146   7.647  67.906  1.00  0.00    -0.123 A  
ENDROOT
BRANCH  12  20
HETATM   20  C   UNL     1     -11.031   9.475  70.391  1.00  0.00    -0.333 A  
HETATM   21  C   UNL     1     -11.722   8.749  71.383  1.00  0.00    -0.369 A  
HETATM   22  C   UNL     1     -12.754   9.325  72.133  1.00  0.00    -0.465 A  
HETATM   23  C   UNL     1     -13.119  10.649  71.913  1.00  0.00    -0.563 A  
HETATM   24  C   UNL     1     -12.456  11.393  70.944  1.00  0.00    -0.478 A  
HETATM   25  C   UNL     1     -11.432  10.809  70.188  1.00  0.00    -0.415 A  
ENDBRANCH  12  20
TORSDOF 1
ENDMDL
MODEL       92
REMARK 921   NORMALIZED FREE ENERGY PREDICTED BY IDOCK:   -4.95 KCAL/MOL
REMARK 922        TOTAL FREE ENERGY PREDICTED BY IDOCK:   -5.42 KCAL/MOL
REMARK 923 INTER-LIGAND FREE ENERGY PREDICTED BY IDOCK:   -5.20 KCAL/MOL
REMARK 924 INTRA-LIGAND FREE ENERGY PREDICTED BY IDOCK:   -0.21 KCAL/MOL
REMARK 927      BINDING AFFINITY PREDICTED BY RF-SCORE:    0.00 PKD
ROOT
HETATM    1  N   UNL     1     -11.441  14.452  66.361  1.00  0.00    -0.351 NA 
HETATM    2  H1  UNL     1     -10.967  14.793  65.525  1.00  0.00     0.000 HD 
HETATM    3  C   UNL     1     -11.311  13.116  66.669  1.00  0.00    -0.325 A  
HETATM    4  H2  UNL     1     -11.992  15.077  66.949  1.00  0.00     0.000 HD 
HETATM    5  N   UNL     1     -11.928  12.670  67.758  1.00  0.00    -0.374 NA 
HETATM    6  C   UNL     1     -11.754  11.374  68.055  1.00  0.00    -0.254 A  
HETATM    7  N   UNL     1     -12.462  10.917  69.180  1.00  0.00    -0.670 NA 
HETATM    8  C   UNL     1     -10.995  10.492  67.291  1.00  0.00    -0.260 A  
HETATM    9  H2  UNL     1     -13.457  11.123  69.076  1.00  0.00     0.000 HD 
HETATM   10  H1  UNL     1     -12.330   9.931  69.405  1.00  0.00     0.000 HD 
HETATM   11  N   UNL     1     -10.786   9.183  67.622  1.00  0.00    -0.242 NA 
HETATM   12  C   UNL     1     -10.008   8.446  66.787  1.00  0.00    -0.284 A  
HETATM   13  N   UNL     1     -10.599  12.361  65.841  1.00  0.00    -0.252 NA 
HETATM   14  C   UNL     1      -9.505   9.031  65.614  1.00  0.00    -0.203 A  
HETATM   15  H2  UNL     1      -9.284   7.537  64.374  1.00  0.00     0.000 HD 
HETATM   16  N   UNL     1      -8.745   8.355  64.659  1.00  0.00    -0.406 NA 
HETATM   17  N   UNL     1      -9.713  10.333  65.317  1.00  0.00    -0.269 NA 
HETATM   18  H1  UNL     1      -8.380   8.780  63.807  1.00  0.00     0.000 HD 
HETATM   19  C   UNL     1     -10.440  11.078  66.152  1.00  0.00    -0.244 A  
ENDROOT
BRANCH  12  20
HETATM   20  C   UNL     1      -9.759   7.054  67.238  1.00  0.00    -0.189 A  
HETATM   21  C   UNL     1     -10.427   5.972  66.628  1.00  0.00    -0.291 A  
HETATM   22  C   UNL     1     -10.247   4.655  67.062  1.00  0.00    -0.174 A  
HETATM   23  C   UNL     1      -9.386   4.382  68.121  1.00  0.00    -0.195 A  
HETATM   24  C   UNL     1      -8.711   5.426  68.743  1.00  0.00    -0.098 A  
HETATM   25  C   UNL     1      -8.902   6.744  68.311  1.00  0.00    -0.125 A  
ENDBRANCH  12  20
TORSDOF 1
ENDMDL
MODEL       93
REMARK 921   NORMALIZED FREE ENERGY PREDICTED BY IDOCK:   -4.93 KCAL/MOL
REMARK 922        TOTAL FREE ENERGY PREDICTED BY IDOCK:   -5.39 KCAL/MOL
REMARK 923 INTER-LIGAND FREE ENERGY PREDICTED BY IDOCK:   -5.44 KCAL/MOL
REMARK 924 INTRA-LIGAND FREE ENERGY PREDICTED BY IDOCK:    0.04 KCAL/MOL
REMARK 927      BINDING AFFINITY PREDICTED BY RF-SCORE:    0.00 PKD
ROOT
HETATM    1  N   UNL     1     -10.186   6.550  74.291  1.00  0.00    -0.359 NA 
HETATM    2  H1  UNL     1      -9.242   6.571  74.677  1.00  0.00     0.000 HD 
HETATM    3  C   UNL     1     -10.430   7.288  73.155  1.00  0.00    -0.339 A  
HETATM    4  H2  UNL     1     -10.924   6.001  74.732  1.00  0.00     0.000 HD 
HETATM    5  N   UNL     1     -11.660   7.260  72.653  1.00  0.00    -0.256 NA 
HETATM    6  C   UNL     1     -11.860   7.958  71.525  1.00  0.00    -0.289 A  
HETATM    7  N   UNL     1     -13.181   7.956  71.046  1.00  0.00    -0.541 NA 
HETATM    8  C   UNL     1     -10.876   8.704  70.882  1.00  0.00    -0.239 A  
HETATM    9  H2  UNL     1     -13.819   8.277  71.775  1.00  0.00     0.000 HD 
HETATM   10  H1  UNL     1     -13.333   8.487  70.189  1.00  0.00     0.000 HD 
HETATM   11  N   UNL     1     -11.075   9.377  69.709  1.00  0.00    -0.211 NA 
HETATM   12  C   UNL     1     -10.015  10.050  69.190  1.00  0.00    -0.204 A  
HETATM   13  N   UNL     1      -9.425   7.997  72.655  1.00  0.00    -0.222 NA 
HETATM   14  C   UNL     1      -8.798  10.071  69.891  1.00  0.00    -0.147 A  
HETATM   15  H2  UNL     1      -7.949  11.746  69.351  1.00  0.00     0.000 HD 
HETATM   16  N   UNL     1      -7.665  10.775  69.482  1.00  0.00    -0.326 NA 
HETATM   17  N   UNL     1      -8.622   9.384  71.042  1.00  0.00    -0.289 NA 
HETATM   18  H1  UNL     1      -6.782  10.790  69.991  1.00  0.00     0.000 HD 
HETATM   19  C   UNL     1      -9.645   8.684  71.539  1.00  0.00    -0.257 A  
ENDROOT
BRANCH  12  20
HETATM   20  C   UNL     1     -10.273  10.700  67.881  1.00  0.00    -0.206 A  
HETATM   21  C   UNL     1      -9.339  10.591  66.830  1.00  0.00    -0.181 A  
HETATM   22  C   UNL     1      -9.533  11.231  65.602  1.00  0.00    -0.254 A  
HETATM   23  C   UNL     1     -10.675  11.998  65.388  1.00  0.00    -0.330 A  
HETATM   24  C   UNL     1     -11.616  12.123  66.403  1.00  0.00    -0.429 A  
HETATM   25  C   UNL     1     -11.412  11.489  67.635  1.00  0.00    -0.357 A  
ENDBRANCH  12  20
TORSDOF 1
ENDMDL
MODEL       94
REMARK 921   NORMALIZED FREE ENERGY PREDICTED BY IDOCK:   -4.91 KCAL/MOL
REMARK 922        TOTAL FREE ENERGY PREDICTED BY IDOCK:   -5.37 KCAL/MOL
REMARK 923 INTER-LIGAND FREE ENERGY PREDICTED BY IDOCK:   -5.16 KCAL/MOL
REMARK 924 INTRA-LIGAND FREE ENERGY PREDICTED BY IDOCK:   -0.22 KCAL/MOL
REMARK 927      BINDING AFFINITY PREDICTED BY RF-SCORE:    0.00 PKD
ROOT
HETATM    1  N   UNL     1      -5.805  12.173  66.651  1.00  0.00    -0.500 NA 
HETATM    2  H1  UNL     1      -4.943  12.129  67.195  1.00  0.00     0.000 HD 
HETATM    3  C   UNL     1      -6.935  11.607  67.198  1.00  0.00    -0.144 A  
HETATM    4  H2  UNL     1      -5.829  12.619  65.734  1.00  0.00     0.000 HD 
HETATM    5  N   UNL     1      -8.058  11.664  66.490  1.00  0.00    -0.122 NA 
HETATM    6  C   UNL     1      -9.152  11.139  67.062  1.00  0.00    -0.153 A  
HETATM    7  N   UNL     1     -10.312  11.162  66.269  1.00  0.00    -0.242 NA 
HETATM    8  C   UNL     1      -9.165  10.537  68.318  1.00  0.00    -0.152 A  
HETATM    9  H2  UNL     1     -10.134  10.710  65.372  1.00  0.00     0.000 HD 
HETATM   10  H1  UNL     1     -11.144  10.763  66.704  1.00  0.00     0.000 HD 
HETATM   11  N   UNL     1     -10.292  10.044  68.913  1.00  0.00    -0.191 NA 
HETATM   12  C   UNL     1     -10.154   9.499  70.150  1.00  0.00    -0.249 A  
HETATM   13  N   UNL     1      -6.817  11.022  68.383  1.00  0.00    -0.063 NA 
HETATM   14  C   UNL     1      -8.878   9.419  70.732  1.00  0.00    -0.171 A  
HETATM   15  H2  UNL     1      -8.982   7.880  71.932  1.00  0.00     0.000 HD 
HETATM   16  N   UNL     1      -8.612   8.830  71.969  1.00  0.00    -0.369 NA 
HETATM   17  N   UNL     1      -7.782   9.929  70.129  1.00  0.00    -0.175 NA 
HETATM   18  H1  UNL     1      -7.686   8.772  72.392  1.00  0.00     0.000 HD 
HETATM   19  C   UNL     1      -7.912  10.505  68.932  1.00  0.00    -0.128 A  
ENDROOT
BRANCH  12  20
HETATM   20  C   UNL     1     -11.422   9.047  70.774  1.00  0.00    -0.331 A  
HETATM   21  C   UNL     1     -12.319   9.981  71.333  1.00  0.00    -0.512 A  
HETATM   22  C   UNL     1     -13.499   9.580  71.969  1.00  0.00    -0.522 A  
HETATM   23  C   UNL     1     -13.817   8.229  72.060  1.00  0.00    -0.406 A  
HETATM   24  C   UNL     1     -12.955   7.283  71.518  1.00  0.00    -0.434 A  
HETATM   25  C   UNL     1     -11.770   7.688  70.892  1.00  0.00    -0.291 A  
ENDBRANCH  12  20
TORSDOF 1
ENDMDL
MODEL       95
REMARK 921   NORMALIZED FREE ENERGY PREDICTED BY IDOCK:   -4.86 KCAL/MOL
REMARK 922        TOTAL FREE ENERGY PREDICTED BY IDOCK:   -5.32 KCAL/MOL
REMARK 923 INTER-LIGAND FREE ENERGY PREDICTED BY IDOCK:   -5.08 KCAL/MOL
REMARK 924 INTRA-LIGAND FREE ENERGY PREDICTED BY IDOCK:   -0.25 KCAL/MOL
REMARK 927      BINDING AFFINITY PREDICTED BY RF-SCORE:    0.00 PKD
ROOT
HETATM    1  N   UNL     1      -8.523  15.476  66.270  1.00  0.00    -0.398 NA 
HETATM    2  H1  UNL     1      -7.604  15.761  66.609  1.00  0.00     0.000 HD 
HETATM    3  C   UNL     1      -9.048  14.300  66.758  1.00  0.00    -0.249 A  
HETATM    4  H2  UNL     1      -9.035  16.041  65.593  1.00  0.00     0.000 HD 
HETATM    5  N   UNL     1     -10.245  13.928  66.317  1.00  0.00    -0.289 NA 
HETATM    6  C   UNL     1     -10.749  12.800  66.837  1.00  0.00    -0.253 A  
HETATM    7  N   UNL     1     -11.990  12.400  66.312  1.00  0.00    -0.607 NA 
HETATM    8  C   UNL     1     -10.091  12.010  67.777  1.00  0.00    -0.193 A  
HETATM    9  H2  UNL     1     -11.933  12.324  65.296  1.00  0.00     0.000 HD 
HETATM   10  H1  UNL     1     -12.373  11.542  66.708  1.00  0.00     0.000 HD 
HETATM   11  N   UNL     1     -10.629  10.885  68.335  1.00  0.00    -0.182 NA 
HETATM   12  C   UNL     1      -9.875  10.224  69.253  1.00  0.00    -0.228 A  
HETATM   13  N   UNL     1      -8.310  13.608  67.617  1.00  0.00    -0.168 NA 
HETATM   14  C   UNL     1      -8.580  10.684  69.544  1.00  0.00     0.042 A  
HETATM   15  H2  UNL     1      -7.608   9.087  70.111  1.00  0.00     0.000 HD 
HETATM   16  N   UNL     1      -7.700  10.053  70.424  1.00  0.00    -0.388 NA 
HETATM   17  N   UNL     1      -8.078  11.809  68.990  1.00  0.00     0.045 NA 
HETATM   18  H1  UNL     1      -6.760  10.387  70.636  1.00  0.00     0.000 HD 
HETATM   19  C   UNL     1      -8.826  12.490  68.119  1.00  0.00    -0.191 A  
ENDROOT
BRANCH  12  20
HETATM   20  C   UNL     1     -10.540   9.053  69.876  1.00  0.00    -0.240 A  
HETATM   21  C   UNL     1     -10.512   7.792  69.244  1.00  0.00    -0.221 A  
HETATM   22  C   UNL     1     -11.169   6.682  69.784  1.00  0.00    -0.413 A  
HETATM   23  C   UNL     1     -11.873   6.802  70.979  1.00  0.00    -0.427 A  
HETATM   24  C   UNL     1     -11.919   8.031  71.627  1.00  0.00    -0.336 A  
HETATM   25  C   UNL     1     -11.268   9.142  71.077  1.00  0.00    -0.380 A  
ENDBRANCH  12  20
TORSDOF 1
ENDMDL
MODEL       96
REMARK 921   NORMALIZED FREE ENERGY PREDICTED BY IDOCK:   -4.83 KCAL/MOL
REMARK 922        TOTAL FREE ENERGY PREDICTED BY IDOCK:   -5.29 KCAL/MOL
REMARK 923 INTER-LIGAND FREE ENERGY PREDICTED BY IDOCK:   -5.25 KCAL/MOL
REMARK 924 INTRA-LIGAND FREE ENERGY PREDICTED BY IDOCK:   -0.04 KCAL/MOL
REMARK 927      BINDING AFFINITY PREDICTED BY RF-SCORE:    0.00 PKD
ROOT
HETATM    1  N   UNL     1      -7.682   5.213  66.267  1.00  0.00    -0.088 NA 
HETATM    2  H1  UNL     1      -6.973   5.022  65.559  1.00  0.00     0.000 HD 
HETATM    3  C   UNL     1      -8.332   6.426  66.208  1.00  0.00    -0.123 A  
HETATM    4  H2  UNL     1      -7.902   4.531  66.992  1.00  0.00     0.000 HD 
HETATM    5  N   UNL     1      -9.256   6.675  67.130  1.00  0.00    -0.123 NA 
HETATM    6  C   UNL     1      -9.901   7.847  67.028  1.00  0.00    -0.225 A  
HETATM    7  N   UNL     1     -10.832   8.109  68.046  1.00  0.00    -0.464 NA 
HETATM    8  C   UNL     1      -9.644   8.797  66.042  1.00  0.00    -0.226 A  
HETATM    9  H2  UNL     1     -10.384   8.034  68.960  1.00  0.00     0.000 HD 
HETATM   10  H1  UNL     1     -11.322   9.001  67.968  1.00  0.00     0.000 HD 
HETATM   11  N   UNL     1     -10.334   9.970  65.917  1.00  0.00    -0.187 NA 
HETATM   12  C   UNL     1      -9.982  10.794  64.895  1.00  0.00    -0.312 A  
HETATM   13  N   UNL     1      -7.972   7.271  65.250  1.00  0.00    -0.121 NA 
HETATM   14  C   UNL     1      -8.911  10.438  64.058  1.00  0.00    -0.228 A  
HETATM   15  H2  UNL     1      -8.204  12.143  63.416  1.00  0.00     0.000 HD 
HETATM   16  N   UNL     1      -8.429  11.232  63.017  1.00  0.00    -0.445 NA 
HETATM   17  N   UNL     1      -8.255   9.265  64.193  1.00  0.00    -0.149 NA 
HETATM   18  H1  UNL     1      -7.652  10.973  62.409  1.00  0.00     0.000 HD 
HETATM   19  C   UNL     1      -8.621   8.428  65.168  1.00  0.00    -0.132 A  
ENDROOT
BRANCH  12  20
HETATM   20  C   UNL     1     -10.814  12.016  64.768  1.00  0.00    -0.354 A  
HETATM   21  C   UNL     1     -11.102  12.807  65.899  1.00  0.00    -0.318 A  
HETATM   22  C   UNL     1     -11.921  13.938  65.818  1.00  0.00    -0.419 A  
HETATM   23  C   UNL     1     -12.473  14.312  64.597  1.00  0.00    -0.371 A  
HETATM   24  C   UNL     1     -12.207  13.554  63.462  1.00  0.00    -0.410 A  
HETATM   25  C   UNL     1     -11.395  12.417  63.551  1.00  0.00    -0.553 A  
ENDBRANCH  12  20
TORSDOF 1
ENDMDL
MODEL       97
REMARK 921   NORMALIZED FREE ENERGY PREDICTED BY IDOCK:   -4.77 KCAL/MOL
REMARK 922        TOTAL FREE ENERGY PREDICTED BY IDOCK:   -5.23 KCAL/MOL
REMARK 923 INTER-LIGAND FREE ENERGY PREDICTED BY IDOCK:   -5.61 KCAL/MOL
REMARK 924 INTRA-LIGAND FREE ENERGY PREDICTED BY IDOCK:    0.38 KCAL/MOL
REMARK 927      BINDING AFFINITY PREDICTED BY RF-SCORE:    0.00 PKD
ROOT
HETATM    1  N   UNL     1      -9.905  12.002  63.153  1.00  0.00    -0.580 NA 
HETATM    2  H1  UNL     1      -9.354  11.414  62.528  1.00  0.00     0.000 HD 
HETATM    3  C   UNL     1     -10.205  11.503  64.401  1.00  0.00    -0.300 A  
HETATM    4  H2  UNL     1     -10.222  12.927  62.864  1.00  0.00     0.000 HD 
HETATM    5  N   UNL     1     -10.922  12.269  65.216  1.00  0.00    -0.297 NA 
HETATM    6  C   UNL     1     -11.168  11.775  66.438  1.00  0.00    -0.323 A  
HETATM    7  N   UNL     1     -11.974  12.581  67.259  1.00  0.00    -0.505 NA 
HETATM    8  C   UNL     1     -10.737  10.526  66.878  1.00  0.00    -0.219 A  
HETATM    9  H2  UNL     1     -12.852  12.797  66.786  1.00  0.00     0.000 HD 
HETATM   10  H1  UNL     1     -12.161  12.205  68.189  1.00  0.00     0.000 HD 
HETATM   11  N   UNL     1     -10.953  10.046  68.139  1.00  0.00    -0.254 NA 
HETATM   12  C   UNL     1     -10.458   8.814  68.429  1.00  0.00    -0.176 A  
HETATM   13  N   UNL     1      -9.778  10.280  64.693  1.00  0.00    -0.317 NA 
HETATM   14  C   UNL     1      -9.805   8.077  67.428  1.00  0.00    -0.186 A  
HETATM   15  H2  UNL     1     -10.084   6.210  67.932  1.00  0.00     0.000 HD 
HETATM   16  N   UNL     1      -9.310   6.784  67.598  1.00  0.00    -0.120 NA 
HETATM   17  N   UNL     1      -9.590   8.581  66.192  1.00  0.00    -0.228 NA 
HETATM   18  H1  UNL     1      -8.835   6.249  66.871  1.00  0.00     0.000 HD 
HETATM   19  C   UNL     1     -10.034   9.808  65.909  1.00  0.00    -0.275 A  
ENDROOT
BRANCH  12  20
HETATM   20  C   UNL     1     -10.661   8.379  69.833  1.00  0.00    -0.227 A  
HETATM   21  C   UNL     1     -10.385   7.051  70.219  1.00  0.00    -0.219 A  
HETATM   22  C   UNL     1     -10.611   6.600  71.524  1.00  0.00    -0.251 A  
HETATM   23  C   UNL     1     -11.118   7.471  72.484  1.00  0.00    -0.371 A  
HETATM   24  C   UNL     1     -11.399   8.788  72.136  1.00  0.00    -0.411 A  
HETATM   25  C   UNL     1     -11.181   9.231  70.826  1.00  0.00    -0.351 A  
ENDBRANCH  12  20
TORSDOF 1
ENDMDL
MODEL       98
REMARK 921   NORMALIZED FREE ENERGY PREDICTED BY IDOCK:   -4.73 KCAL/MOL
REMARK 922        TOTAL FREE ENERGY PREDICTED BY IDOCK:   -5.18 KCAL/MOL
REMARK 923 INTER-LIGAND FREE ENERGY PREDICTED BY IDOCK:   -5.30 KCAL/MOL
REMARK 924 INTRA-LIGAND FREE ENERGY PREDICTED BY IDOCK:    0.11 KCAL/MOL
REMARK 927      BINDING AFFINITY PREDICTED BY RF-SCORE:    0.00 PKD
ROOT
HETATM    1  N   UNL     1      -8.994   3.275  71.882  1.00  0.00    -0.093 NA 
HETATM    2  H1  UNL     1      -8.853   2.855  70.963  1.00  0.00     0.000 HD 
HETATM    3  C   UNL     1      -9.455   4.572  71.929  1.00  0.00    -0.146 A  
HETATM    4  H2  UNL     1      -8.802   2.753  72.737  1.00  0.00     0.000 HD 
HETATM    5  N   UNL     1      -9.639   5.119  73.125  1.00  0.00    -0.141 NA 
HETATM    6  C   UNL     1     -10.123   6.370  73.142  1.00  0.00    -0.189 A  
HETATM    7  N   UNL     1     -10.256   6.944  74.418  1.00  0.00    -0.441 NA 
HETATM    8  C   UNL     1     -10.417   7.110  72.000  1.00  0.00    -0.207 A  
HETATM    9  H2  UNL     1      -9.365   6.906  74.914  1.00  0.00     0.000 HD 
HETATM   10  H1  UNL     1     -10.624   7.895  74.430  1.00  0.00     0.000 HD 
HETATM   11  N   UNL     1     -10.952   8.367  72.024  1.00  0.00    -0.299 NA 
HETATM   12  C   UNL     1     -11.201   8.961  70.827  1.00  0.00    -0.272 A  
HETATM   13  N   UNL     1      -9.658   5.194  70.773  1.00  0.00    -0.169 NA 
HETATM   14  C   UNL     1     -10.857   8.294  69.640  1.00  0.00    -0.150 A  
HETATM   15  H2  UNL     1     -10.526   9.725  68.351  1.00  0.00     0.000 HD 
HETATM   16  N   UNL     1     -11.015   8.830  68.361  1.00  0.00    -0.451 NA 
HETATM   17  N   UNL     1     -10.344   7.044  69.643  1.00  0.00    -0.202 NA 
HETATM   18  H1  UNL     1     -10.766   8.346  67.499  1.00  0.00     0.000 HD 
HETATM   19  C   UNL     1     -10.135   6.434  70.812  1.00  0.00    -0.187 A  
ENDROOT
BRANCH  12  20
HETATM   20  C   UNL     1     -11.847  10.294  70.918  1.00  0.00    -0.473 A  
HETATM   21  C   UNL     1     -11.443  11.345  70.070  1.00  0.00    -0.331 A  
HETATM   22  C   UNL     1     -12.001  12.625  70.164  1.00  0.00    -0.375 A  
HETATM   23  C   UNL     1     -12.987  12.886  71.111  1.00  0.00    -0.259 A  
HETATM   24  C   UNL     1     -13.409  11.870  71.961  1.00  0.00    -0.425 A  
HETATM   25  C   UNL     1     -12.840  10.595  71.869  1.00  0.00    -0.487 A  
ENDBRANCH  12  20
TORSDOF 1
ENDMDL
MODEL       99
REMARK 921   NORMALIZED FREE ENERGY PREDICTED BY IDOCK:   -4.72 KCAL/MOL
REMARK 922        TOTAL FREE ENERGY PREDICTED BY IDOCK:   -5.18 KCAL/MOL
REMARK 923 INTER-LIGAND FREE ENERGY PREDICTED BY IDOCK:   -4.94 KCAL/MOL
REMARK 924 INTRA-LIGAND FREE ENERGY PREDICTED BY IDOCK:   -0.24 KCAL/MOL
REMARK 927      BINDING AFFINITY PREDICTED BY RF-SCORE:    0.00 PKD
ROOT
HETATM    1  N   UNL     1      -7.079   8.683  71.521  1.00  0.00    -0.085 NA 
HETATM    2  H1  UNL     1      -6.329   9.307  71.817  1.00  0.00     0.000 HD 
HETATM    3  C   UNL     1      -7.904   9.114  70.505  1.00  0.00    -0.142 A  
HETATM    4  H2  UNL     1      -7.214   7.773  71.961  1.00  0.00     0.000 HD 
HETATM    5  N   UNL     1      -8.882   8.301  70.118  1.00  0.00    -0.139 NA 
HETATM    6  C   UNL     1      -9.646   8.729  69.103  1.00  0.00    -0.162 A  
HETATM    7  N   UNL     1     -10.706   7.876  68.751  1.00  0.00    -0.394 NA 
HETATM    8  C   UNL     1      -9.483   9.955  68.463  1.00  0.00    -0.146 A  
HETATM    9  H2  UNL     1     -11.286   7.680  69.568  1.00  0.00     0.000 HD 
HETATM   10  H1  UNL     1     -11.288   8.201  67.978  1.00  0.00     0.000 HD 
HETATM   11  N   UNL     1     -10.237  10.366  67.401  1.00  0.00    -0.202 NA 
HETATM   12  C   UNL     1      -9.952  11.583  66.868  1.00  0.00    -0.205 A  
HETATM   13  N   UNL     1      -7.680  10.321  70.002  1.00  0.00    -0.139 NA 
HETATM   14  C   UNL     1      -8.951  12.376  67.453  1.00  0.00    -0.185 A  
HETATM   15  H2  UNL     1      -9.472  14.212  67.035  1.00  0.00     0.000 HD 
HETATM   16  N   UNL     1      -8.614  13.661  67.026  1.00  0.00    -0.345 NA 
HETATM   17  N   UNL     1      -8.208  11.940  68.494  1.00  0.00    -0.149 NA 
HETATM   18  H1  UNL     1      -7.887  14.236  67.450  1.00  0.00     0.000 HD 
HETATM   19  C   UNL     1      -8.451  10.728  68.998  1.00  0.00    -0.133 A  
ENDROOT
BRANCH  12  20
HETATM   20  C   UNL     1     -10.756  11.942  65.673  1.00  0.00    -0.325 A  
HETATM   21  C   UNL     1     -10.225  11.777  64.377  1.00  0.00    -0.332 A  
HETATM   22  C   UNL     1     -10.941  12.150  63.235  1.00  0.00    -0.398 A  
HETATM   23  C   UNL     1     -12.215  12.697  63.358  1.00  0.00    -0.610 A  
HETATM   24  C   UNL     1     -12.767  12.871  64.622  1.00  0.00    -0.403 A  
HETATM   25  C   UNL     1     -12.042  12.506  65.763  1.00  0.00    -0.443 A  
ENDBRANCH  12  20
TORSDOF 1
ENDMDL
MODEL      100
REMARK 921   NORMALIZED FREE ENERGY PREDICTED BY IDOCK:   -4.71 KCAL/MOL
REMARK 922        TOTAL FREE ENERGY PREDICTED BY IDOCK:   -5.17 KCAL/MOL
REMARK 923 INTER-LIGAND FREE ENERGY PREDICTED BY IDOCK:   -5.44 KCAL/MOL
REMARK 924 INTRA-LIGAND FREE ENERGY PREDICTED BY IDOCK:    0.28 KCAL/MOL
REMARK 927      BINDING AFFINITY PREDICTED BY RF-SCORE:    0.00 PKD
ROOT
HETATM    1  N   UNL     1     -11.480  14.903  67.239  1.00  0.00    -0.352 NA 
HETATM    2  H1  UNL     1     -12.225  15.480  67.630  1.00  0.00     0.000 HD 
HETATM    3  C   UNL     1     -11.241  13.682  67.828  1.00  0.00    -0.285 A  
HETATM    4  H2  UNL     1     -10.931  15.221  66.440  1.00  0.00     0.000 HD 
HETATM    5  N   UNL     1     -10.270  12.930  67.318  1.00  0.00    -0.233 NA 
HETATM    6  C   UNL     1     -10.084  11.730  67.886  1.00  0.00    -0.186 A  
HETATM    7  N   UNL     1      -9.016  10.980  67.364  1.00  0.00    -0.141 NA 
HETATM    8  C   UNL     1     -10.823  11.252  68.965  1.00  0.00    -0.222 A  
HETATM    9  H2  UNL     1      -8.153  11.524  67.402  1.00  0.00     0.000 HD 
HETATM   10  H1  UNL     1      -8.874  10.067  67.797  1.00  0.00     0.000 HD 
HETATM   11  N   UNL     1     -10.658  10.010  69.511  1.00  0.00    -0.227 NA 
HETATM   12  C   UNL     1     -11.464   9.676  70.552  1.00  0.00    -0.285 A  
HETATM   13  N   UNL     1     -11.980  13.351  68.880  1.00  0.00    -0.338 NA 
HETATM   14  C   UNL     1     -12.379  10.618  71.049  1.00  0.00    -0.403 A  
HETATM   15  H2  UNL     1     -12.616  10.131  72.926  1.00  0.00     0.000 HD 
HETATM   16  N   UNL     1     -13.214  10.403  72.146  1.00  0.00    -0.562 NA 
HETATM   17  N   UNL     1     -12.535  11.834  70.481  1.00  0.00    -0.268 NA 
HETATM   18  H1  UNL     1     -13.879  11.088  72.507  1.00  0.00     0.000 HD 
HETATM   19  C   UNL     1     -11.777  12.158  69.430  1.00  0.00    -0.329 A  
ENDROOT
BRANCH  12  20
HETATM   20  C   UNL     1     -11.287   8.291  71.055  1.00  0.00    -0.299 A  
HETATM   21  C   UNL     1     -10.175   7.520  70.655  1.00  0.00    -0.202 A  
HETATM   22  C   UNL     1     -10.006   6.196  71.075  1.00  0.00    -0.221 A  
HETATM   23  C   UNL     1     -10.947   5.607  71.914  1.00  0.00    -0.297 A  
HETATM   24  C   UNL     1     -12.053   6.340  72.328  1.00  0.00    -0.255 A  
HETATM   25  C   UNL     1     -12.223   7.661  71.896  1.00  0.00    -0.336 A  
ENDBRANCH  12  20
TORSDOF 1
ENDMDL
MODEL      101
REMARK 921   NORMALIZED FREE ENERGY PREDICTED BY IDOCK:   -4.71 KCAL/MOL
REMARK 922        TOTAL FREE ENERGY PREDICTED BY IDOCK:   -5.16 KCAL/MOL
REMARK 923 INTER-LIGAND FREE ENERGY PREDICTED BY IDOCK:   -4.95 KCAL/MOL
REMARK 924 INTRA-LIGAND FREE ENERGY PREDICTED BY IDOCK:   -0.21 KCAL/MOL
REMARK 927      BINDING AFFINITY PREDICTED BY RF-SCORE:    0.00 PKD
ROOT
HETATM    1  N   UNL     1     -10.861  19.267  65.632  1.00  0.00    -0.357 NA 
HETATM    2  H1  UNL     1     -10.559  19.981  66.294  1.00  0.00     0.000 HD 
HETATM    3  C   UNL     1     -10.482  17.966  65.877  1.00  0.00    -0.253 A  
HETATM    4  H2  UNL     1     -11.424  19.508  64.816  1.00  0.00     0.000 HD 
HETATM    5  N   UNL     1     -10.876  17.036  65.014  1.00  0.00    -0.653 NA 
HETATM    6  C   UNL     1     -10.525  15.772  65.297  1.00  0.00    -0.401 A  
HETATM    7  N   UNL     1     -10.907  14.816  64.340  1.00  0.00    -0.592 NA 
HETATM    8  C   UNL     1      -9.774  15.399  66.408  1.00  0.00    -0.288 A  
HETATM    9  H2  UNL     1     -10.554  15.081  63.420  1.00  0.00     0.000 HD 
HETATM   10  H1  UNL     1     -10.640  13.856  64.555  1.00  0.00     0.000 HD 
HETATM   11  N   UNL     1      -9.457  14.106  66.714  1.00  0.00    -0.269 NA 
HETATM   12  C   UNL     1      -8.730  13.893  67.842  1.00  0.00    -0.184 A  
HETATM   13  N   UNL     1      -9.728  17.736  66.945  1.00  0.00    -0.288 NA 
HETATM   14  C   UNL     1      -8.298  14.991  68.604  1.00  0.00    -0.166 A  
HETATM   15  H2  UNL     1      -6.667  14.368  69.482  1.00  0.00     0.000 HD 
HETATM   16  N   UNL     1      -7.501  14.894  69.745  1.00  0.00    -0.352 NA 
HETATM   17  N   UNL     1      -8.638  16.260  68.288  1.00  0.00    -0.190 NA 
HETATM   18  H1  UNL     1      -7.187  15.691  70.298  1.00  0.00     0.000 HD 
HETATM   19  C   UNL     1      -9.388  16.478  67.206  1.00  0.00    -0.222 A  
ENDROOT
BRANCH  12  20
HETATM   20  C   UNL     1      -8.480  12.465  68.159  1.00  0.00    -0.180 A  
HETATM   21  C   UNL     1      -7.209  11.894  67.939  1.00  0.00    -0.095 A  
HETATM   22  C   UNL     1      -6.957  10.540  68.185  1.00  0.00    -0.073 A  
HETATM   23  C   UNL     1      -7.972   9.718  68.664  1.00  0.00    -0.089 A  
HETATM   24  C   UNL     1      -9.236  10.251  68.893  1.00  0.00    -0.176 A  
HETATM   25  C   UNL     1      -9.486  11.604  68.636  1.00  0.00    -0.129 A  
ENDBRANCH  12  20
TORSDOF 1
ENDMDL
MODEL      102
REMARK 921   NORMALIZED FREE ENERGY PREDICTED BY IDOCK:   -4.68 KCAL/MOL
REMARK 922        TOTAL FREE ENERGY PREDICTED BY IDOCK:   -5.14 KCAL/MOL
REMARK 923 INTER-LIGAND FREE ENERGY PREDICTED BY IDOCK:   -5.08 KCAL/MOL
REMARK 924 INTRA-LIGAND FREE ENERGY PREDICTED BY IDOCK:   -0.06 KCAL/MOL
REMARK 927      BINDING AFFINITY PREDICTED BY RF-SCORE:    0.00 PKD
ROOT
HETATM    1  N   UNL     1     -11.959  15.626  67.993  1.00  0.00    -0.316 NA 
HETATM    2  H1  UNL     1     -12.598  15.881  68.746  1.00  0.00     0.000 HD 
HETATM    3  C   UNL     1     -11.522  14.321  67.940  1.00  0.00    -0.315 A  
HETATM    4  H2  UNL     1     -11.654  16.313  67.303  1.00  0.00     0.000 HD 
HETATM    5  N   UNL     1     -10.690  13.988  66.959  1.00  0.00    -0.283 NA 
HETATM    6  C   UNL     1     -10.310  12.703  66.909  1.00  0.00    -0.233 A  
HETATM    7  N   UNL     1      -9.387  12.390  65.897  1.00  0.00    -0.422 NA 
HETATM    8  C   UNL     1     -10.717  11.731  67.819  1.00  0.00    -0.205 A  
HETATM    9  H2  UNL     1      -8.568  12.995  65.969  1.00  0.00     0.000 HD 
HETATM   10  H1  UNL     1      -9.098  11.413  65.859  1.00  0.00     0.000 HD 
HETATM   11  N   UNL     1     -10.362  10.414  67.737  1.00  0.00    -0.192 NA 
HETATM   12  C   UNL     1     -10.850   9.577  68.689  1.00  0.00    -0.139 A  
HETATM   13  N   UNL     1     -11.943  13.493  68.889  1.00  0.00    -0.349 NA 
HETATM   14  C   UNL     1     -11.641  10.096  69.728  1.00  0.00    -0.182 A  
HETATM   15  H2  UNL     1     -11.353   8.872  71.224  1.00  0.00     0.000 HD 
HETATM   16  N   UNL     1     -12.147   9.341  70.786  1.00  0.00    -0.443 NA 
HETATM   17  N   UNL     1     -11.992  11.400  69.777  1.00  0.00    -0.334 NA 
HETATM   18  H1  UNL     1     -12.721   9.718  71.540  1.00  0.00     0.000 HD 
HETATM   19  C   UNL     1     -11.553  12.224  68.823  1.00  0.00    -0.330 A  
ENDROOT
BRANCH  12  20
HETATM   20  C   UNL     1     -10.489   8.149  68.506  1.00  0.00    -0.199 A  
HETATM   21  C   UNL     1     -10.798   7.481  67.303  1.00  0.00    -0.297 A  
HETATM   22  C   UNL     1     -10.511   6.124  67.120  1.00  0.00    -0.327 A  
HETATM   23  C   UNL     1      -9.900   5.397  68.137  1.00  0.00    -0.188 A  
HETATM   24  C   UNL     1      -9.581   6.027  69.334  1.00  0.00    -0.161 A  
HETATM   25  C   UNL     1      -9.879   7.383  69.517  1.00  0.00    -0.165 A  
ENDBRANCH  12  20
TORSDOF 1
ENDMDL
MODEL      103
REMARK 921   NORMALIZED FREE ENERGY PREDICTED BY IDOCK:   -4.61 KCAL/MOL
REMARK 922        TOTAL FREE ENERGY PREDICTED BY IDOCK:   -5.06 KCAL/MOL
REMARK 923 INTER-LIGAND FREE ENERGY PREDICTED BY IDOCK:   -5.32 KCAL/MOL
REMARK 924 INTRA-LIGAND FREE ENERGY PREDICTED BY IDOCK:    0.26 KCAL/MOL
REMARK 927      BINDING AFFINITY PREDICTED BY RF-SCORE:    0.00 PKD
ROOT
HETATM    1  N   UNL     1      -8.288   7.059  64.793  1.00  0.00    -0.322 NA 
HETATM    2  H1  UNL     1      -7.595   7.630  64.308  1.00  0.00     0.000 HD 
HETATM    3  C   UNL     1      -9.002   7.648  65.812  1.00  0.00    -0.053 A  
HETATM    4  H2  UNL     1      -8.445   6.086  64.531  1.00  0.00     0.000 HD 
HETATM    5  N   UNL     1      -9.904   6.904  66.443  1.00  0.00    -0.094 NA 
HETATM    6  C   UNL     1     -10.612   7.513  67.406  1.00  0.00    -0.294 A  
HETATM    7  N   UNL     1     -11.519   6.689  68.094  1.00  0.00    -0.551 NA 
HETATM    8  C   UNL     1     -10.441   8.843  67.780  1.00  0.00    -0.239 A  
HETATM    9  H2  UNL     1     -11.035   5.875  68.475  1.00  0.00     0.000 HD 
HETATM   10  H1  UNL     1     -12.057   7.152  68.826  1.00  0.00     0.000 HD 
HETATM   11  N   UNL     1     -11.195   9.469  68.732  1.00  0.00     0.010 NA 
HETATM   12  C   UNL     1     -10.923  10.777  68.980  1.00  0.00    -0.240 A  
HETATM   13  N   UNL     1      -8.721   8.910  66.110  1.00  0.00    -0.145 NA 
HETATM   14  C   UNL     1      -9.866  11.405  68.300  1.00  0.00    -0.200 A  
HETATM   15  H2  UNL     1      -9.272  12.817  69.514  1.00  0.00     0.000 HD 
HETATM   16  N   UNL     1      -9.463  12.724  68.516  1.00  0.00    -0.381 NA 
HETATM   17  N   UNL     1      -9.145  10.768  67.352  1.00  0.00    -0.143 NA 
HETATM   18  H1  UNL     1      -8.696  13.179  68.023  1.00  0.00     0.000 HD 
HETATM   19  C   UNL     1      -9.431   9.495  67.069  1.00  0.00    -0.155 A  
ENDROOT
BRANCH  12  20
HETATM   20  C   UNL     1     -11.822  11.421  69.970  1.00  0.00    -0.440 A  
HETATM   21  C   UNL     1     -12.028  12.816  69.950  1.00  0.00    -0.368 A  
HETATM   22  C   UNL     1     -12.832  13.457  70.899  1.00  0.00    -0.279 A  
HETATM   23  C   UNL     1     -13.458  12.714  71.895  1.00  0.00    -0.424 A  
HETATM   24  C   UNL     1     -13.277  11.337  71.941  1.00  0.00    -0.491 A  
HETATM   25  C   UNL     1     -12.463  10.702  70.996  1.00  0.00    -0.515 A  
ENDBRANCH  12  20
TORSDOF 1
ENDMDL
MODEL      104
REMARK 921   NORMALIZED FREE ENERGY PREDICTED BY IDOCK:   -4.60 KCAL/MOL
REMARK 922        TOTAL FREE ENERGY PREDICTED BY IDOCK:   -5.05 KCAL/MOL
REMARK 923 INTER-LIGAND FREE ENERGY PREDICTED BY IDOCK:   -4.81 KCAL/MOL
REMARK 924 INTRA-LIGAND FREE ENERGY PREDICTED BY IDOCK:   -0.24 KCAL/MOL
REMARK 927      BINDING AFFINITY PREDICTED BY RF-SCORE:    0.00 PKD
ROOT
HETATM    1  N   UNL     1      -7.737  10.819  63.104  1.00  0.00    -0.363 NA 
HETATM    2  H1  UNL     1      -8.422  11.445  62.680  1.00  0.00     0.000 HD 
HETATM    3  C   UNL     1      -8.011  10.330  64.362  1.00  0.00    -0.135 A  
HETATM    4  H2  UNL     1      -6.880  10.564  62.613  1.00  0.00     0.000 HD 
HETATM    5  N   UNL     1      -7.120   9.514  64.914  1.00  0.00    -0.102 NA 
HETATM    6  C   UNL     1      -7.429   9.022  66.123  1.00  0.00    -0.091 A  
HETATM    7  N   UNL     1      -6.445   8.207  66.707  1.00  0.00    -0.055 NA 
HETATM    8  C   UNL     1      -8.596   9.330  66.817  1.00  0.00    -0.127 A  
HETATM    9  H2  UNL     1      -5.555   8.705  66.748  1.00  0.00     0.000 HD 
HETATM   10  H1  UNL     1      -6.680   7.834  67.627  1.00  0.00     0.000 HD 
HETATM   11  N   UNL     1      -8.926   8.792  68.029  1.00  0.00    -0.140 NA 
HETATM   12  C   UNL     1     -10.107   9.175  68.580  1.00  0.00    -0.191 A  
HETATM   13  N   UNL     1      -9.135  10.729  64.945  1.00  0.00    -0.196 NA 
HETATM   14  C   UNL     1     -10.901  10.128  67.921  1.00  0.00    -0.284 A  
HETATM   15  H2  UNL     1     -11.904  11.005  69.350  1.00  0.00     0.000 HD 
HETATM   16  N   UNL     1     -12.101  10.635  68.420  1.00  0.00    -0.813 NA 
HETATM   17  N   UNL     1     -10.560  10.633  66.715  1.00  0.00    -0.250 NA 
HETATM   18  H1  UNL     1     -12.677  11.327  67.941  1.00  0.00     0.000 HD 
HETATM   19  C   UNL     1      -9.422  10.232  66.144  1.00  0.00    -0.181 A  
ENDROOT
BRANCH  12  20
HETATM   20  C   UNL     1     -10.443   8.503  69.859  1.00  0.00    -0.219 A  
HETATM   21  C   UNL     1     -10.095   9.093  71.092  1.00  0.00    -0.384 A  
HETATM   22  C   UNL     1     -10.356   8.461  72.312  1.00  0.00    -0.403 A  
HETATM   23  C   UNL     1     -10.980   7.217  72.333  1.00  0.00    -0.286 A  
HETATM   24  C   UNL     1     -11.337   6.609  71.135  1.00  0.00    -0.355 A  
HETATM   25  C   UNL     1     -11.064   7.241  69.916  1.00  0.00    -0.233 A  
ENDBRANCH  12  20
TORSDOF 1
ENDMDL
MODEL      105
REMARK 921   NORMALIZED FREE ENERGY PREDICTED BY IDOCK:   -4.60 KCAL/MOL
REMARK 922        TOTAL FREE ENERGY PREDICTED BY IDOCK:   -5.05 KCAL/MOL
REMARK 923 INTER-LIGAND FREE ENERGY PREDICTED BY IDOCK:   -4.92 KCAL/MOL
REMARK 924 INTRA-LIGAND FREE ENERGY PREDICTED BY IDOCK:   -0.13 KCAL/MOL
REMARK 927      BINDING AFFINITY PREDICTED BY RF-SCORE:    0.00 PKD
ROOT
HETATM    1  N   UNL     1      -5.857  11.022  66.047  1.00  0.00    -0.223 NA 
HETATM    2  H1  UNL     1      -6.063  10.088  65.693  1.00  0.00     0.000 HD 
HETATM    3  C   UNL     1      -6.847  11.673  66.749  1.00  0.00    -0.086 A  
HETATM    4  H2  UNL     1      -4.949  11.459  65.887  1.00  0.00     0.000 HD 
HETATM    5  N   UNL     1      -6.579  12.889  67.210  1.00  0.00    -0.176 NA 
HETATM    6  C   UNL     1      -7.547  13.484  67.923  1.00  0.00    -0.151 A  
HETATM    7  N   UNL     1      -7.258  14.791  68.351  1.00  0.00    -0.108 NA 
HETATM    8  C   UNL     1      -8.792  12.915  68.179  1.00  0.00    -0.194 A  
HETATM    9  H2  UNL     1      -7.001  15.373  67.554  1.00  0.00     0.000 HD 
HETATM   10  H1  UNL     1      -7.995  15.244  68.893  1.00  0.00     0.000 HD 
HETATM   11  N   UNL     1      -9.758  13.508  68.942  1.00  0.00     0.009 NA 
HETATM   12  C   UNL     1     -10.919  12.825  69.119  1.00  0.00    -0.133 A  
HETATM   13  N   UNL     1      -8.010  11.048  66.892  1.00  0.00    -0.136 NA 
HETATM   14  C   UNL     1     -11.096  11.586  68.481  1.00  0.00    -0.236 A  
HETATM   15  H2  UNL     1     -13.029  11.429  68.242  1.00  0.00     0.000 HD 
HETATM   16  N   UNL     1     -12.264  10.826  68.547  1.00  0.00    -0.822 NA 
HETATM   17  N   UNL     1     -10.118  11.013  67.745  1.00  0.00    -0.175 NA 
HETATM   18  H1  UNL     1     -12.393   9.927  68.084  1.00  0.00     0.000 HD 
HETATM   19  C   UNL     1      -8.958  11.656  67.599  1.00  0.00    -0.166 A  
ENDROOT
BRANCH  12  20
HETATM   20  C   UNL     1     -11.899  13.487  70.015  1.00  0.00    -0.371 A  
HETATM   21  C   UNL     1     -12.351  14.794  69.740  1.00  0.00    -0.291 A  
HETATM   22  C   UNL     1     -13.239  15.461  70.592  1.00  0.00    -0.356 A  
HETATM   23  C   UNL     1     -13.704  14.833  71.744  1.00  0.00    -0.511 A  
HETATM   24  C   UNL     1     -13.278  13.544  72.042  1.00  0.00    -0.529 A  
HETATM   25  C   UNL     1     -12.381  12.885  71.192  1.00  0.00    -0.262 A  
ENDBRANCH  12  20
TORSDOF 1
ENDMDL
MODEL      106
REMARK 921   NORMALIZED FREE ENERGY PREDICTED BY IDOCK:   -4.60 KCAL/MOL
REMARK 922        TOTAL FREE ENERGY PREDICTED BY IDOCK:   -5.05 KCAL/MOL
REMARK 923 INTER-LIGAND FREE ENERGY PREDICTED BY IDOCK:   -5.34 KCAL/MOL
REMARK 924 INTRA-LIGAND FREE ENERGY PREDICTED BY IDOCK:    0.30 KCAL/MOL
REMARK 927      BINDING AFFINITY PREDICTED BY RF-SCORE:    0.00 PKD
ROOT
HETATM    1  N   UNL     1     -12.189  13.663  68.096  1.00  0.00    -0.382 NA 
HETATM    2  H1  UNL     1     -12.624  14.154  68.877  1.00  0.00     0.000 HD 
HETATM    3  C   UNL     1     -11.730  12.384  68.320  1.00  0.00    -0.345 A  
HETATM    4  H2  UNL     1     -12.098  14.104  67.180  1.00  0.00     0.000 HD 
HETATM    5  N   UNL     1     -11.164  11.744  67.302  1.00  0.00    -0.286 NA 
HETATM    6  C   UNL     1     -10.760  10.487  67.538  1.00  0.00    -0.276 A  
HETATM    7  N   UNL     1     -10.116   9.854  66.462  1.00  0.00    -0.227 NA 
HETATM    8  C   UNL     1     -10.883   9.844  68.767  1.00  0.00    -0.208 A  
HETATM    9  H2  UNL     1      -9.331  10.420  66.140  1.00  0.00     0.000 HD 
HETATM   10  H1  UNL     1      -9.809   8.898  66.641  1.00  0.00     0.000 HD 
HETATM   11  N   UNL     1     -10.510   8.548  68.988  1.00  0.00    -0.218 NA 
HETATM   12  C   UNL     1     -10.705   8.049  70.237  1.00  0.00    -0.239 A  
HETATM   13  N   UNL     1     -11.862  11.890  69.545  1.00  0.00    -0.324 NA 
HETATM   14  C   UNL     1     -11.223   8.882  71.242  1.00  0.00    -0.298 A  
HETATM   15  H2  UNL     1     -10.515   8.143  72.906  1.00  0.00     0.000 HD 
HETATM   16  N   UNL     1     -11.412   8.493  72.568  1.00  0.00    -0.352 NA 
HETATM   17  N   UNL     1     -11.600  10.156  70.992  1.00  0.00    -0.372 NA 
HETATM   18  H1  UNL     1     -11.788   9.098  73.298  1.00  0.00     0.000 HD 
HETATM   19  C   UNL     1     -11.452  10.644  69.759  1.00  0.00    -0.302 A  
ENDROOT
BRANCH  12  20
HETATM   20  C   UNL     1     -10.348   6.618  70.396  1.00  0.00    -0.231 A  
HETATM   21  C   UNL     1     -10.174   5.792  69.266  1.00  0.00    -0.292 A  
HETATM   22  C   UNL     1      -9.883   4.429  69.386  1.00  0.00    -0.239 A  
HETATM   23  C   UNL     1      -9.752   3.853  70.646  1.00  0.00    -0.248 A  
HETATM   24  C   UNL     1      -9.915   4.640  71.780  1.00  0.00    -0.260 A  
HETATM   25  C   UNL     1     -10.217   6.002  71.655  1.00  0.00    -0.245 A  
ENDBRANCH  12  20
TORSDOF 1
ENDMDL
MODEL      107
REMARK 921   NORMALIZED FREE ENERGY PREDICTED BY IDOCK:   -4.58 KCAL/MOL
REMARK 922        TOTAL FREE ENERGY PREDICTED BY IDOCK:   -5.03 KCAL/MOL
REMARK 923 INTER-LIGAND FREE ENERGY PREDICTED BY IDOCK:   -4.79 KCAL/MOL
REMARK 924 INTRA-LIGAND FREE ENERGY PREDICTED BY IDOCK:   -0.24 KCAL/MOL
REMARK 927      BINDING AFFINITY PREDICTED BY RF-SCORE:    0.00 PKD
ROOT
HETATM    1  N   UNL     1      -6.806   8.547  72.440  1.00  0.00    -0.166 NA 
HETATM    2  H1  UNL     1      -7.395   8.115  73.152  1.00  0.00     0.000 HD 
HETATM    3  C   UNL     1      -7.433   9.204  71.404  1.00  0.00     0.023 A  
HETATM    4  H2  UNL     1      -5.789   8.494  72.493  1.00  0.00     0.000 HD 
HETATM    5  N   UNL     1      -6.666   9.767  70.477  1.00  0.00    -0.116 NA 
HETATM    6  C   UNL     1      -7.301  10.433  69.501  1.00  0.00    -0.144 A  
HETATM    7  N   UNL     1      -6.468  10.970  68.504  1.00  0.00    -0.053 NA 
HETATM    8  C   UNL     1      -8.685  10.544  69.402  1.00  0.00    -0.078 A  
HETATM    9  H2  UNL     1      -5.881  10.238  68.104  1.00  0.00     0.000 HD 
HETATM   10  H1  UNL     1      -6.952  11.476  67.761  1.00  0.00     0.000 HD 
HETATM   11  N   UNL     1      -9.324  11.260  68.430  1.00  0.00    -0.176 NA 
HETATM   12  C   UNL     1     -10.682  11.292  68.471  1.00  0.00    -0.201 A  
HETATM   13  N   UNL     1      -8.760   9.207  71.392  1.00  0.00    -0.332 NA 
HETATM   14  C   UNL     1     -11.361  10.560  69.459  1.00  0.00    -0.278 A  
HETATM   15  H2  UNL     1     -13.095  10.147  68.659  1.00  0.00     0.000 HD 
HETATM   16  N   UNL     1     -12.750  10.475  69.561  1.00  0.00    -0.640 NA 
HETATM   17  N   UNL     1     -10.705   9.872  70.419  1.00  0.00    -0.300 NA 
HETATM   18  H1  UNL     1     -13.243   9.944  70.278  1.00  0.00     0.000 HD 
HETATM   19  C   UNL     1      -9.370   9.869  70.414  1.00  0.00    -0.004 A  
ENDROOT
BRANCH  12  20
HETATM   20  C   UNL     1     -11.315  12.143  67.433  1.00  0.00    -0.393 A  
HETATM   21  C   UNL     1     -11.467  11.670  66.114  1.00  0.00    -0.198 A  
HETATM   22  C   UNL     1     -12.017  12.467  65.104  1.00  0.00    -0.484 A  
HETATM   23  C   UNL     1     -12.435  13.764  65.390  1.00  0.00    -0.532 A  
HETATM   24  C   UNL     1     -12.301  14.259  66.681  1.00  0.00    -0.320 A  
HETATM   25  C   UNL     1     -11.740  13.461  67.686  1.00  0.00    -0.397 A  
ENDBRANCH  12  20
TORSDOF 1
ENDMDL
MODEL      108
REMARK 921   NORMALIZED FREE ENERGY PREDICTED BY IDOCK:   -4.57 KCAL/MOL
REMARK 922        TOTAL FREE ENERGY PREDICTED BY IDOCK:   -5.02 KCAL/MOL
REMARK 923 INTER-LIGAND FREE ENERGY PREDICTED BY IDOCK:   -4.79 KCAL/MOL
REMARK 924 INTRA-LIGAND FREE ENERGY PREDICTED BY IDOCK:   -0.23 KCAL/MOL
REMARK 927      BINDING AFFINITY PREDICTED BY RF-SCORE:    0.00 PKD
ROOT
HETATM    1  N   UNL     1      -9.828  16.961  67.857  1.00  0.00    -0.256 NA 
HETATM    2  H1  UNL     1     -10.728  17.318  68.177  1.00  0.00     0.000 HD 
HETATM    3  C   UNL     1      -9.639  15.597  67.871  1.00  0.00    -0.206 A  
HETATM    4  H2  UNL     1      -9.093  17.593  67.538  1.00  0.00     0.000 HD 
HETATM    5  N   UNL     1      -8.467  15.132  67.454  1.00  0.00    -0.170 NA 
HETATM    6  C   UNL     1      -8.323  13.799  67.442  1.00  0.00    -0.193 A  
HETATM    7  N   UNL     1      -7.055  13.336  67.049  1.00  0.00    -0.379 NA 
HETATM    8  C   UNL     1      -9.307  12.903  67.851  1.00  0.00    -0.208 A  
HETATM    9  H2  UNL     1      -6.331  13.762  67.629  1.00  0.00     0.000 HD 
HETATM   10  H1  UNL     1      -6.947  12.322  67.041  1.00  0.00     0.000 HD 
HETATM   11  N   UNL     1      -9.171  11.544  67.796  1.00  0.00    -0.161 NA 
HETATM   12  C   UNL     1     -10.224  10.795  68.215  1.00  0.00    -0.167 A  
HETATM   13  N   UNL     1     -10.633  14.844  68.325  1.00  0.00    -0.236 NA 
HETATM   14  C   UNL     1     -11.366  11.433  68.728  1.00  0.00    -0.271 A  
HETATM   15  H2  UNL     1     -12.141  10.133  69.964  1.00  0.00     0.000 HD 
HETATM   16  N   UNL     1     -12.479  10.764  69.238  1.00  0.00    -0.684 NA 
HETATM   17  N   UNL     1     -11.482  12.779  68.757  1.00  0.00    -0.282 NA 
HETATM   18  H1  UNL     1     -13.308  11.228  69.610  1.00  0.00     0.000 HD 
HETATM   19  C   UNL     1     -10.470  13.525  68.308  1.00  0.00    -0.253 A  
ENDROOT
BRANCH  12  20
HETATM   20  C   UNL     1     -10.044   9.330  68.063  1.00  0.00    -0.234 A  
HETATM   21  C   UNL     1     -10.639   8.643  66.985  1.00  0.00    -0.293 A  
HETATM   22  C   UNL     1     -10.525   7.256  66.842  1.00  0.00    -0.369 A  
HETATM   23  C   UNL     1      -9.805   6.516  67.776  1.00  0.00    -0.139 A  
HETATM   24  C   UNL     1      -9.205   7.164  68.849  1.00  0.00    -0.137 A  
HETATM   25  C   UNL     1      -9.330   8.551  68.994  1.00  0.00    -0.146 A  
ENDBRANCH  12  20
TORSDOF 1
ENDMDL
MODEL      109
REMARK 921   NORMALIZED FREE ENERGY PREDICTED BY IDOCK:   -4.52 KCAL/MOL
REMARK 922        TOTAL FREE ENERGY PREDICTED BY IDOCK:   -4.97 KCAL/MOL
REMARK 923 INTER-LIGAND FREE ENERGY PREDICTED BY IDOCK:   -4.82 KCAL/MOL
REMARK 924 INTRA-LIGAND FREE ENERGY PREDICTED BY IDOCK:   -0.15 KCAL/MOL
REMARK 927      BINDING AFFINITY PREDICTED BY RF-SCORE:    0.00 PKD
ROOT
HETATM    1  N   UNL     1     -10.073  11.302  64.729  1.00  0.00    -0.265 NA 
HETATM    2  H1  UNL     1      -9.415  10.851  64.092  1.00  0.00     0.000 HD 
HETATM    3  C   UNL     1     -10.298  10.701  65.947  1.00  0.00    -0.224 A  
HETATM    4  H2  UNL     1     -10.547  12.167  64.472  1.00  0.00     0.000 HD 
HETATM    5  N   UNL     1     -11.154  11.288  66.776  1.00  0.00    -0.278 NA 
HETATM    6  C   UNL     1     -11.326  10.702  67.971  1.00  0.00    -0.278 A  
HETATM    7  N   UNL     1     -12.278  11.312  68.805  1.00  0.00    -0.575 NA 
HETATM    8  C   UNL     1     -10.684   9.531  68.367  1.00  0.00    -0.186 A  
HETATM    9  H2  UNL     1     -13.172  11.389  68.320  1.00  0.00     0.000 HD 
HETATM   10  H1  UNL     1     -12.408  10.866  69.713  1.00  0.00     0.000 HD 
HETATM   11  N   UNL     1     -10.830   8.964  69.601  1.00  0.00    -0.215 NA 
HETATM   12  C   UNL     1     -10.127   7.828  69.851  1.00  0.00    -0.203 A  
HETATM   13  N   UNL     1      -9.663   9.562  66.197  1.00  0.00    -0.237 NA 
HETATM   14  C   UNL     1      -9.336   7.267  68.835  1.00  0.00    -0.144 A  
HETATM   15  H2  UNL     1      -9.282   5.359  69.253  1.00  0.00     0.000 HD 
HETATM   16  N   UNL     1      -8.618   6.077  68.962  1.00  0.00    -0.119 NA 
HETATM   17  N   UNL     1      -9.196   7.857  67.628  1.00  0.00    -0.136 NA 
HETATM   18  H1  UNL     1      -8.044   5.669  68.225  1.00  0.00     0.000 HD 
HETATM   19  C   UNL     1      -9.849   8.996  67.385  1.00  0.00    -0.190 A  
ENDROOT
BRANCH  12  20
HETATM   20  C   UNL     1     -10.270   7.300  71.230  1.00  0.00    -0.198 A  
HETATM   21  C   UNL     1     -10.915   6.067  71.462  1.00  0.00    -0.335 A  
HETATM   22  C   UNL     1     -11.106   5.567  72.755  1.00  0.00    -0.340 A  
HETATM   23  C   UNL     1     -10.652   6.288  73.855  1.00  0.00    -0.231 A  
HETATM   24  C   UNL     1     -10.011   7.506  73.660  1.00  0.00    -0.347 A  
HETATM   25  C   UNL     1      -9.831   8.008  72.366  1.00  0.00    -0.313 A  
ENDBRANCH  12  20
TORSDOF 1
ENDMDL
MODEL      110
REMARK 921   NORMALIZED FREE ENERGY PREDICTED BY IDOCK:   -4.50 KCAL/MOL
REMARK 922        TOTAL FREE ENERGY PREDICTED BY IDOCK:   -4.94 KCAL/MOL
REMARK 923 INTER-LIGAND FREE ENERGY PREDICTED BY IDOCK:   -4.70 KCAL/MOL
REMARK 924 INTRA-LIGAND FREE ENERGY PREDICTED BY IDOCK:   -0.25 KCAL/MOL
REMARK 927      BINDING AFFINITY PREDICTED BY RF-SCORE:    0.00 PKD
ROOT
HETATM    1  N   UNL     1      -7.011  10.590  68.986  1.00  0.00    -0.068 NA 
HETATM    2  H1  UNL     1      -6.094  10.558  69.431  1.00  0.00     0.000 HD 
HETATM    3  C   UNL     1      -7.567  11.828  68.753  1.00  0.00    -0.104 A  
HETATM    4  H2  UNL     1      -7.500   9.734  68.722  1.00  0.00     0.000 HD 
HETATM    5  N   UNL     1      -8.761  11.870  68.173  1.00  0.00    -0.168 NA 
HETATM    6  C   UNL     1      -9.262  13.089  67.924  1.00  0.00    -0.208 A  
HETATM    7  N   UNL     1     -10.550  13.104  67.361  1.00  0.00    -0.241 NA 
HETATM    8  C   UNL     1      -8.618  14.280  68.250  1.00  0.00    -0.176 A  
HETATM    9  H2  UNL     1     -11.195  12.573  67.947  1.00  0.00     0.000 HD 
HETATM   10  H1  UNL     1     -10.930  14.032  67.172  1.00  0.00     0.000 HD 
HETATM   11  N   UNL     1      -9.114  15.519  67.954  1.00  0.00    -0.175 NA 
HETATM   12  C   UNL     1      -8.366  16.592  68.321  1.00  0.00    -0.198 A  
HETATM   13  N   UNL     1      -6.880  12.893  69.148  1.00  0.00    -0.086 NA 
HETATM   14  C   UNL     1      -7.165  16.391  69.021  1.00  0.00    -0.215 A  
HETATM   15  H2  UNL     1      -6.933  18.021  70.075  1.00  0.00     0.000 HD 
HETATM   16  N   UNL     1      -6.348  17.419  69.495  1.00  0.00    -0.248 NA 
HETATM   17  N   UNL     1      -6.689  15.155  69.288  1.00  0.00    -0.133 NA 
HETATM   18  H1  UNL     1      -5.476  17.273  70.003  1.00  0.00     0.000 HD 
HETATM   19  C   UNL     1      -7.395  14.092  68.894  1.00  0.00    -0.122 A  
ENDROOT
BRANCH  12  20
HETATM   20  C   UNL     1      -8.920  17.905  67.909  1.00  0.00    -0.264 A  
HETATM   21  C   UNL     1      -8.549  18.485  66.678  1.00  0.00    -0.295 A  
HETATM   22  C   UNL     1      -9.020  19.743  66.284  1.00  0.00    -0.431 A  
HETATM   23  C   UNL     1      -9.881  20.455  67.113  1.00  0.00    -0.601 A  
HETATM   24  C   UNL     1     -10.267  19.911  68.332  1.00  0.00    -0.557 A  
HETATM   25  C   UNL     1      -9.785  18.656  68.726  1.00  0.00    -0.407 A  
ENDBRANCH  12  20
TORSDOF 1
ENDMDL
MODEL      111
REMARK 921   NORMALIZED FREE ENERGY PREDICTED BY IDOCK:   -4.50 KCAL/MOL
REMARK 922        TOTAL FREE ENERGY PREDICTED BY IDOCK:   -4.94 KCAL/MOL
REMARK 923 INTER-LIGAND FREE ENERGY PREDICTED BY IDOCK:   -4.81 KCAL/MOL
REMARK 924 INTRA-LIGAND FREE ENERGY PREDICTED BY IDOCK:   -0.13 KCAL/MOL
REMARK 927      BINDING AFFINITY PREDICTED BY RF-SCORE:    0.00 PKD
ROOT
HETATM    1  N   UNL     1     -13.957  14.291  72.507  1.00  0.00    -0.591 NA 
HETATM    2  H1  UNL     1     -14.388  13.597  73.117  1.00  0.00     0.000 HD 
HETATM    3  C   UNL     1     -13.062  13.843  71.561  1.00  0.00    -0.365 A  
HETATM    4  H2  UNL     1     -14.180  15.283  72.594  1.00  0.00     0.000 HD 
HETATM    5  N   UNL     1     -12.500  14.747  70.766  1.00  0.00    -0.314 NA 
HETATM    6  C   UNL     1     -11.661  14.279  69.829  1.00  0.00    -0.309 A  
HETATM    7  N   UNL     1     -11.039  15.260  69.038  1.00  0.00    -0.245 NA 
HETATM    8  C   UNL     1     -11.344  12.933  69.665  1.00  0.00    -0.096 A  
HETATM    9  H2  UNL     1     -10.559  15.937  69.632  1.00  0.00     0.000 HD 
HETATM   10  H1  UNL     1     -10.402  14.904  68.326  1.00  0.00     0.000 HD 
HETATM   11  N   UNL     1     -10.524  12.458  68.681  1.00  0.00    -0.225 NA 
HETATM   12  C   UNL     1     -10.319  11.116  68.635  1.00  0.00    -0.203 A  
HETATM   13  N   UNL     1     -12.804  12.541  71.528  1.00  0.00    -0.327 NA 
HETATM   14  C   UNL     1     -10.904  10.293  69.611  1.00  0.00    -0.271 A  
HETATM   15  H2  UNL     1      -9.710   8.751  69.734  1.00  0.00     0.000 HD 
HETATM   16  N   UNL     1     -10.716   8.913  69.694  1.00  0.00    -0.260 NA 
HETATM   17  N   UNL     1     -11.725  10.786  70.565  1.00  0.00    -0.333 NA 
HETATM   18  H1  UNL     1     -11.141   8.316  70.403  1.00  0.00     0.000 HD 
HETATM   19  C   UNL     1     -11.968  12.098  70.594  1.00  0.00    -0.137 A  
ENDROOT
BRANCH  12  20
HETATM   20  C   UNL     1      -9.478  10.655  67.503  1.00  0.00    -0.169 A  
HETATM   21  C   UNL     1     -10.005   9.784  66.527  1.00  0.00    -0.304 A  
HETATM   22  C   UNL     1      -9.223   9.296  65.474  1.00  0.00    -0.292 A  
HETATM   23  C   UNL     1      -7.887   9.671  65.367  1.00  0.00    -0.117 A  
HETATM   24  C   UNL     1      -7.338  10.530  66.312  1.00  0.00    -0.133 A  
HETATM   25  C   UNL     1      -8.122  11.007  67.370  1.00  0.00    -0.122 A  
ENDBRANCH  12  20
TORSDOF 1
ENDMDL
MODEL      112
REMARK 921   NORMALIZED FREE ENERGY PREDICTED BY IDOCK:   -4.50 KCAL/MOL
REMARK 922        TOTAL FREE ENERGY PREDICTED BY IDOCK:   -4.94 KCAL/MOL
REMARK 923 INTER-LIGAND FREE ENERGY PREDICTED BY IDOCK:   -4.70 KCAL/MOL
REMARK 924 INTRA-LIGAND FREE ENERGY PREDICTED BY IDOCK:   -0.25 KCAL/MOL
REMARK 927      BINDING AFFINITY PREDICTED BY RF-SCORE:    0.00 PKD
ROOT
HETATM    1  N   UNL     1     -10.073   5.190  68.501  1.00  0.00    -0.164 NA 
HETATM    2  H1  UNL     1     -10.354   4.906  69.439  1.00  0.00     0.000 HD 
HETATM    3  C   UNL     1     -10.162   6.528  68.184  1.00  0.00    -0.168 A  
HETATM    4  H2  UNL     1      -9.737   4.508  67.821  1.00  0.00     0.000 HD 
HETATM    5  N   UNL     1      -9.795   6.898  66.962  1.00  0.00    -0.163 NA 
HETATM    6  C   UNL     1      -9.856   8.211  66.692  1.00  0.00    -0.261 A  
HETATM    7  N   UNL     1      -9.516   8.568  65.376  1.00  0.00    -0.412 NA 
HETATM    8  C   UNL     1     -10.290   9.175  67.598  1.00  0.00    -0.255 A  
HETATM    9  H2  UNL     1     -10.089   8.046  64.712  1.00  0.00     0.000 HD 
HETATM   10  H1  UNL     1      -9.563   9.566  65.172  1.00  0.00     0.000 HD 
HETATM   11  N   UNL     1     -10.308  10.515  67.332  1.00  0.00    -0.210 NA 
HETATM   12  C   UNL     1     -10.743  11.341  68.320  1.00  0.00    -0.194 A  
HETATM   13  N   UNL     1     -10.632   7.349  69.114  1.00  0.00    -0.218 NA 
HETATM   14  C   UNL     1     -11.196  10.791  69.530  1.00  0.00    -0.281 A  
HETATM   15  H2  UNL     1     -12.481  12.096  70.212  1.00  0.00     0.000 HD 
HETATM   16  N   UNL     1     -11.716  11.537  70.589  1.00  0.00    -0.444 NA 
HETATM   17  N   UNL     1     -11.153   9.462  69.774  1.00  0.00    -0.211 NA 
HETATM   18  H1  UNL     1     -12.045  11.138  71.468  1.00  0.00     0.000 HD 
HETATM   19  C   UNL     1     -10.688   8.646  68.826  1.00  0.00    -0.064 A  
ENDROOT
BRANCH  12  20
HETATM   20  C   UNL     1     -10.672  12.787  67.997  1.00  0.00    -0.246 A  
HETATM   21  C   UNL     1      -9.495  13.521  68.253  1.00  0.00    -0.212 A  
HETATM   22  C   UNL     1      -9.414  14.895  68.002  1.00  0.00    -0.198 A  
HETATM   23  C   UNL     1     -10.512  15.575  67.483  1.00  0.00    -0.282 A  
HETATM   24  C   UNL     1     -11.686  14.879  67.219  1.00  0.00    -0.308 A  
HETATM   25  C   UNL     1     -11.766  13.506  67.481  1.00  0.00    -0.403 A  
ENDBRANCH  12  20
TORSDOF 1
ENDMDL
MODEL      113
REMARK 921   NORMALIZED FREE ENERGY PREDICTED BY IDOCK:   -4.45 KCAL/MOL
REMARK 922        TOTAL FREE ENERGY PREDICTED BY IDOCK:   -4.89 KCAL/MOL
REMARK 923 INTER-LIGAND FREE ENERGY PREDICTED BY IDOCK:   -4.70 KCAL/MOL
REMARK 924 INTRA-LIGAND FREE ENERGY PREDICTED BY IDOCK:   -0.20 KCAL/MOL
REMARK 927      BINDING AFFINITY PREDICTED BY RF-SCORE:    0.00 PKD
ROOT
HETATM    1  N   UNL     1      -7.430  18.253  65.758  1.00  0.00    -0.533 NA 
HETATM    2  H1  UNL     1      -6.506  18.456  66.139  1.00  0.00     0.000 HD 
HETATM    3  C   UNL     1      -8.022  17.062  66.117  1.00  0.00    -0.264 A  
HETATM    4  H2  UNL     1      -7.900  18.908  65.134  1.00  0.00     0.000 HD 
HETATM    5  N   UNL     1      -9.226  16.798  65.622  1.00  0.00    -0.460 NA 
HETATM    6  C   UNL     1      -9.795  15.649  66.018  1.00  0.00    -0.333 A  
HETATM    7  N   UNL     1     -11.043  15.368  65.436  1.00  0.00    -0.342 NA 
HETATM    8  C   UNL     1      -9.196  14.737  66.882  1.00  0.00    -0.245 A  
HETATM    9  H2  UNL     1     -10.969  15.391  64.418  1.00  0.00     0.000 HD 
HETATM   10  H1  UNL     1     -11.475  14.494  65.737  1.00  0.00     0.000 HD 
HETATM   11  N   UNL     1      -9.799  13.590  67.316  1.00  0.00    -0.233 NA 
HETATM   12  C   UNL     1      -9.097  12.803  68.173  1.00  0.00    -0.203 A  
HETATM   13  N   UNL     1      -7.336  16.250  66.913  1.00  0.00    -0.225 NA 
HETATM   14  C   UNL     1      -7.787  13.165  68.529  1.00  0.00    -0.105 A  
HETATM   15  H2  UNL     1      -6.905  11.472  68.946  1.00  0.00     0.000 HD 
HETATM   16  N   UNL     1      -6.956  12.406  69.354  1.00  0.00    -0.316 NA 
HETATM   17  N   UNL     1      -7.219  14.314  68.099  1.00  0.00    -0.112 NA 
HETATM   18  H1  UNL     1      -6.006  12.669  69.613  1.00  0.00     0.000 HD 
HETATM   19  C   UNL     1      -7.916  15.116  67.291  1.00  0.00    -0.205 A  
ENDROOT
BRANCH  12  20
HETATM   20  C   UNL     1      -9.831  11.611  68.664  1.00  0.00    -0.173 A  
HETATM   21  C   UNL     1      -9.497  10.322  68.198  1.00  0.00    -0.155 A  
HETATM   22  C   UNL     1     -10.202   9.185  68.608  1.00  0.00    -0.225 A  
HETATM   23  C   UNL     1     -11.262   9.306  69.502  1.00  0.00    -0.017 A  
HETATM   24  C   UNL     1     -11.615  10.563  69.981  1.00  0.00    -0.392 A  
HETATM   25  C   UNL     1     -10.913  11.699  69.560  1.00  0.00    -0.159 A  
ENDBRANCH  12  20
TORSDOF 1
ENDMDL
MODEL      114
REMARK 921   NORMALIZED FREE ENERGY PREDICTED BY IDOCK:   -4.42 KCAL/MOL
REMARK 922        TOTAL FREE ENERGY PREDICTED BY IDOCK:   -4.86 KCAL/MOL
REMARK 923 INTER-LIGAND FREE ENERGY PREDICTED BY IDOCK:   -4.62 KCAL/MOL
REMARK 924 INTRA-LIGAND FREE ENERGY PREDICTED BY IDOCK:   -0.23 KCAL/MOL
REMARK 927      BINDING AFFINITY PREDICTED BY RF-SCORE:    0.00 PKD
ROOT
HETATM    1  N   UNL     1     -12.467  14.336  63.679  1.00  0.00    -1.083 NA 
HETATM    2  H1  UNL     1     -12.228  13.989  62.749  1.00  0.00     0.000 HD 
HETATM    3  C   UNL     1     -11.746  13.850  64.747  1.00  0.00    -0.386 A  
HETATM    4  H2  UNL     1     -13.212  15.019  63.812  1.00  0.00     0.000 HD 
HETATM    5  N   UNL     1     -12.056  14.302  65.957  1.00  0.00    -0.415 NA 
HETATM    6  C   UNL     1     -11.314  13.841  66.975  1.00  0.00    -0.326 A  
HETATM    7  N   UNL     1     -11.699  14.292  68.249  1.00  0.00    -0.325 NA 
HETATM    8  C   UNL     1     -10.277  12.923  66.833  1.00  0.00    -0.242 A  
HETATM    9  H2  UNL     1     -12.685  14.086  68.412  1.00  0.00     0.000 HD 
HETATM   10  H1  UNL     1     -11.134  13.941  69.023  1.00  0.00     0.000 HD 
HETATM   11  N   UNL     1      -9.496  12.490  67.868  1.00  0.00    -0.190 NA 
HETATM   12  C   UNL     1      -8.509  11.603  67.575  1.00  0.00    -0.150 A  
HETATM   13  N   UNL     1     -10.810  12.943  64.495  1.00  0.00    -0.340 NA 
HETATM   14  C   UNL     1      -8.368  11.137  66.258  1.00  0.00    -0.163 A  
HETATM   15  H2  UNL     1      -7.562   9.367  66.448  1.00  0.00     0.000 HD 
HETATM   16  N   UNL     1      -7.429  10.186  65.855  1.00  0.00    -0.118 NA 
HETATM   17  N   UNL     1      -9.142  11.593  65.249  1.00  0.00    -0.034 NA 
HETATM   18  H1  UNL     1      -7.326   9.848  64.899  1.00  0.00     0.000 HD 
HETATM   19  C   UNL     1     -10.088  12.496  65.518  1.00  0.00    -0.265 A  
ENDROOT
BRANCH  12  20
HETATM   20  C   UNL     1      -7.651  11.227  68.725  1.00  0.00    -0.130 A  
HETATM   21  C   UNL     1      -7.873  10.019  69.420  1.00  0.00    -0.141 A  
HETATM   22  C   UNL     1      -7.110   9.661  70.537  1.00  0.00    -0.137 A  
HETATM   23  C   UNL     1      -6.098  10.502  70.988  1.00  0.00     0.091 A  
HETATM   24  C   UNL     1      -5.853  11.698  70.324  1.00  0.00    -0.161 A  
HETATM   25  C   UNL     1      -6.626  12.058  69.214  1.00  0.00    -0.109 A  
ENDBRANCH  12  20
TORSDOF 1
ENDMDL
MODEL      115
REMARK 921   NORMALIZED FREE ENERGY PREDICTED BY IDOCK:   -4.36 KCAL/MOL
REMARK 922        TOTAL FREE ENERGY PREDICTED BY IDOCK:   -4.79 KCAL/MOL
REMARK 923 INTER-LIGAND FREE ENERGY PREDICTED BY IDOCK:   -4.76 KCAL/MOL
REMARK 924 INTRA-LIGAND FREE ENERGY PREDICTED BY IDOCK:   -0.03 KCAL/MOL
REMARK 927      BINDING AFFINITY PREDICTED BY RF-SCORE:    0.00 PKD
ROOT
HETATM    1  N   UNL     1      -8.184   2.925  68.724  1.00  0.00    -0.059 NA 
HETATM    2  H1  UNL     1      -7.566   2.702  69.504  1.00  0.00     0.000 HD 
HETATM    3  C   UNL     1      -8.830   4.141  68.747  1.00  0.00    -0.103 A  
HETATM    4  H2  UNL     1      -8.320   2.270  67.954  1.00  0.00     0.000 HD 
HETATM    5  N   UNL     1      -9.635   4.432  67.731  1.00  0.00    -0.165 NA 
HETATM    6  C   UNL     1     -10.222   5.638  67.760  1.00  0.00    -0.193 A  
HETATM    7  N   UNL     1     -11.110   5.897  66.703  1.00  0.00    -0.724 NA 
HETATM    8  C   UNL     1     -10.049   6.567  68.783  1.00  0.00    -0.161 A  
HETATM    9  H2  UNL     1     -11.818   5.163  66.651  1.00  0.00     0.000 HD 
HETATM   10  H1  UNL     1     -11.557   6.814  66.725  1.00  0.00     0.000 HD 
HETATM   11  N   UNL     1     -10.615   7.810  68.785  1.00  0.00    -0.178 NA 
HETATM   12  C   UNL     1     -10.343   8.616  69.845  1.00  0.00    -0.209 A  
HETATM   13  N   UNL     1      -8.623   4.927  69.797  1.00  0.00    -0.086 NA 
HETATM   14  C   UNL     1      -9.552   8.130  70.898  1.00  0.00    -0.162 A  
HETATM   15  H2  UNL     1     -10.147   9.136  72.465  1.00  0.00     0.000 HD 
HETATM   16  N   UNL     1      -9.256   8.847  72.058  1.00  0.00    -0.386 NA 
HETATM   17  N   UNL     1      -8.991   6.901  70.865  1.00  0.00    -0.149 NA 
HETATM   18  H1  UNL     1      -8.682   8.494  72.823  1.00  0.00     0.000 HD 
HETATM   19  C   UNL     1      -9.216   6.116  69.808  1.00  0.00    -0.144 A  
ENDROOT
BRANCH  12  20
HETATM   20  C   UNL     1     -10.927   9.977  69.756  1.00  0.00    -0.317 A  
HETATM   21  C   UNL     1     -11.738  10.479  70.794  1.00  0.00    -0.454 A  
HETATM   22  C   UNL     1     -12.339  11.740  70.717  1.00  0.00    -0.433 A  
HETATM   23  C   UNL     1     -12.140  12.539  69.594  1.00  0.00    -0.272 A  
HETATM   24  C   UNL     1     -11.344  12.074  68.554  1.00  0.00    -0.323 A  
HETATM   25  C   UNL     1     -10.753  10.807  68.631  1.00  0.00    -0.242 A  
ENDBRANCH  12  20
TORSDOF 1
ENDMDL
MODEL      116
REMARK 921   NORMALIZED FREE ENERGY PREDICTED BY IDOCK:   -4.33 KCAL/MOL
REMARK 922        TOTAL FREE ENERGY PREDICTED BY IDOCK:   -4.76 KCAL/MOL
REMARK 923 INTER-LIGAND FREE ENERGY PREDICTED BY IDOCK:   -4.52 KCAL/MOL
REMARK 924 INTRA-LIGAND FREE ENERGY PREDICTED BY IDOCK:   -0.25 KCAL/MOL
REMARK 927      BINDING AFFINITY PREDICTED BY RF-SCORE:    0.00 PKD
ROOT
HETATM    1  N   UNL     1      -7.872   7.283  65.126  1.00  0.00    -0.116 NA 
HETATM    2  H1  UNL     1      -8.642   6.768  64.699  1.00  0.00     0.000 HD 
HETATM    3  C   UNL     1      -8.093   8.600  65.462  1.00  0.00    -0.114 A  
HETATM    4  H2  UNL     1      -6.970   6.839  65.298  1.00  0.00     0.000 HD 
HETATM    5  N   UNL     1      -7.091   9.272  66.019  1.00  0.00    -0.089 NA 
HETATM    6  C   UNL     1      -7.346  10.541  66.371  1.00  0.00    -0.129 A  
HETATM    7  N   UNL     1      -6.253  11.244  66.906  1.00  0.00    -0.109 NA 
HETATM    8  C   UNL     1      -8.567  11.178  66.170  1.00  0.00    -0.172 A  
HETATM    9  H2  UNL     1      -5.463  11.211  66.260  1.00  0.00     0.000 HD 
HETATM   10  H1  UNL     1      -6.447  12.209  67.173  1.00  0.00     0.000 HD 
HETATM   11  N   UNL     1      -8.834  12.457  66.571  1.00  0.00    -0.157 NA 
HETATM   12  C   UNL     1     -10.079  12.941  66.322  1.00  0.00    -0.276 A  
HETATM   13  N   UNL     1      -9.285   9.114  65.182  1.00  0.00    -0.196 NA 
HETATM   14  C   UNL     1     -11.005  12.143  65.630  1.00  0.00    -0.295 A  
HETATM   15  H2  UNL     1     -12.184  13.421  64.739  1.00  0.00     0.000 HD 
HETATM   16  N   UNL     1     -12.289  12.557  65.272  1.00  0.00    -0.612 NA 
HETATM   17  N   UNL     1     -10.722  10.875  65.259  1.00  0.00    -0.181 NA 
HETATM   18  H1  UNL     1     -12.961  11.978  64.770  1.00  0.00     0.000 HD 
HETATM   19  C   UNL     1      -9.516  10.374  65.537  1.00  0.00    -0.215 A  
ENDROOT
BRANCH  12  20
HETATM   20  C   UNL     1     -10.330  14.307  66.844  1.00  0.00    -0.268 A  
HETATM   21  C   UNL     1      -9.908  15.440  66.118  1.00  0.00    -0.337 A  
HETATM   22  C   UNL     1     -10.089  16.739  66.607  1.00  0.00    -0.304 A  
HETATM   23  C   UNL     1     -10.704  16.939  67.839  1.00  0.00    -0.344 A  
HETATM   24  C   UNL     1     -11.133  15.843  68.579  1.00  0.00    -0.340 A  
HETATM   25  C   UNL     1     -10.940  14.545  68.090  1.00  0.00    -0.261 A  
ENDBRANCH  12  20
TORSDOF 1
ENDMDL
MODEL      117
REMARK 921   NORMALIZED FREE ENERGY PREDICTED BY IDOCK:   -4.33 KCAL/MOL
REMARK 922        TOTAL FREE ENERGY PREDICTED BY IDOCK:   -4.76 KCAL/MOL
REMARK 923 INTER-LIGAND FREE ENERGY PREDICTED BY IDOCK:   -4.53 KCAL/MOL
REMARK 924 INTRA-LIGAND FREE ENERGY PREDICTED BY IDOCK:   -0.23 KCAL/MOL
REMARK 927      BINDING AFFINITY PREDICTED BY RF-SCORE:    0.00 PKD
ROOT
HETATM    1  N   UNL     1     -13.696   9.212  72.982  1.00  0.00    -1.009 NA 
HETATM    2  H1  UNL     1     -13.926   8.538  73.712  1.00  0.00     0.000 HD 
HETATM    3  C   UNL     1     -12.865   8.794  71.966  1.00  0.00    -0.390 A  
HETATM    4  H2  UNL     1     -14.067  10.161  73.003  1.00  0.00     0.000 HD 
HETATM    5  N   UNL     1     -12.565   9.671  71.015  1.00  0.00    -0.304 NA 
HETATM    6  C   UNL     1     -11.785   9.227  70.018  1.00  0.00     0.112 A  
HETATM    7  N   UNL     1     -11.438  10.191  69.055  1.00  0.00    -0.466 NA 
HETATM    8  C   UNL     1     -11.273   7.935  69.942  1.00  0.00    -0.046 A  
HETATM    9  H2  UNL     1     -11.006  10.998  69.505  1.00  0.00     0.000 HD 
HETATM   10  H1  UNL     1     -10.845   9.853  68.297  1.00  0.00     0.000 HD 
HETATM   11  N   UNL     1     -10.515   7.476  68.901  1.00  0.00    -0.211 NA 
HETATM   12  C   UNL     1     -10.099   6.184  68.957  1.00  0.00    -0.173 A  
HETATM   13  N   UNL     1     -12.402   7.551  72.023  1.00  0.00    -0.291 NA 
HETATM   14  C   UNL     1     -10.412   5.404  70.082  1.00  0.00    -0.290 A  
HETATM   15  H2  UNL     1      -8.974   4.086  70.182  1.00  0.00     0.000 HD 
HETATM   16  N   UNL     1      -9.990   4.088  70.271  1.00  0.00    -0.131 NA 
HETATM   17  N   UNL     1     -11.177   5.877  71.091  1.00  0.00    -0.252 NA 
HETATM   18  H1  UNL     1     -10.218   3.522  71.088  1.00  0.00     0.000 HD 
HETATM   19  C   UNL     1     -11.628   7.132  71.027  1.00  0.00    -0.309 A  
ENDROOT
BRANCH  12  20
HETATM   20  C   UNL     1      -9.342   5.724  67.766  1.00  0.00    -0.105 A  
HETATM   21  C   UNL     1     -10.021   5.328  66.595  1.00  0.00    -0.227 A  
HETATM   22  C   UNL     1      -9.336   4.846  65.474  1.00  0.00    -0.163 A  
HETATM   23  C   UNL     1      -7.948   4.750  65.493  1.00  0.00    -0.095 A  
HETATM   24  C   UNL     1      -7.249   5.134  66.632  1.00  0.00    -0.081 A  
HETATM   25  C   UNL     1      -7.939   5.606  67.755  1.00  0.00    -0.098 A  
ENDBRANCH  12  20
TORSDOF 1
ENDMDL
MODEL      118
REMARK 921   NORMALIZED FREE ENERGY PREDICTED BY IDOCK:   -4.33 KCAL/MOL
REMARK 922        TOTAL FREE ENERGY PREDICTED BY IDOCK:   -4.76 KCAL/MOL
REMARK 923 INTER-LIGAND FREE ENERGY PREDICTED BY IDOCK:   -4.63 KCAL/MOL
REMARK 924 INTRA-LIGAND FREE ENERGY PREDICTED BY IDOCK:   -0.13 KCAL/MOL
REMARK 927      BINDING AFFINITY PREDICTED BY RF-SCORE:    0.00 PKD
ROOT
HETATM    1  N   UNL     1     -14.400   8.510  72.848  1.00  0.00    -0.995 NA 
HETATM    2  H1  UNL     1     -14.726   9.459  73.031  1.00  0.00     0.000 HD 
HETATM    3  C   UNL     1     -13.296   8.358  72.040  1.00  0.00    -0.343 A  
HETATM    4  H2  UNL     1     -14.875   7.702  73.250  1.00  0.00     0.000 HD 
HETATM    5  N   UNL     1     -12.871   7.121  71.802  1.00  0.00    -0.347 NA 
HETATM    6  C   UNL     1     -11.771   7.004  71.042  1.00  0.00    -0.333 A  
HETATM    7  N   UNL     1     -11.377   5.685  70.761  1.00  0.00    -0.037 NA 
HETATM    8  C   UNL     1     -11.083   8.081  70.491  1.00  0.00    -0.251 A  
HETATM    9  H2  UNL     1     -12.150   5.169  70.340  1.00  0.00     0.000 HD 
HETATM   10  H1  UNL     1     -10.541   5.596  70.183  1.00  0.00     0.000 HD 
HETATM   11  N   UNL     1      -9.939   7.957  69.755  1.00  0.00    -0.184 NA 
HETATM   12  C   UNL     1      -9.368   9.101  69.294  1.00  0.00    -0.157 A  
HETATM   13  N   UNL     1     -12.748   9.456  71.534  1.00  0.00    -0.340 NA 
HETATM   14  C   UNL     1      -9.992  10.334  69.543  1.00  0.00    -0.228 A  
HETATM   15  H2  UNL     1      -9.432  11.476  68.059  1.00  0.00     0.000 HD 
HETATM   16  N   UNL     1      -9.526  11.562  69.071  1.00  0.00    -0.412 NA 
HETATM   17  N   UNL     1     -11.115  10.431  70.288  1.00  0.00    -0.305 NA 
HETATM   18  H1  UNL     1      -9.979  12.457  69.252  1.00  0.00     0.000 HD 
HETATM   19  C   UNL     1     -11.661   9.318  70.781  1.00  0.00    -0.269 A  
ENDROOT
BRANCH  12  20
HETATM   20  C   UNL     1      -8.091   8.907  68.564  1.00  0.00    -0.108 A  
HETATM   21  C   UNL     1      -6.893   9.467  69.054  1.00  0.00    -0.054 A  
HETATM   22  C   UNL     1      -5.683   9.340  68.363  1.00  0.00    -0.041 A  
HETATM   23  C   UNL     1      -5.637   8.642  67.160  1.00  0.00    -0.038 A  
HETATM   24  C   UNL     1      -6.801   8.076  66.651  1.00  0.00    -0.068 A  
HETATM   25  C   UNL     1      -8.011   8.215  67.341  1.00  0.00    -0.117 A  
ENDBRANCH  12  20
TORSDOF 1
ENDMDL
MODEL      119
REMARK 921   NORMALIZED FREE ENERGY PREDICTED BY IDOCK:   -4.31 KCAL/MOL
REMARK 922        TOTAL FREE ENERGY PREDICTED BY IDOCK:   -4.74 KCAL/MOL
REMARK 923 INTER-LIGAND FREE ENERGY PREDICTED BY IDOCK:   -4.61 KCAL/MOL
REMARK 924 INTRA-LIGAND FREE ENERGY PREDICTED BY IDOCK:   -0.13 KCAL/MOL
REMARK 927      BINDING AFFINITY PREDICTED BY RF-SCORE:    0.00 PKD
ROOT
HETATM    1  N   UNL     1      -5.359  14.011  71.052  1.00  0.00    -0.138 NA 
HETATM    2  H1  UNL     1      -4.934  13.136  71.358  1.00  0.00     0.000 HD 
HETATM    3  C   UNL     1      -6.272  13.954  70.023  1.00  0.00    -0.131 A  
HETATM    4  H2  UNL     1      -5.116  14.898  71.493  1.00  0.00     0.000 HD 
HETATM    5  N   UNL     1      -6.826  15.094  69.624  1.00  0.00    -0.176 NA 
HETATM    6  C   UNL     1      -7.739  15.004  68.646  1.00  0.00    -0.128 A  
HETATM    7  N   UNL     1      -8.267  16.230  68.206  1.00  0.00    -0.167 NA 
HETATM    8  C   UNL     1      -8.112  13.812  68.031  1.00  0.00    -0.163 A  
HETATM    9  H2  UNL     1      -7.513  16.857  67.926  1.00  0.00     0.000 HD 
HETATM   10  H1  UNL     1      -8.962  16.162  67.462  1.00  0.00     0.000 HD 
HETATM   11  N   UNL     1      -9.074  13.722  67.066  1.00  0.00    -0.238 NA 
HETATM   12  C   UNL     1      -9.343  12.487  66.568  1.00  0.00    -0.233 A  
HETATM   13  N   UNL     1      -6.515  12.765  69.483  1.00  0.00    -0.106 NA 
HETATM   14  C   UNL     1      -8.600  11.383  67.018  1.00  0.00    -0.157 A  
HETATM   15  H2  UNL     1      -8.637  10.124  65.524  1.00  0.00     0.000 HD 
HETATM   16  N   UNL     1      -8.752  10.082  66.537  1.00  0.00    -0.132 NA 
HETATM   17  N   UNL     1      -7.664  11.496  67.986  1.00  0.00    -0.112 NA 
HETATM   18  H1  UNL     1      -8.213   9.281  66.864  1.00  0.00     0.000 HD 
HETATM   19  C   UNL     1      -7.422  12.699  68.513  1.00  0.00    -0.121 A  
ENDROOT
BRANCH  12  20
HETATM   20  C   UNL     1     -10.446  12.443  65.576  1.00  0.00    -0.304 A  
HETATM   21  C   UNL     1     -10.195  12.065  64.241  1.00  0.00    -0.347 A  
HETATM   22  C   UNL     1     -11.206  12.060  63.274  1.00  0.00    -0.403 A  
HETATM   23  C   UNL     1     -12.502  12.431  63.619  1.00  0.00    -0.610 A  
HETATM   24  C   UNL     1     -12.783  12.808  64.927  1.00  0.00    -0.479 A  
HETATM   25  C   UNL     1     -11.766  12.821  65.889  1.00  0.00    -0.464 A  
ENDBRANCH  12  20
TORSDOF 1
ENDMDL
MODEL      120
REMARK 921   NORMALIZED FREE ENERGY PREDICTED BY IDOCK:   -4.27 KCAL/MOL
REMARK 922        TOTAL FREE ENERGY PREDICTED BY IDOCK:   -4.70 KCAL/MOL
REMARK 923 INTER-LIGAND FREE ENERGY PREDICTED BY IDOCK:   -4.48 KCAL/MOL
REMARK 924 INTRA-LIGAND FREE ENERGY PREDICTED BY IDOCK:   -0.21 KCAL/MOL
REMARK 927      BINDING AFFINITY PREDICTED BY RF-SCORE:    0.00 PKD
ROOT
HETATM    1  N   UNL     1      -6.071   9.723  63.082  1.00  0.00    -0.106 NA 
HETATM    2  H1  UNL     1      -5.126   9.571  63.436  1.00  0.00     0.000 HD 
HETATM    3  C   UNL     1      -7.050  10.049  63.993  1.00  0.00    -0.126 A  
HETATM    4  H2  UNL     1      -6.282   9.638  62.088  1.00  0.00     0.000 HD 
HETATM    5  N   UNL     1      -8.280  10.248  63.532  1.00  0.00    -0.161 NA 
HETATM    6  C   UNL     1      -9.207  10.601  64.435  1.00  0.00    -0.234 A  
HETATM    7  N   UNL     1     -10.510  10.751  63.930  1.00  0.00    -0.491 NA 
HETATM    8  C   UNL     1      -8.956  10.747  65.797  1.00  0.00    -0.187 A  
HETATM    9  H2  UNL     1     -10.798   9.900  63.445  1.00  0.00     0.000 HD 
HETATM   10  H1  UNL     1     -11.214  11.019  64.617  1.00  0.00     0.000 HD 
HETATM   11  N   UNL     1      -9.893  11.149  66.706  1.00  0.00    -0.196 NA 
HETATM   12  C   UNL     1      -9.498  11.262  68.001  1.00  0.00    -0.173 A  
HETATM   13  N   UNL     1      -6.702  10.116  65.272  1.00  0.00    -0.117 NA 
HETATM   14  C   UNL     1      -8.183  10.918  68.354  1.00  0.00    -0.133 A  
HETATM   15  H2  UNL     1      -8.306  10.362  70.224  1.00  0.00     0.000 HD 
HETATM   16  N   UNL     1      -7.685  10.941  69.658  1.00  0.00    -0.372 NA 
HETATM   17  N   UNL     1      -7.269  10.538  67.434  1.00  0.00    -0.090 NA 
HETATM   18  H1  UNL     1      -6.731  10.691  69.915  1.00  0.00     0.000 HD 
HETATM   19  C   UNL     1      -7.635  10.464  66.152  1.00  0.00    -0.130 A  
ENDROOT
BRANCH  12  20
HETATM   20  C   UNL     1     -10.539  11.772  68.926  1.00  0.00    -0.211 A  
HETATM   21  C   UNL     1     -11.209  10.894  69.805  1.00  0.00    -0.351 A  
HETATM   22  C   UNL     1     -12.227  11.338  70.655  1.00  0.00    -0.489 A  
HETATM   23  C   UNL     1     -12.603  12.678  70.652  1.00  0.00    -0.241 A  
HETATM   24  C   UNL     1     -11.962  13.568  69.799  1.00  0.00    -0.405 A  
HETATM   25  C   UNL     1     -10.950  13.118  68.943  1.00  0.00    -0.270 A  
ENDBRANCH  12  20
TORSDOF 1
ENDMDL
MODEL      121
REMARK 921   NORMALIZED FREE ENERGY PREDICTED BY IDOCK:   -4.19 KCAL/MOL
REMARK 922        TOTAL FREE ENERGY PREDICTED BY IDOCK:   -4.61 KCAL/MOL
REMARK 923 INTER-LIGAND FREE ENERGY PREDICTED BY IDOCK:   -4.37 KCAL/MOL
REMARK 924 INTRA-LIGAND FREE ENERGY PREDICTED BY IDOCK:   -0.25 KCAL/MOL
REMARK 927      BINDING AFFINITY PREDICTED BY RF-SCORE:    0.00 PKD
ROOT
HETATM    1  N   UNL     1     -12.217   6.688  72.651  1.00  0.00    -0.481 NA 
HETATM    2  H1  UNL     1     -12.334   7.416  73.356  1.00  0.00     0.000 HD 
HETATM    3  C   UNL     1     -11.686   7.056  71.435  1.00  0.00    -0.306 A  
HETATM    4  H2  UNL     1     -12.484   5.722  72.840  1.00  0.00     0.000 HD 
HETATM    5  N   UNL     1     -11.534   6.108  70.516  1.00  0.00    -0.319 NA 
HETATM    6  C   UNL     1     -10.980   6.486  69.354  1.00  0.00    -0.337 A  
HETATM    7  N   UNL     1     -10.882   5.477  68.381  1.00  0.00    -0.091 NA 
HETATM    8  C   UNL     1     -10.585   7.790  69.064  1.00  0.00    -0.166 A  
HETATM    9  H2  UNL     1     -11.798   5.060  68.214  1.00  0.00     0.000 HD 
HETATM   10  H1  UNL     1     -10.461   5.765  67.498  1.00  0.00     0.000 HD 
HETATM   11  N   UNL     1      -9.982   8.160  67.896  1.00  0.00    -0.173 NA 
HETATM   12  C   UNL     1      -9.637   9.467  67.760  1.00  0.00    -0.133 A  
HETATM   13  N   UNL     1     -11.388   8.337  71.256  1.00  0.00    -0.259 NA 
HETATM   14  C   UNL     1      -9.956  10.376  68.782  1.00  0.00    -0.188 A  
HETATM   15  H2  UNL     1     -10.137  12.095  67.871  1.00  0.00     0.000 HD 
HETATM   16  N   UNL     1      -9.701  11.747  68.725  1.00  0.00    -0.384 NA 
HETATM   17  N   UNL     1     -10.539   9.982  69.935  1.00  0.00    -0.263 NA 
HETATM   18  H1  UNL     1      -9.932  12.407  69.467  1.00  0.00     0.000 HD 
HETATM   19  C   UNL     1     -10.843   8.692  70.097  1.00  0.00    -0.233 A  
ENDROOT
BRANCH  12  20
HETATM   20  C   UNL     1      -8.921   9.793  66.501  1.00  0.00    -0.172 A  
HETATM   21  C   UNL     1      -9.635  10.200  65.355  1.00  0.00    -0.325 A  
HETATM   22  C   UNL     1      -8.992  10.469  64.142  1.00  0.00    -0.237 A  
HETATM   23  C   UNL     1      -7.610  10.341  64.044  1.00  0.00    -0.083 A  
HETATM   24  C   UNL     1      -6.876   9.943  65.156  1.00  0.00    -0.124 A  
HETATM   25  C   UNL     1      -7.526   9.665  66.365  1.00  0.00    -0.094 A  
ENDBRANCH  12  20
TORSDOF 1
ENDMDL
MODEL      122
REMARK 921   NORMALIZED FREE ENERGY PREDICTED BY IDOCK:   -4.17 KCAL/MOL
REMARK 922        TOTAL FREE ENERGY PREDICTED BY IDOCK:   -4.59 KCAL/MOL
REMARK 923 INTER-LIGAND FREE ENERGY PREDICTED BY IDOCK:   -4.37 KCAL/MOL
REMARK 924 INTRA-LIGAND FREE ENERGY PREDICTED BY IDOCK:   -0.22 KCAL/MOL
REMARK 927      BINDING AFFINITY PREDICTED BY RF-SCORE:    0.00 PKD
ROOT
HETATM    1  N   UNL     1     -10.482   4.310  64.097  1.00  0.00    -0.449 NA 
HETATM    2  H1  UNL     1     -11.171   4.958  63.716  1.00  0.00     0.000 HD 
HETATM    3  C   UNL     1     -10.214   4.383  65.446  1.00  0.00    -0.228 A  
HETATM    4  H2  UNL     1     -10.008   3.632  63.501  1.00  0.00     0.000 HD 
HETATM    5  N   UNL     1      -9.316   3.539  65.943  1.00  0.00    -0.163 NA 
HETATM    6  C   UNL     1      -9.102   3.605  67.265  1.00  0.00    -0.169 A  
HETATM    7  N   UNL     1      -8.108   2.740  67.755  1.00  0.00    -0.070 NA 
HETATM    8  C   UNL     1      -9.741   4.502  68.117  1.00  0.00    -0.127 A  
HETATM    9  H2  UNL     1      -7.234   2.888  67.250  1.00  0.00     0.000 HD 
HETATM   10  H1  UNL     1      -7.945   2.791  68.761  1.00  0.00     0.000 HD 
HETATM   11  N   UNL     1      -9.551   4.536  69.470  1.00  0.00    -0.179 NA 
HETATM   12  C   UNL     1     -10.257   5.457  70.175  1.00  0.00    -0.272 A  
HETATM   13  N   UNL     1     -10.852   5.309  66.151  1.00  0.00    -0.191 NA 
HETATM   14  C   UNL     1     -11.097   6.354  69.495  1.00  0.00    -0.396 A  
HETATM   15  H2  UNL     1     -11.157   7.936  70.641  1.00  0.00     0.000 HD 
HETATM   16  N   UNL     1     -11.824   7.374  70.110  1.00  0.00    -0.515 NA 
HETATM   17  N   UNL     1     -11.280   6.290  68.158  1.00  0.00    -0.271 NA 
HETATM   18  H1  UNL     1     -12.433   8.025  69.616  1.00  0.00     0.000 HD 
HETATM   19  C   UNL     1     -10.624   5.360  67.459  1.00  0.00    -0.129 A  
ENDROOT
BRANCH  12  20
HETATM   20  C   UNL     1     -10.062   5.396  71.645  1.00  0.00    -0.259 A  
HETATM   21  C   UNL     1     -11.061   4.850  72.478  1.00  0.00    -0.169 A  
HETATM   22  C   UNL     1     -10.925   4.822  73.871  1.00  0.00    -0.325 A  
HETATM   23  C   UNL     1      -9.780   5.338  74.469  1.00  0.00    -0.193 A  
HETATM   24  C   UNL     1      -8.776   5.882  73.676  1.00  0.00    -0.125 A  
HETATM   25  C   UNL     1      -8.921   5.917  72.284  1.00  0.00    -0.142 A  
ENDBRANCH  12  20
TORSDOF 1
ENDMDL
MODEL      123
REMARK 921   NORMALIZED FREE ENERGY PREDICTED BY IDOCK:   -4.17 KCAL/MOL
REMARK 922        TOTAL FREE ENERGY PREDICTED BY IDOCK:   -4.59 KCAL/MOL
REMARK 923 INTER-LIGAND FREE ENERGY PREDICTED BY IDOCK:   -4.48 KCAL/MOL
REMARK 924 INTRA-LIGAND FREE ENERGY PREDICTED BY IDOCK:   -0.11 KCAL/MOL
REMARK 927      BINDING AFFINITY PREDICTED BY RF-SCORE:    0.00 PKD
ROOT
HETATM    1  N   UNL     1     -12.575  13.689  63.872  1.00  0.00    -0.694 NA 
HETATM    2  H1  UNL     1     -12.833  14.607  64.237  1.00  0.00     0.000 HD 
HETATM    3  C   UNL     1     -11.599  12.987  64.543  1.00  0.00    -0.360 A  
HETATM    4  H2  UNL     1     -13.025  13.306  63.041  1.00  0.00     0.000 HD 
HETATM    5  N   UNL     1     -11.263  11.792  64.069  1.00  0.00    -0.369 NA 
HETATM    6  C   UNL     1     -10.336  11.113  64.762  1.00  0.00    -0.325 A  
HETATM    7  N   UNL     1      -9.960   9.878  64.209  1.00  0.00    -0.444 NA 
HETATM    8  C   UNL     1      -9.713  11.593  65.911  1.00  0.00    -0.235 A  
HETATM    9  H2  UNL     1      -9.653  10.004  63.244  1.00  0.00     0.000 HD 
HETATM   10  H1  UNL     1      -9.256   9.362  64.736  1.00  0.00     0.000 HD 
HETATM   11  N   UNL     1      -8.802  10.879  66.637  1.00  0.00    -0.155 NA 
HETATM   12  C   UNL     1      -8.288  11.471  67.747  1.00  0.00    -0.136 A  
HETATM   13  N   UNL     1     -11.043  13.564  65.601  1.00  0.00    -0.289 NA 
HETATM   14  C   UNL     1      -8.666  12.786  68.067  1.00  0.00    -0.194 A  
HETATM   15  H2  UNL     1      -7.144  13.507  69.058  1.00  0.00     0.000 HD 
HETATM   16  N   UNL     1      -8.160  13.511  69.147  1.00  0.00    -0.316 NA 
HETATM   17  N   UNL     1      -9.581  13.465  67.340  1.00  0.00    -0.217 NA 
HETATM   18  H1  UNL     1      -8.435  14.465  69.379  1.00  0.00     0.000 HD 
HETATM   19  C   UNL     1     -10.125  12.877  66.272  1.00  0.00    -0.276 A  
ENDROOT
BRANCH  12  20
HETATM   20  C   UNL     1      -7.361  10.620  68.533  1.00  0.00    -0.090 A  
HETATM   21  C   UNL     1      -7.638  10.313  69.881  1.00  0.00    -0.153 A  
HETATM   22  C   UNL     1      -6.760   9.552  70.659  1.00  0.00    -0.110 A  
HETATM   23  C   UNL     1      -5.576   9.072  70.106  1.00  0.00    -0.031 A  
HETATM   24  C   UNL     1      -5.274   9.356  68.779  1.00  0.00    -0.037 A  
HETATM   25  C   UNL     1      -6.152  10.127  68.007  1.00  0.00    -0.052 A  
ENDBRANCH  12  20
TORSDOF 1
ENDMDL
MODEL      124
REMARK 921   NORMALIZED FREE ENERGY PREDICTED BY IDOCK:   -4.15 KCAL/MOL
REMARK 922        TOTAL FREE ENERGY PREDICTED BY IDOCK:   -4.57 KCAL/MOL
REMARK 923 INTER-LIGAND FREE ENERGY PREDICTED BY IDOCK:   -4.80 KCAL/MOL
REMARK 924 INTRA-LIGAND FREE ENERGY PREDICTED BY IDOCK:    0.23 KCAL/MOL
REMARK 927      BINDING AFFINITY PREDICTED BY RF-SCORE:    0.00 PKD
ROOT
HETATM    1  N   UNL     1      -9.616  11.948  64.408  1.00  0.00    -0.453 NA 
HETATM    2  H1  UNL     1      -8.873  11.702  63.754  1.00  0.00     0.000 HD 
HETATM    3  C   UNL     1      -9.893  11.060  65.424  1.00  0.00    -0.251 A  
HETATM    4  H2  UNL     1     -10.137  12.819  64.312  1.00  0.00     0.000 HD 
HETATM    5  N   UNL     1     -10.861  11.379  66.276  1.00  0.00    -0.276 NA 
HETATM    6  C   UNL     1     -11.083  10.515  67.277  1.00  0.00    -0.213 A  
HETATM    7  N   UNL     1     -12.149  10.850  68.131  1.00  0.00    -0.790 NA 
HETATM    8  C   UNL     1     -10.383   9.325  67.453  1.00  0.00    -0.263 A  
HETATM    9  H2  UNL     1     -13.003  10.987  67.589  1.00  0.00     0.000 HD 
HETATM   10  H1  UNL     1     -12.318  10.193  68.892  1.00  0.00     0.000 HD 
HETATM   11  N   UNL     1     -10.585   8.471  68.501  1.00  0.00    -0.160 NA 
HETATM   12  C   UNL     1      -9.814   7.353  68.550  1.00  0.00    -0.159 A  
HETATM   13  N   UNL     1      -9.189   9.935  65.465  1.00  0.00    -0.186 NA 
HETATM   14  C   UNL     1      -8.897   7.099  67.516  1.00  0.00    -0.119 A  
HETATM   15  H2  UNL     1      -8.722   5.153  67.482  1.00  0.00     0.000 HD 
HETATM   16  N   UNL     1      -8.097   5.959  67.435  1.00  0.00    -0.102 NA 
HETATM   17  N   UNL     1      -8.705   7.968  66.499  1.00  0.00    -0.138 NA 
HETATM   18  H1  UNL     1      -7.432   5.775  66.685  1.00  0.00     0.000 HD 
HETATM   19  C   UNL     1      -9.427   9.091  66.464  1.00  0.00    -0.206 A  
ENDROOT
BRANCH  12  20
HETATM   20  C   UNL     1     -10.029   6.502  69.746  1.00  0.00    -0.189 A  
HETATM   21  C   UNL     1     -10.500   7.066  70.951  1.00  0.00    -0.233 A  
HETATM   22  C   UNL     1     -10.667   6.297  72.108  1.00  0.00    -0.269 A  
HETATM   23  C   UNL     1     -10.371   4.938  72.090  1.00  0.00    -0.263 A  
HETATM   24  C   UNL     1      -9.907   4.352  70.918  1.00  0.00    -0.266 A  
HETATM   25  C   UNL     1      -9.731   5.127  69.766  1.00  0.00    -0.263 A  
ENDBRANCH  12  20
TORSDOF 1
ENDMDL
MODEL      125
REMARK 921   NORMALIZED FREE ENERGY PREDICTED BY IDOCK:   -4.14 KCAL/MOL
REMARK 922        TOTAL FREE ENERGY PREDICTED BY IDOCK:   -4.57 KCAL/MOL
REMARK 923 INTER-LIGAND FREE ENERGY PREDICTED BY IDOCK:   -4.38 KCAL/MOL
REMARK 924 INTRA-LIGAND FREE ENERGY PREDICTED BY IDOCK:   -0.19 KCAL/MOL
REMARK 927      BINDING AFFINITY PREDICTED BY RF-SCORE:    0.00 PKD
ROOT
HETATM    1  N   UNL     1      -9.633   3.498  69.096  1.00  0.00    -0.144 NA 
HETATM    2  H1  UNL     1      -9.931   3.198  70.024  1.00  0.00     0.000 HD 
HETATM    3  C   UNL     1      -9.770   4.832  68.782  1.00  0.00    -0.167 A  
HETATM    4  H2  UNL     1      -9.248   2.835  68.424  1.00  0.00     0.000 HD 
HETATM    5  N   UNL     1      -9.382   5.224  67.573  1.00  0.00    -0.114 NA 
HETATM    6  C   UNL     1      -9.490   6.535  67.307  1.00  0.00    -0.125 A  
HETATM    7  N   UNL     1      -9.125   6.913  66.003  1.00  0.00    -0.312 NA 
HETATM    8  C   UNL     1      -9.993   7.475  68.202  1.00  0.00    -0.172 A  
HETATM    9  H2  UNL     1      -9.654   6.371  65.319  1.00  0.00     0.000 HD 
HETATM   10  H1  UNL     1      -9.208   7.909  65.801  1.00  0.00     0.000 HD 
HETATM   11  N   UNL     1     -10.060   8.815  67.941  1.00  0.00    -0.195 NA 
HETATM   12  C   UNL     1     -10.561   9.615  68.918  1.00  0.00    -0.217 A  
HETATM   13  N   UNL     1     -10.304   5.628  69.700  1.00  0.00    -0.249 NA 
HETATM   14  C   UNL     1     -11.027   9.040  70.112  1.00  0.00    -0.233 A  
HETATM   15  H2  UNL     1     -12.387  10.286  70.758  1.00  0.00     0.000 HD 
HETATM   16  N   UNL     1     -11.611   9.758  71.156  1.00  0.00    -0.362 NA 
HETATM   17  N   UNL     1     -10.934   7.714  70.352  1.00  0.00    -0.246 NA 
HETATM   18  H1  UNL     1     -11.949   9.341  72.023  1.00  0.00     0.000 HD 
HETATM   19  C   UNL     1     -10.405   6.923  69.416  1.00  0.00    -0.204 A  
ENDROOT
BRANCH  12  20
HETATM   20  C   UNL     1     -10.541  11.065  68.603  1.00  0.00    -0.225 A  
HETATM   21  C   UNL     1     -11.741  11.757  68.336  1.00  0.00    -0.389 A  
HETATM   22  C   UNL     1     -11.749  13.112  67.991  1.00  0.00    -0.394 A  
HETATM   23  C   UNL     1     -10.553  13.818  67.908  1.00  0.00    -0.257 A  
HETATM   24  C   UNL     1      -9.353  13.166  68.168  1.00  0.00    -0.217 A  
HETATM   25  C   UNL     1      -9.349  11.806  68.502  1.00  0.00    -0.158 A  
ENDBRANCH  12  20
TORSDOF 1
ENDMDL
MODEL      126
REMARK 921   NORMALIZED FREE ENERGY PREDICTED BY IDOCK:   -4.14 KCAL/MOL
REMARK 922        TOTAL FREE ENERGY PREDICTED BY IDOCK:   -4.56 KCAL/MOL
REMARK 923 INTER-LIGAND FREE ENERGY PREDICTED BY IDOCK:   -4.63 KCAL/MOL
REMARK 924 INTRA-LIGAND FREE ENERGY PREDICTED BY IDOCK:    0.07 KCAL/MOL
REMARK 927      BINDING AFFINITY PREDICTED BY RF-SCORE:    0.00 PKD
ROOT
HETATM    1  N   UNL     1      -5.756   8.349  64.139  1.00  0.00    -0.063 NA 
HETATM    2  H1  UNL     1      -5.854   7.368  63.876  1.00  0.00     0.000 HD 
HETATM    3  C   UNL     1      -6.666   8.863  65.036  1.00  0.00    -0.069 A  
HETATM    4  H2  UNL     1      -5.011   8.928  63.752  1.00  0.00     0.000 HD 
HETATM    5  N   UNL     1      -6.539  10.140  65.380  1.00  0.00    -0.114 NA 
HETATM    6  C   UNL     1      -7.414  10.605  66.283  1.00  0.00    -0.137 A  
HETATM    7  N   UNL     1      -7.292  11.972  66.587  1.00  0.00    -0.378 NA 
HETATM    8  C   UNL     1      -8.433   9.843  66.849  1.00  0.00    -0.125 A  
HETATM    9  H2  UNL     1      -7.342  12.528  65.732  1.00  0.00     0.000 HD 
HETATM   10  H1  UNL     1      -7.958  12.326  67.274  1.00  0.00     0.000 HD 
HETATM   11  N   UNL     1      -9.294  10.311  67.801  1.00  0.00    -0.144 NA 
HETATM   12  C   UNL     1     -10.230   9.446  68.273  1.00  0.00    -0.196 A  
HETATM   13  N   UNL     1      -7.622   8.053  65.474  1.00  0.00    -0.081 NA 
HETATM   14  C   UNL     1     -10.306   8.149  67.738  1.00  0.00    -0.233 A  
HETATM   15  H2  UNL     1     -12.174   7.630  67.973  1.00  0.00     0.000 HD 
HETATM   16  N   UNL     1     -11.259   7.199  68.106  1.00  0.00    -0.492 NA 
HETATM   17  N   UNL     1      -9.431   7.706  66.807  1.00  0.00    -0.180 NA 
HETATM   18  H1  UNL     1     -11.314   6.258  67.717  1.00  0.00     0.000 HD 
HETATM   19  C   UNL     1      -8.481   8.534  66.367  1.00  0.00    -0.117 A  
ENDROOT
BRANCH  12  20
HETATM   20  C   UNL     1     -11.087   9.988  69.355  1.00  0.00    -0.265 A  
HETATM   21  C   UNL     1     -11.491  11.340  69.340  1.00  0.00    -0.370 A  
HETATM   22  C   UNL     1     -12.260  11.891  70.371  1.00  0.00    -0.399 A  
HETATM   23  C   UNL     1     -12.653  11.100  71.447  1.00  0.00    -0.479 A  
HETATM   24  C   UNL     1     -12.273   9.764  71.490  1.00  0.00    -0.493 A  
HETATM   25  C   UNL     1     -11.494   9.219  70.462  1.00  0.00    -0.296 A  
ENDBRANCH  12  20
TORSDOF 1
ENDMDL
MODEL      127
REMARK 921   NORMALIZED FREE ENERGY PREDICTED BY IDOCK:   -4.13 KCAL/MOL
REMARK 922        TOTAL FREE ENERGY PREDICTED BY IDOCK:   -4.55 KCAL/MOL
REMARK 923 INTER-LIGAND FREE ENERGY PREDICTED BY IDOCK:   -4.74 KCAL/MOL
REMARK 924 INTRA-LIGAND FREE ENERGY PREDICTED BY IDOCK:    0.19 KCAL/MOL
REMARK 927      BINDING AFFINITY PREDICTED BY RF-SCORE:    0.00 PKD
ROOT
HETATM    1  N   UNL     1      -9.970  16.960  66.699  1.00  0.00    -0.283 NA 
HETATM    2  H1  UNL     1      -9.223  17.358  67.268  1.00  0.00     0.000 HD 
HETATM    3  C   UNL     1     -10.150  15.595  66.744  1.00  0.00    -0.272 A  
HETATM    4  H2  UNL     1     -10.563  17.551  66.117  1.00  0.00     0.000 HD 
HETATM    5  N   UNL     1     -11.123  15.076  66.004  1.00  0.00    -0.336 NA 
HETATM    6  C   UNL     1     -11.301  13.750  66.096  1.00  0.00    -0.314 A  
HETATM    7  N   UNL     1     -12.300  13.220  65.261  1.00  0.00    -0.450 NA 
HETATM    8  C   UNL     1     -10.526  12.910  66.892  1.00  0.00    -0.246 A  
HETATM    9  H2  UNL     1     -12.123  13.484  64.291  1.00  0.00     0.000 HD 
HETATM   10  H1  UNL     1     -12.435  12.212  65.331  1.00  0.00     0.000 HD 
HETATM   11  N   UNL     1     -10.740  11.567  67.015  1.00  0.00    -0.245 NA 
HETATM   12  C   UNL     1      -9.912  10.877  67.843  1.00  0.00    -0.176 A  
HETATM   13  N   UNL     1      -9.321  14.891  67.506  1.00  0.00    -0.190 NA 
HETATM   14  C   UNL     1      -8.859  11.550  68.484  1.00  0.00    -0.139 A  
HETATM   15  H2  UNL     1      -7.499  10.175  68.768  1.00  0.00     0.000 HD 
HETATM   16  N   UNL     1      -7.917  10.934  69.308  1.00  0.00    -0.315 NA 
HETATM   17  N   UNL     1      -8.678  12.883  68.358  1.00  0.00    -0.158 NA 
HETATM   18  H1  UNL     1      -7.152  11.422  69.774  1.00  0.00     0.000 HD 
HETATM   19  C   UNL     1      -9.512  13.578  67.581  1.00  0.00    -0.222 A  
ENDROOT
BRANCH  12  20
HETATM   20  C   UNL     1     -10.239   9.438  67.990  1.00  0.00    -0.248 A  
HETATM   21  C   UNL     1      -9.983   8.765  69.203  1.00  0.00    -0.193 A  
HETATM   22  C   UNL     1     -10.237   7.398  69.356  1.00  0.00    -0.201 A  
HETATM   23  C   UNL     1     -10.762   6.664  68.296  1.00  0.00    -0.317 A  
HETATM   24  C   UNL     1     -11.028   7.298  67.088  1.00  0.00    -0.285 A  
HETATM   25  C   UNL     1     -10.762   8.664  66.937  1.00  0.00    -0.152 A  
ENDBRANCH  12  20
TORSDOF 1
ENDMDL
MODEL      128
REMARK 921   NORMALIZED FREE ENERGY PREDICTED BY IDOCK:   -4.05 KCAL/MOL
REMARK 922        TOTAL FREE ENERGY PREDICTED BY IDOCK:   -4.47 KCAL/MOL
REMARK 923 INTER-LIGAND FREE ENERGY PREDICTED BY IDOCK:   -4.24 KCAL/MOL
REMARK 924 INTRA-LIGAND FREE ENERGY PREDICTED BY IDOCK:   -0.23 KCAL/MOL
REMARK 927      BINDING AFFINITY PREDICTED BY RF-SCORE:    0.00 PKD
ROOT
HETATM    1  N   UNL     1      -9.626  11.701  64.168  1.00  0.00    -0.422 NA 
HETATM    2  H1  UNL     1      -9.160  12.607  64.130  1.00  0.00     0.000 HD 
HETATM    3  C   UNL     1      -9.461  10.944  65.307  1.00  0.00    -0.217 A  
HETATM    4  H2  UNL     1     -10.195  11.366  63.390  1.00  0.00     0.000 HD 
HETATM    5  N   UNL     1     -10.068   9.763  65.356  1.00  0.00    -0.244 NA 
HETATM    6  C   UNL     1      -9.921   9.064  66.492  1.00  0.00    -0.285 A  
HETATM    7  N   UNL     1     -10.527   7.796  66.496  1.00  0.00    -0.471 NA 
HETATM    8  C   UNL     1      -9.170   9.492  67.582  1.00  0.00    -0.124 A  
HETATM    9  H2  UNL     1     -10.199   7.247  65.701  1.00  0.00     0.000 HD 
HETATM   10  H1  UNL     1     -10.415   7.264  67.359  1.00  0.00     0.000 HD 
HETATM   11  N   UNL     1      -9.060   8.795  68.752  1.00  0.00    -0.138 NA 
HETATM   12  C   UNL     1      -8.303   9.347  69.737  1.00  0.00    -0.157 A  
HETATM   13  N   UNL     1      -8.685  11.437  66.264  1.00  0.00    -0.182 NA 
HETATM   14  C   UNL     1      -7.637  10.560  69.500  1.00  0.00    -0.145 A  
HETATM   15  H2  UNL     1      -6.080  10.505  70.680  1.00  0.00     0.000 HD 
HETATM   16  N   UNL     1      -6.791  11.187  70.416  1.00  0.00    -0.472 NA 
HETATM   17  N   UNL     1      -7.775  11.238  68.339  1.00  0.00    -0.117 NA 
HETATM   18  H1  UNL     1      -6.307  12.068  70.243  1.00  0.00     0.000 HD 
HETATM   19  C   UNL     1      -8.550  10.727  67.380  1.00  0.00    -0.126 A  
ENDROOT
BRANCH  12  20
HETATM   20  C   UNL     1      -8.281   8.579  71.007  1.00  0.00    -0.163 A  
HETATM   21  C   UNL     1      -9.342   8.689  71.929  1.00  0.00    -0.357 A  
HETATM   22  C   UNL     1      -9.327   8.014  73.155  1.00  0.00    -0.346 A  
HETATM   23  C   UNL     1      -8.246   7.203  73.490  1.00  0.00    -0.138 A  
HETATM   24  C   UNL     1      -7.185   7.072  72.601  1.00  0.00    -0.073 A  
HETATM   25  C   UNL     1      -7.200   7.758  71.381  1.00  0.00    -0.063 A  
ENDBRANCH  12  20
TORSDOF 1
ENDMDL
MODEL      129
REMARK 921   NORMALIZED FREE ENERGY PREDICTED BY IDOCK:   -4.04 KCAL/MOL
REMARK 922        TOTAL FREE ENERGY PREDICTED BY IDOCK:   -4.45 KCAL/MOL
REMARK 923 INTER-LIGAND FREE ENERGY PREDICTED BY IDOCK:   -4.21 KCAL/MOL
REMARK 924 INTRA-LIGAND FREE ENERGY PREDICTED BY IDOCK:   -0.25 KCAL/MOL
REMARK 927      BINDING AFFINITY PREDICTED BY RF-SCORE:    0.00 PKD
ROOT
HETATM    1  N   UNL     1     -11.399  14.057  68.774  1.00  0.00    -0.260 NA 
HETATM    2  H1  UNL     1     -10.712  14.427  68.117  1.00  0.00     0.000 HD 
HETATM    3  C   UNL     1     -11.248  12.752  69.189  1.00  0.00    -0.237 A  
HETATM    4  H2  UNL     1     -12.171  14.632  69.112  1.00  0.00     0.000 HD 
HETATM    5  N   UNL     1     -12.142  12.269  70.045  1.00  0.00    -0.303 NA 
HETATM    6  C   UNL     1     -11.950  11.009  70.462  1.00  0.00    -0.379 A  
HETATM    7  N   UNL     1     -12.940  10.506  71.323  1.00  0.00    -0.411 NA 
HETATM    8  C   UNL     1     -10.901  10.197  70.040  1.00  0.00    -0.307 A  
HETATM    9  H2  UNL     1     -13.860  10.596  70.891  1.00  0.00     0.000 HD 
HETATM   10  H1  UNL     1     -12.794   9.547  71.640  1.00  0.00     0.000 HD 
HETATM   11  N   UNL     1     -10.686   8.929  70.501  1.00  0.00    -0.220 NA 
HETATM   12  C   UNL     1      -9.609   8.262  70.009  1.00  0.00    -0.168 A  
HETATM   13  N   UNL     1     -10.234  12.060  68.684  1.00  0.00    -0.205 NA 
HETATM   14  C   UNL     1      -8.808   8.869  69.028  1.00  0.00    -0.136 A  
HETATM   15  H2  UNL     1      -8.049   7.376  68.021  1.00  0.00     0.000 HD 
HETATM   16  N   UNL     1      -7.715   8.257  68.413  1.00  0.00    -0.104 NA 
HETATM   17  N   UNL     1      -9.033  10.131  68.600  1.00  0.00    -0.130 NA 
HETATM   18  H1  UNL     1      -7.134   8.698  67.701  1.00  0.00     0.000 HD 
HETATM   19  C   UNL     1     -10.063  10.812  69.108  1.00  0.00    -0.205 A  
ENDROOT
BRANCH  12  20
HETATM   20  C   UNL     1      -9.387   6.919  70.601  1.00  0.00    -0.162 A  
HETATM   21  C   UNL     1     -10.054   5.789  70.084  1.00  0.00    -0.274 A  
HETATM   22  C   UNL     1      -9.900   4.519  70.651  1.00  0.00    -0.292 A  
HETATM   23  C   UNL     1      -9.069   4.344  71.753  1.00  0.00    -0.167 A  
HETATM   24  C   UNL     1      -8.396   5.438  72.285  1.00  0.00    -0.122 A  
HETATM   25  C   UNL     1      -8.561   6.709  71.721  1.00  0.00    -0.126 A  
ENDBRANCH  12  20
TORSDOF 1
ENDMDL
MODEL      130
REMARK 921   NORMALIZED FREE ENERGY PREDICTED BY IDOCK:   -4.02 KCAL/MOL
REMARK 922        TOTAL FREE ENERGY PREDICTED BY IDOCK:   -4.43 KCAL/MOL
REMARK 923 INTER-LIGAND FREE ENERGY PREDICTED BY IDOCK:   -4.46 KCAL/MOL
REMARK 924 INTRA-LIGAND FREE ENERGY PREDICTED BY IDOCK:    0.02 KCAL/MOL
REMARK 927      BINDING AFFINITY PREDICTED BY RF-SCORE:    0.00 PKD
ROOT
HETATM    1  N   UNL     1      -5.898  18.418  68.647  1.00  0.00    -0.186 NA 
HETATM    2  H1  UNL     1      -6.008  19.043  67.849  1.00  0.00     0.000 HD 
HETATM    3  C   UNL     1      -6.536  17.199  68.598  1.00  0.00    -0.180 A  
HETATM    4  H2  UNL     1      -5.335  18.687  69.454  1.00  0.00     0.000 HD 
HETATM    5  N   UNL     1      -6.393  16.385  69.638  1.00  0.00    -0.212 NA 
HETATM    6  C   UNL     1      -6.994  15.189  69.547  1.00  0.00    -0.189 A  
HETATM    7  N   UNL     1      -6.872  14.370  70.683  1.00  0.00    -0.314 NA 
HETATM    8  C   UNL     1      -7.755  14.777  68.456  1.00  0.00    -0.120 A  
HETATM    9  H2  UNL     1      -7.202  14.867  71.511  1.00  0.00     0.000 HD 
HETATM   10  H1  UNL     1      -7.329  13.461  70.613  1.00  0.00     0.000 HD 
HETATM   11  N   UNL     1      -8.328  13.541  68.351  1.00  0.00    -0.156 NA 
HETATM   12  C   UNL     1      -9.030  13.275  67.219  1.00  0.00    -0.217 A  
HETATM   13  N   UNL     1      -7.272  16.933  67.525  1.00  0.00    -0.143 NA 
HETATM   14  C   UNL     1      -9.180  14.277  66.246  1.00  0.00    -0.151 A  
HETATM   15  H2  UNL     1     -10.864  13.846  65.353  1.00  0.00     0.000 HD 
HETATM   16  N   UNL     1      -9.925  14.133  65.075  1.00  0.00    -0.587 NA 
HETATM   17  N   UNL     1      -8.590  15.486  66.367  1.00  0.00    -0.295 NA 
HETATM   18  H1  UNL     1     -10.034  14.861  64.369  1.00  0.00     0.000 HD 
HETATM   19  C   UNL     1      -7.862  15.744  67.456  1.00  0.00    -0.159 A  
ENDROOT
BRANCH  12  20
HETATM   20  C   UNL     1      -9.567  11.894  67.131  1.00  0.00    -0.192 A  
HETATM   21  C   UNL     1     -10.125  11.269  68.266  1.00  0.00    -0.198 A  
HETATM   22  C   UNL     1     -10.596   9.952  68.225  1.00  0.00    -0.269 A  
HETATM   23  C   UNL     1     -10.525   9.223  67.041  1.00  0.00    -0.303 A  
HETATM   24  C   UNL     1      -9.982   9.811  65.905  1.00  0.00    -0.345 A  
HETATM   25  C   UNL     1      -9.503  11.126  65.953  1.00  0.00    -0.241 A  
ENDBRANCH  12  20
TORSDOF 1
ENDMDL
MODEL      131
REMARK 921   NORMALIZED FREE ENERGY PREDICTED BY IDOCK:   -4.00 KCAL/MOL
REMARK 922        TOTAL FREE ENERGY PREDICTED BY IDOCK:   -4.42 KCAL/MOL
REMARK 923 INTER-LIGAND FREE ENERGY PREDICTED BY IDOCK:   -4.17 KCAL/MOL
REMARK 924 INTRA-LIGAND FREE ENERGY PREDICTED BY IDOCK:   -0.24 KCAL/MOL
REMARK 927      BINDING AFFINITY PREDICTED BY RF-SCORE:    0.00 PKD
ROOT
HETATM    1  N   UNL     1      -7.914   6.432  64.075  1.00  0.00    -0.174 NA 
HETATM    2  H1  UNL     1      -7.982   6.428  63.057  1.00  0.00     0.000 HD 
HETATM    3  C   UNL     1      -8.267   7.588  64.734  1.00  0.00    -0.065 A  
HETATM    4  H2  UNL     1      -7.596   5.608  64.586  1.00  0.00     0.000 HD 
HETATM    5  N   UNL     1      -8.179   7.594  66.060  1.00  0.00    -0.121 NA 
HETATM    6  C   UNL     1      -8.565   8.719  66.679  1.00  0.00    -0.112 A  
HETATM    7  N   UNL     1      -8.410   8.718  68.076  1.00  0.00    -0.118 NA 
HETATM    8  C   UNL     1      -9.022   9.857  66.019  1.00  0.00    -0.149 A  
HETATM    9  H2  UNL     1      -7.445   8.495  68.322  1.00  0.00     0.000 HD 
HETATM   10  H1  UNL     1      -8.703   9.574  68.546  1.00  0.00     0.000 HD 
HETATM   11  N   UNL     1      -9.455  10.985  66.658  1.00  0.00    -0.181 NA 
HETATM   12  C   UNL     1      -9.888  12.013  65.881  1.00  0.00    -0.238 A  
HETATM   13  N   UNL     1      -8.645   8.625  63.997  1.00  0.00    -0.074 NA 
HETATM   14  C   UNL     1      -9.826  11.897  64.483  1.00  0.00    -0.178 A  
HETATM   15  H2  UNL     1      -9.651  13.735  63.845  1.00  0.00     0.000 HD 
HETATM   16  N   UNL     1     -10.189  12.907  63.591  1.00  0.00    -0.682 NA 
HETATM   17  N   UNL     1      -9.408  10.764  63.876  1.00  0.00    -0.233 NA 
HETATM   18  H1  UNL     1     -10.144  12.822  62.576  1.00  0.00     0.000 HD 
HETATM   19  C   UNL     1      -9.021   9.732  64.629  1.00  0.00    -0.230 A  
ENDROOT
BRANCH  12  20
HETATM   20  C   UNL     1     -10.412  13.180  66.632  1.00  0.00    -0.280 A  
HETATM   21  C   UNL     1     -11.762  13.225  67.037  1.00  0.00    -0.439 A  
HETATM   22  C   UNL     1     -12.295  14.332  67.705  1.00  0.00    -0.061 A  
HETATM   23  C   UNL     1     -11.487  15.429  67.991  1.00  0.00    -0.333 A  
HETATM   24  C   UNL     1     -10.151  15.415  67.607  1.00  0.00    -0.236 A  
HETATM   25  C   UNL     1      -9.625  14.309  66.930  1.00  0.00    -0.268 A  
ENDBRANCH  12  20
TORSDOF 1
ENDMDL
MODEL      132
REMARK 921   NORMALIZED FREE ENERGY PREDICTED BY IDOCK:   -3.98 KCAL/MOL
REMARK 922        TOTAL FREE ENERGY PREDICTED BY IDOCK:   -4.39 KCAL/MOL
REMARK 923 INTER-LIGAND FREE ENERGY PREDICTED BY IDOCK:   -4.41 KCAL/MOL
REMARK 924 INTRA-LIGAND FREE ENERGY PREDICTED BY IDOCK:    0.02 KCAL/MOL
REMARK 927      BINDING AFFINITY PREDICTED BY RF-SCORE:    0.00 PKD
ROOT
HETATM    1  N   UNL     1      -9.859   2.218  73.148  1.00  0.00    -0.101 NA 
HETATM    2  H1  UNL     1     -10.079   1.500  72.458  1.00  0.00     0.000 HD 
HETATM    3  C   UNL     1      -9.908   3.532  72.740  1.00  0.00    -0.147 A  
HETATM    4  H2  UNL     1      -9.613   1.972  74.107  1.00  0.00     0.000 HD 
HETATM    5  N   UNL     1      -9.623   4.468  73.639  1.00  0.00    -0.123 NA 
HETATM    6  C   UNL     1      -9.714   5.741  73.226  1.00  0.00    -0.152 A  
HETATM    7  N   UNL     1      -9.354   6.708  74.180  1.00  0.00    -0.189 NA 
HETATM    8  C   UNL     1     -10.065   6.120  71.932  1.00  0.00    -0.189 A  
HETATM    9  H2  UNL     1      -8.415   6.520  74.532  1.00  0.00     0.000 HD 
HETATM   10  H1  UNL     1      -9.423   7.676  73.865  1.00  0.00     0.000 HD 
HETATM   11  N   UNL     1     -10.199   7.418  71.529  1.00  0.00    -0.193 NA 
HETATM   12  C   UNL     1     -10.564   7.635  70.238  1.00  0.00    -0.230 A  
HETATM   13  N   UNL     1     -10.211   3.771  71.470  1.00  0.00    -0.045 NA 
HETATM   14  C   UNL     1     -10.733   6.540  69.375  1.00  0.00    -0.277 A  
HETATM   15  H2  UNL     1     -10.347   7.254  67.597  1.00  0.00     0.000 HD 
HETATM   16  N   UNL     1     -11.050   6.648  68.020  1.00  0.00    -0.516 NA 
HETATM   17  N   UNL     1     -10.610   5.265  69.802  1.00  0.00    -0.281 NA 
HETATM   18  H1  UNL     1     -11.173   5.853  67.393  1.00  0.00     0.000 HD 
HETATM   19  C   UNL     1     -10.294   5.039  71.080  1.00  0.00    -0.184 A  
ENDROOT
BRANCH  12  20
HETATM   20  C   UNL     1     -10.763   9.061  69.881  1.00  0.00    -0.240 A  
HETATM   21  C   UNL     1     -11.537   9.905  70.704  1.00  0.00    -0.413 A  
HETATM   22  C   UNL     1     -11.781  11.241  70.368  1.00  0.00    -0.398 A  
HETATM   23  C   UNL     1     -11.251  11.773  69.196  1.00  0.00    -0.324 A  
HETATM   24  C   UNL     1     -10.482  10.967  68.364  1.00  0.00    -0.203 A  
HETATM   25  C   UNL     1     -10.250   9.628  68.699  1.00  0.00    -0.209 A  
ENDBRANCH  12  20
TORSDOF 1
ENDMDL
MODEL      133
REMARK 921   NORMALIZED FREE ENERGY PREDICTED BY IDOCK:   -3.91 KCAL/MOL
REMARK 922        TOTAL FREE ENERGY PREDICTED BY IDOCK:   -4.32 KCAL/MOL
REMARK 923 INTER-LIGAND FREE ENERGY PREDICTED BY IDOCK:   -4.14 KCAL/MOL
REMARK 924 INTRA-LIGAND FREE ENERGY PREDICTED BY IDOCK:   -0.17 KCAL/MOL
REMARK 927      BINDING AFFINITY PREDICTED BY RF-SCORE:    0.00 PKD
ROOT
HETATM    1  N   UNL     1     -13.355   8.235  72.489  1.00  0.00    -0.583 NA 
HETATM    2  H1  UNL     1     -13.672   7.286  72.687  1.00  0.00     0.000 HD 
HETATM    3  C   UNL     1     -12.391   8.398  71.519  1.00  0.00    -0.309 A  
HETATM    4  H2  UNL     1     -13.740   9.035  72.991  1.00  0.00     0.000 HD 
HETATM    5  N   UNL     1     -11.979   9.635  71.261  1.00  0.00    -0.351 NA 
HETATM    6  C   UNL     1     -11.067   9.769  70.286  1.00  0.00    -0.292 A  
HETATM    7  N   UNL     1     -10.608  11.080  70.072  1.00  0.00    -0.413 NA 
HETATM    8  C   UNL     1     -10.532   8.705  69.565  1.00  0.00    -0.220 A  
HETATM    9  H2  UNL     1     -10.251  11.474  70.943  1.00  0.00     0.000 HD 
HETATM   10  H1  UNL     1      -9.915  11.181  69.331  1.00  0.00     0.000 HD 
HETATM   11  N   UNL     1      -9.636   8.852  68.544  1.00  0.00    -0.155 NA 
HETATM   12  C   UNL     1      -9.212   7.722  67.919  1.00  0.00    -0.137 A  
HETATM   13  N   UNL     1     -11.922   7.306  70.929  1.00  0.00    -0.318 NA 
HETATM   14  C   UNL     1      -9.662   6.471  68.373  1.00  0.00    -0.132 A  
HETATM   15  H2  UNL     1      -8.232   5.230  67.891  1.00  0.00     0.000 HD 
HETATM   16  N   UNL     1      -9.251   5.247  67.845  1.00  0.00    -0.110 NA 
HETATM   17  N   UNL     1     -10.561   6.354  69.375  1.00  0.00    -0.229 NA 
HETATM   18  H1  UNL     1      -9.578   4.339  68.175  1.00  0.00     0.000 HD 
HETATM   19  C   UNL     1     -11.017   7.460  69.968  1.00  0.00    -0.248 A  
ENDROOT
BRANCH  12  20
HETATM   20  C   UNL     1      -8.298   7.951  66.774  1.00  0.00    -0.120 A  
HETATM   21  C   UNL     1      -6.939   7.583  66.857  1.00  0.00    -0.079 A  
HETATM   22  C   UNL     1      -6.043   7.829  65.811  1.00  0.00    -0.038 A  
HETATM   23  C   UNL     1      -6.485   8.449  64.646  1.00  0.00    -0.065 A  
HETATM   24  C   UNL     1      -7.819   8.822  64.532  1.00  0.00    -0.129 A  
HETATM   25  C   UNL     1      -8.710   8.583  65.586  1.00  0.00    -0.213 A  
ENDBRANCH  12  20
TORSDOF 1
ENDMDL
MODEL      134
REMARK 921   NORMALIZED FREE ENERGY PREDICTED BY IDOCK:   -3.86 KCAL/MOL
REMARK 922        TOTAL FREE ENERGY PREDICTED BY IDOCK:   -4.26 KCAL/MOL
REMARK 923 INTER-LIGAND FREE ENERGY PREDICTED BY IDOCK:   -4.06 KCAL/MOL
REMARK 924 INTRA-LIGAND FREE ENERGY PREDICTED BY IDOCK:   -0.20 KCAL/MOL
REMARK 927      BINDING AFFINITY PREDICTED BY RF-SCORE:    0.00 PKD
ROOT
HETATM    1  N   UNL     1      -9.231   2.156  66.128  1.00  0.00    -0.317 NA 
HETATM    2  H1  UNL     1      -9.616   1.628  66.911  1.00  0.00     0.000 HD 
HETATM    3  C   UNL     1      -9.313   3.529  66.181  1.00  0.00    -0.160 A  
HETATM    4  H2  UNL     1      -8.800   1.683  65.333  1.00  0.00     0.000 HD 
HETATM    5  N   UNL     1      -8.811   4.218  65.162  1.00  0.00    -0.128 NA 
HETATM    6  C   UNL     1      -8.870   5.554  65.257  1.00  0.00    -0.107 A  
HETATM    7  N   UNL     1      -8.383   6.256  64.141  1.00  0.00    -0.323 NA 
HETATM    8  C   UNL     1      -9.432   6.238  66.332  1.00  0.00    -0.133 A  
HETATM    9  H2  UNL     1      -8.859   5.944  63.295  1.00  0.00     0.000 HD 
HETATM   10  H1  UNL     1      -8.428   7.273  64.214  1.00  0.00     0.000 HD 
HETATM   11  N   UNL     1      -9.450   7.599  66.444  1.00  0.00    -0.184 NA 
HETATM   12  C   UNL     1     -10.019   8.125  67.560  1.00  0.00    -0.192 A  
HETATM   13  N   UNL     1      -9.911   4.069  67.237  1.00  0.00    -0.153 NA 
HETATM   14  C   UNL     1     -10.602   7.269  68.508  1.00  0.00    -0.175 A  
HETATM   15  H2  UNL     1     -11.990   8.349  69.359  1.00  0.00     0.000 HD 
HETATM   16  N   UNL     1     -11.262   7.700  69.659  1.00  0.00    -0.453 NA 
HETATM   17  N   UNL     1     -10.557   5.924  68.382  1.00  0.00    -0.239 NA 
HETATM   18  H1  UNL     1     -11.685   7.078  70.348  1.00  0.00     0.000 HD 
HETATM   19  C   UNL     1      -9.962   5.395  67.311  1.00  0.00    -0.171 A  
ENDROOT
BRANCH  12  20
HETATM   20  C   UNL     1      -9.944   9.604  67.657  1.00  0.00    -0.218 A  
HETATM   21  C   UNL     1      -8.725  10.240  67.973  1.00  0.00    -0.122 A  
HETATM   22  C   UNL     1      -8.634  11.629  68.117  1.00  0.00    -0.158 A  
HETATM   23  C   UNL     1      -9.764  12.423  67.945  1.00  0.00    -0.204 A  
HETATM   24  C   UNL     1     -10.980  11.826  67.632  1.00  0.00    -0.286 A  
HETATM   25  C   UNL     1     -11.069  10.435  67.498  1.00  0.00    -0.336 A  
ENDBRANCH  12  20
TORSDOF 1
ENDMDL
MODEL      135
REMARK 921   NORMALIZED FREE ENERGY PREDICTED BY IDOCK:   -3.81 KCAL/MOL
REMARK 922        TOTAL FREE ENERGY PREDICTED BY IDOCK:   -4.21 KCAL/MOL
REMARK 923 INTER-LIGAND FREE ENERGY PREDICTED BY IDOCK:   -4.06 KCAL/MOL
REMARK 924 INTRA-LIGAND FREE ENERGY PREDICTED BY IDOCK:   -0.15 KCAL/MOL
REMARK 927      BINDING AFFINITY PREDICTED BY RF-SCORE:    0.00 PKD
ROOT
HETATM    1  N   UNL     1      -8.364  16.733  67.361  1.00  0.00    -0.178 NA 
HETATM    2  H1  UNL     1      -7.454  16.831  66.910  1.00  0.00     0.000 HD 
HETATM    3  C   UNL     1      -8.858  15.459  67.533  1.00  0.00    -0.180 A  
HETATM    4  H2  UNL     1      -8.889  17.550  67.673  1.00  0.00     0.000 HD 
HETATM    5  N   UNL     1     -10.043  15.331  68.121  1.00  0.00    -0.227 NA 
HETATM    6  C   UNL     1     -10.483  14.079  68.310  1.00  0.00    -0.244 A  
HETATM    7  N   UNL     1     -11.762  13.974  68.882  1.00  0.00    -0.317 NA 
HETATM    8  C   UNL     1      -9.789  12.938  67.915  1.00  0.00    -0.227 A  
HETATM    9  H2  UNL     1     -12.438  14.504  68.331  1.00  0.00     0.000 HD 
HETATM   10  H1  UNL     1     -12.097  13.021  69.026  1.00  0.00     0.000 HD 
HETATM   11  N   UNL     1     -10.222  11.664  68.150  1.00  0.00    -0.190 NA 
HETATM   12  C   UNL     1      -9.430  10.647  67.721  1.00  0.00    -0.153 A  
HETATM   13  N   UNL     1      -8.127  14.450  67.076  1.00  0.00    -0.138 NA 
HETATM   14  C   UNL     1      -8.248  10.940  67.021  1.00  0.00    -0.134 A  
HETATM   15  H2  UNL     1      -7.952   9.381  65.881  1.00  0.00     0.000 HD 
HETATM   16  N   UNL     1      -7.389   9.979  66.487  1.00  0.00    -0.099 NA 
HETATM   17  N   UNL     1      -7.833  12.210  66.816  1.00  0.00    -0.061 NA 
HETATM   18  H1  UNL     1      -6.531  10.192  65.979  1.00  0.00     0.000 HD 
HETATM   19  C   UNL     1      -8.583  13.216  67.271  1.00  0.00    -0.210 A  
ENDROOT
BRANCH  12  20
HETATM   20  C   UNL     1      -9.918   9.290  68.068  1.00  0.00    -0.216 A  
HETATM   21  C   UNL     1     -10.341   8.400  67.059  1.00  0.00    -0.385 A  
HETATM   22  C   UNL     1     -10.849   7.132  67.360  1.00  0.00    -0.346 A  
HETATM   23  C   UNL     1     -10.945   6.716  68.684  1.00  0.00    -0.317 A  
HETATM   24  C   UNL     1     -10.535   7.568  69.703  1.00  0.00    -0.235 A  
HETATM   25  C   UNL     1     -10.036   8.841  69.397  1.00  0.00    -0.203 A  
ENDBRANCH  12  20
TORSDOF 1
ENDMDL
MODEL      136
REMARK 921   NORMALIZED FREE ENERGY PREDICTED BY IDOCK:   -3.81 KCAL/MOL
REMARK 922        TOTAL FREE ENERGY PREDICTED BY IDOCK:   -4.21 KCAL/MOL
REMARK 923 INTER-LIGAND FREE ENERGY PREDICTED BY IDOCK:   -4.00 KCAL/MOL
REMARK 924 INTRA-LIGAND FREE ENERGY PREDICTED BY IDOCK:   -0.22 KCAL/MOL
REMARK 927      BINDING AFFINITY PREDICTED BY RF-SCORE:    0.00 PKD
ROOT
HETATM    1  N   UNL     1      -7.828   3.296  64.087  1.00  0.00    -0.080 NA 
HETATM    2  H1  UNL     1      -8.045   3.795  63.224  1.00  0.00     0.000 HD 
HETATM    3  C   UNL     1      -8.220   3.872  65.275  1.00  0.00    -0.101 A  
HETATM    4  H2  UNL     1      -7.337   2.403  64.071  1.00  0.00     0.000 HD 
HETATM    5  N   UNL     1      -7.937   3.223  66.399  1.00  0.00    -0.081 NA 
HETATM    6  C   UNL     1      -8.364   3.787  67.538  1.00  0.00    -0.094 A  
HETATM    7  N   UNL     1      -8.003   3.108  68.714  1.00  0.00    -0.057 NA 
HETATM    8  C   UNL     1      -9.053   4.996  67.602  1.00  0.00    -0.113 A  
HETATM    9  H2  UNL     1      -6.992   2.974  68.747  1.00  0.00     0.000 HD 
HETATM   10  H1  UNL     1      -8.328   3.538  69.581  1.00  0.00     0.000 HD 
HETATM   11  N   UNL     1      -9.523   5.544  68.762  1.00  0.00    -0.124 NA 
HETATM   12  C   UNL     1     -10.193   6.722  68.667  1.00  0.00    -0.175 A  
HETATM   13  N   UNL     1      -8.831   5.050  65.215  1.00  0.00    -0.151 NA 
HETATM   14  C   UNL     1     -10.326   7.343  67.414  1.00  0.00    -0.270 A  
HETATM   15  H2  UNL     1     -10.480   9.248  67.824  1.00  0.00     0.000 HD 
HETATM   16  N   UNL     1     -10.942   8.578  67.208  1.00  0.00    -0.403 NA 
HETATM   17  N   UNL     1      -9.866   6.772  66.279  1.00  0.00    -0.023 NA 
HETATM   18  H1  UNL     1     -11.039   9.029  66.299  1.00  0.00     0.000 HD 
HETATM   19  C   UNL     1      -9.243   5.594  66.355  1.00  0.00    -0.152 A  
ENDROOT
BRANCH  12  20
HETATM   20  C   UNL     1     -10.741   7.230  69.949  1.00  0.00    -0.257 A  
HETATM   21  C   UNL     1     -10.110   8.294  70.627  1.00  0.00    -0.212 A  
HETATM   22  C   UNL     1     -10.577   8.762  71.860  1.00  0.00    -0.425 A  
HETATM   23  C   UNL     1     -11.695   8.179  72.449  1.00  0.00    -0.461 A  
HETATM   24  C   UNL     1     -12.340   7.129  71.806  1.00  0.00    -0.385 A  
HETATM   25  C   UNL     1     -11.863   6.657  70.577  1.00  0.00    -0.430 A  
ENDBRANCH  12  20
TORSDOF 1
ENDMDL
MODEL      137
REMARK 921   NORMALIZED FREE ENERGY PREDICTED BY IDOCK:   -3.75 KCAL/MOL
REMARK 922        TOTAL FREE ENERGY PREDICTED BY IDOCK:   -4.15 KCAL/MOL
REMARK 923 INTER-LIGAND FREE ENERGY PREDICTED BY IDOCK:   -3.91 KCAL/MOL
REMARK 924 INTRA-LIGAND FREE ENERGY PREDICTED BY IDOCK:   -0.25 KCAL/MOL
REMARK 927      BINDING AFFINITY PREDICTED BY RF-SCORE:    0.00 PKD
ROOT
HETATM    1  N   UNL     1      -7.006  18.710  67.974  1.00  0.00    -0.231 NA 
HETATM    2  H1  UNL     1      -5.995  18.773  67.850  1.00  0.00     0.000 HD 
HETATM    3  C   UNL     1      -7.587  17.466  67.862  1.00  0.00    -0.194 A  
HETATM    4  H2  UNL     1      -7.567  19.538  68.173  1.00  0.00     0.000 HD 
HETATM    5  N   UNL     1      -8.903  17.383  68.023  1.00  0.00    -0.245 NA 
HETATM    6  C   UNL     1      -9.438  16.155  67.947  1.00  0.00    -0.214 A  
HETATM    7  N   UNL     1     -10.837  16.103  68.066  1.00  0.00    -0.324 NA 
HETATM    8  C   UNL     1      -8.706  14.998  67.696  1.00  0.00    -0.176 A  
HETATM    9  H2  UNL     1     -11.271  16.718  67.377  1.00  0.00     0.000 HD 
HETATM   10  H1  UNL     1     -11.243  15.169  68.008  1.00  0.00     0.000 HD 
HETATM   11  N   UNL     1      -9.250  13.745  67.663  1.00  0.00    -0.199 NA 
HETATM   12  C   UNL     1      -8.407  12.707  67.421  1.00  0.00    -0.184 A  
HETATM   13  N   UNL     1      -6.794  16.441  67.575  1.00  0.00    -0.137 NA 
HETATM   14  C   UNL     1      -7.050  12.962  67.168  1.00  0.00     0.040 A  
HETATM   15  H2  UNL     1      -6.470  11.470  66.048  1.00  0.00     0.000 HD 
HETATM   16  N   UNL     1      -6.109  11.981  66.853  1.00  0.00    -0.323 NA 
HETATM   17  N   UNL     1      -6.533  14.210  67.222  1.00  0.00    -0.216 NA 
HETATM   18  H1  UNL     1      -5.123  12.167  66.670  1.00  0.00     0.000 HD 
HETATM   19  C   UNL     1      -7.344  15.233  67.501  1.00  0.00    -0.196 A  
ENDROOT
BRANCH  12  20
HETATM   20  C   UNL     1      -9.044  11.367  67.469  1.00  0.00    -0.157 A  
HETATM   21  C   UNL     1      -9.046  10.617  68.664  1.00  0.00    -0.170 A  
HETATM   22  C   UNL     1      -9.597   9.333  68.727  1.00  0.00    -0.157 A  
HETATM   23  C   UNL     1     -10.167   8.763  67.593  1.00  0.00    -0.298 A  
HETATM   24  C   UNL     1     -10.182   9.476  66.400  1.00  0.00    -0.302 A  
HETATM   25  C   UNL     1      -9.620  10.757  66.339  1.00  0.00    -0.226 A  
ENDBRANCH  12  20
TORSDOF 1
ENDMDL
MODEL      138
REMARK 921   NORMALIZED FREE ENERGY PREDICTED BY IDOCK:   -3.75 KCAL/MOL
REMARK 922        TOTAL FREE ENERGY PREDICTED BY IDOCK:   -4.14 KCAL/MOL
REMARK 923 INTER-LIGAND FREE ENERGY PREDICTED BY IDOCK:   -3.94 KCAL/MOL
REMARK 924 INTRA-LIGAND FREE ENERGY PREDICTED BY IDOCK:   -0.21 KCAL/MOL
REMARK 927      BINDING AFFINITY PREDICTED BY RF-SCORE:    0.00 PKD
ROOT
HETATM    1  N   UNL     1      -6.964   6.786  67.729  1.00  0.00    -0.080 NA 
HETATM    2  H1  UNL     1      -6.400   6.372  66.987  1.00  0.00     0.000 HD 
HETATM    3  C   UNL     1      -7.659   7.938  67.436  1.00  0.00    -0.097 A  
HETATM    4  H2  UNL     1      -7.013   6.361  68.655  1.00  0.00     0.000 HD 
HETATM    5  N   UNL     1      -8.395   8.477  68.402  1.00  0.00    -0.123 NA 
HETATM    6  C   UNL     1      -9.091   9.577  68.079  1.00  0.00    -0.123 A  
HETATM    7  N   UNL     1      -9.816  10.158  69.134  1.00  0.00    -0.202 NA 
HETATM    8  C   UNL     1      -9.067  10.177  66.823  1.00  0.00    -0.139 A  
HETATM    9  H2  UNL     1      -9.196  10.354  69.920  1.00  0.00     0.000 HD 
HETATM   10  H1  UNL     1     -10.345  10.995  68.888  1.00  0.00     0.000 HD 
HETATM   11  N   UNL     1      -9.812  11.272  66.487  1.00  0.00    -0.203 NA 
HETATM   12  C   UNL     1      -9.698  11.737  65.216  1.00  0.00    -0.211 A  
HETATM   13  N   UNL     1      -7.525   8.444  66.216  1.00  0.00    -0.088 NA 
HETATM   14  C   UNL     1      -8.798  11.120  64.332  1.00  0.00     0.102 A  
HETATM   15  H2  UNL     1      -8.294  12.532  63.078  1.00  0.00     0.000 HD 
HETATM   16  N   UNL     1      -8.558  11.547  63.025  1.00  0.00    -0.495 NA 
HETATM   17  N   UNL     1      -8.084  10.028  64.683  1.00  0.00    -0.150 NA 
HETATM   18  H1  UNL     1      -7.905  11.099  62.384  1.00  0.00     0.000 HD 
HETATM   19  C   UNL     1      -8.220   9.536  65.917  1.00  0.00    -0.115 A  
ENDROOT
BRANCH  12  20
HETATM   20  C   UNL     1     -10.584  12.882  64.892  1.00  0.00    -0.342 A  
HETATM   21  C   UNL     1     -11.704  12.706  64.052  1.00  0.00    -0.496 A  
HETATM   22  C   UNL     1     -12.530  13.776  63.691  1.00  0.00    -0.150 A  
HETATM   23  C   UNL     1     -12.260  15.056  64.167  1.00  0.00    -0.234 A  
HETATM   24  C   UNL     1     -11.165  15.262  64.998  1.00  0.00    -0.409 A  
HETATM   25  C   UNL     1     -10.335  14.190  65.347  1.00  0.00    -0.384 A  
ENDBRANCH  12  20
TORSDOF 1
ENDMDL
MODEL      139
REMARK 921   NORMALIZED FREE ENERGY PREDICTED BY IDOCK:   -3.66 KCAL/MOL
REMARK 922        TOTAL FREE ENERGY PREDICTED BY IDOCK:   -4.05 KCAL/MOL
REMARK 923 INTER-LIGAND FREE ENERGY PREDICTED BY IDOCK:   -3.83 KCAL/MOL
REMARK 924 INTRA-LIGAND FREE ENERGY PREDICTED BY IDOCK:   -0.23 KCAL/MOL
REMARK 927      BINDING AFFINITY PREDICTED BY RF-SCORE:    0.00 PKD
ROOT
HETATM    1  N   UNL     1     -10.630  19.178  67.728  1.00  0.00    -0.420 NA 
HETATM    2  H1  UNL     1     -11.560  19.205  67.310  1.00  0.00     0.000 HD 
HETATM    3  C   UNL     1     -10.021  17.950  67.856  1.00  0.00    -0.329 A  
HETATM    4  H2  UNL     1     -10.166  20.032  68.039  1.00  0.00     0.000 HD 
HETATM    5  N   UNL     1      -8.809  17.915  68.399  1.00  0.00    -0.285 NA 
HETATM    6  C   UNL     1      -8.224  16.710  68.477  1.00  0.00    -0.231 A  
HETATM    7  N   UNL     1      -6.967  16.695  69.106  1.00  0.00    -0.220 NA 
HETATM    8  C   UNL     1      -8.815  15.525  68.048  1.00  0.00    -0.165 A  
HETATM    9  H2  UNL     1      -7.034  17.113  70.034  1.00  0.00     0.000 HD 
HETATM   10  H1  UNL     1      -6.523  15.778  69.165  1.00  0.00     0.000 HD 
HETATM   11  N   UNL     1      -8.197  14.307  68.090  1.00  0.00    -0.136 NA 
HETATM   12  C   UNL     1      -8.893  13.239  67.620  1.00  0.00    -0.200 A  
HETATM   13  N   UNL     1     -10.700  16.883  67.452  1.00  0.00    -0.287 NA 
HETATM   14  C   UNL     1     -10.210  13.417  67.167  1.00  0.00    -0.247 A  
HETATM   15  H2  UNL     1     -11.068  11.685  67.459  1.00  0.00     0.000 HD 
HETATM   16  N   UNL     1     -11.035  12.385  66.718  1.00  0.00    -0.252 NA 
HETATM   17  N   UNL     1     -10.794  14.635  67.121  1.00  0.00    -0.296 NA 
HETATM   18  H1  UNL     1     -11.992  12.514  66.389  1.00  0.00     0.000 HD 
HETATM   19  C   UNL     1     -10.104  15.698  67.541  1.00  0.00    -0.253 A  
ENDROOT
BRANCH  12  20
HETATM   20  C   UNL     1      -8.143  11.958  67.625  1.00  0.00    -0.148 A  
HETATM   21  C   UNL     1      -7.878  11.288  68.837  1.00  0.00    -0.114 A  
HETATM   22  C   UNL     1      -7.133  10.104  68.878  1.00  0.00    -0.069 A  
HETATM   23  C   UNL     1      -6.636   9.554  67.700  1.00  0.00    -0.063 A  
HETATM   24  C   UNL     1      -6.881  10.189  66.489  1.00  0.00    -0.090 A  
HETATM   25  C   UNL     1      -7.618  11.379  66.454  1.00  0.00    -0.024 A  
ENDBRANCH  12  20
TORSDOF 1
ENDMDL
MODEL      140
REMARK 921   NORMALIZED FREE ENERGY PREDICTED BY IDOCK:   -3.66 KCAL/MOL
REMARK 922        TOTAL FREE ENERGY PREDICTED BY IDOCK:   -4.05 KCAL/MOL
REMARK 923 INTER-LIGAND FREE ENERGY PREDICTED BY IDOCK:   -3.81 KCAL/MOL
REMARK 924 INTRA-LIGAND FREE ENERGY PREDICTED BY IDOCK:   -0.24 KCAL/MOL
REMARK 927      BINDING AFFINITY PREDICTED BY RF-SCORE:    0.00 PKD
ROOT
HETATM    1  N   UNL     1     -11.148  16.196  68.263  1.00  0.00    -0.345 NA 
HETATM    2  H1  UNL     1     -12.140  16.114  68.487  1.00  0.00     0.000 HD 
HETATM    3  C   UNL     1     -10.444  15.033  68.041  1.00  0.00    -0.242 A  
HETATM    4  H2  UNL     1     -10.693  17.107  68.205  1.00  0.00     0.000 HD 
HETATM    5  N   UNL     1      -9.152  15.140  67.749  1.00  0.00    -0.178 NA 
HETATM    6  C   UNL     1      -8.500  13.994  67.501  1.00  0.00    -0.195 A  
HETATM    7  N   UNL     1      -7.124  14.131  67.249  1.00  0.00    -0.363 NA 
HETATM    8  C   UNL     1      -9.088  12.733  67.550  1.00  0.00    -0.193 A  
HETATM    9  H2  UNL     1      -6.675  14.631  68.017  1.00  0.00     0.000 HD 
HETATM   10  H1  UNL     1      -6.628  13.260  67.061  1.00  0.00     0.000 HD 
HETATM   11  N   UNL     1      -8.429  11.573  67.253  1.00  0.00    -0.146 NA 
HETATM   12  C   UNL     1      -9.138  10.417  67.330  1.00  0.00    -0.135 A  
HETATM   13  N   UNL     1     -11.101  13.885  68.160  1.00  0.00    -0.247 NA 
HETATM   14  C   UNL     1     -10.477  10.453  67.753  1.00  0.00    -0.226 A  
HETATM   15  H2  UNL     1     -10.785   8.700  68.558  1.00  0.00     0.000 HD 
HETATM   16  N   UNL     1     -11.280   9.325  67.922  1.00  0.00    -0.444 NA 
HETATM   17  N   UNL     1     -11.110  11.615  68.026  1.00  0.00    -0.224 NA 
HETATM   18  H1  UNL     1     -12.252   9.352  68.229  1.00  0.00     0.000 HD 
HETATM   19  C   UNL     1     -10.435  12.762  67.913  1.00  0.00    -0.220 A  
ENDROOT
BRANCH  12  20
HETATM   20  C   UNL     1      -8.388   9.201  66.927  1.00  0.00    -0.119 A  
HETATM   21  C   UNL     1      -8.535   8.666  65.630  1.00  0.00    -0.171 A  
HETATM   22  C   UNL     1      -7.878   7.495  65.237  1.00  0.00    -0.120 A  
HETATM   23  C   UNL     1      -7.048   6.828  66.133  1.00  0.00    -0.066 A  
HETATM   24  C   UNL     1      -6.881   7.330  67.418  1.00  0.00    -0.077 A  
HETATM   25  C   UNL     1      -7.550   8.497  67.810  1.00  0.00    -0.098 A  
ENDBRANCH  12  20
TORSDOF 1
ENDMDL
MODEL      141
REMARK 921   NORMALIZED FREE ENERGY PREDICTED BY IDOCK:   -3.65 KCAL/MOL
REMARK 922        TOTAL FREE ENERGY PREDICTED BY IDOCK:   -4.04 KCAL/MOL
REMARK 923 INTER-LIGAND FREE ENERGY PREDICTED BY IDOCK:   -4.01 KCAL/MOL
REMARK 924 INTRA-LIGAND FREE ENERGY PREDICTED BY IDOCK:   -0.03 KCAL/MOL
REMARK 927      BINDING AFFINITY PREDICTED BY RF-SCORE:    0.00 PKD
ROOT
HETATM    1  N   UNL     1     -11.766  13.849  68.231  1.00  0.00    -0.341 NA 
HETATM    2  H1  UNL     1     -12.194  13.864  69.157  1.00  0.00     0.000 HD 
HETATM    3  C   UNL     1     -11.303  12.641  67.760  1.00  0.00    -0.297 A  
HETATM    4  H2  UNL     1     -11.684  14.700  67.674  1.00  0.00     0.000 HD 
HETATM    5  N   UNL     1     -10.746  12.621  66.554  1.00  0.00    -0.248 NA 
HETATM    6  C   UNL     1     -10.339  11.425  66.104  1.00  0.00    -0.248 A  
HETATM    7  N   UNL     1      -9.704  11.442  64.850  1.00  0.00    -0.246 NA 
HETATM    8  C   UNL     1     -10.449  10.239  66.825  1.00  0.00    -0.214 A  
HETATM    9  H2  UNL     1      -8.922  12.098  64.861  1.00  0.00     0.000 HD 
HETATM   10  H1  UNL     1      -9.394  10.532  64.509  1.00  0.00     0.000 HD 
HETATM   11  N   UNL     1     -10.072   9.018  66.344  1.00  0.00    -0.299 NA 
HETATM   12  C   UNL     1     -10.255   7.944  67.157  1.00  0.00    -0.290 A  
HETATM   13  N   UNL     1     -11.422  11.585  68.556  1.00  0.00    -0.263 NA 
HETATM   14  C   UNL     1     -10.764   8.137  68.452  1.00  0.00    -0.012 A  
HETATM   15  H2  UNL     1     -10.039   6.649  69.491  1.00  0.00     0.000 HD 
HETATM   16  N   UNL     1     -10.940   7.118  69.389  1.00  0.00    -0.385 NA 
HETATM   17  N   UNL     1     -11.145   9.354  68.898  1.00  0.00    -0.046 NA 
HETATM   18  H1  UNL     1     -11.310   7.257  70.329  1.00  0.00     0.000 HD 
HETATM   19  C   UNL     1     -11.010  10.409  68.092  1.00  0.00    -0.281 A  
ENDROOT
BRANCH  12  20
HETATM   20  C   UNL     1      -9.894   6.638  66.552  1.00  0.00    -0.165 A  
HETATM   21  C   UNL     1     -10.809   5.565  66.566  1.00  0.00    -0.237 A  
HETATM   22  C   UNL     1     -10.479   4.309  66.045  1.00  0.00    -0.009 A  
HETATM   23  C   UNL     1      -9.221   4.093  65.490  1.00  0.00    -0.149 A  
HETATM   24  C   UNL     1      -8.297   5.131  65.460  1.00  0.00    -0.126 A  
HETATM   25  C   UNL     1      -8.628   6.384  65.991  1.00  0.00    -0.149 A  
ENDBRANCH  12  20
TORSDOF 1
ENDMDL
MODEL      142
REMARK 921   NORMALIZED FREE ENERGY PREDICTED BY IDOCK:   -3.56 KCAL/MOL
REMARK 922        TOTAL FREE ENERGY PREDICTED BY IDOCK:   -3.95 KCAL/MOL
REMARK 923 INTER-LIGAND FREE ENERGY PREDICTED BY IDOCK:   -3.79 KCAL/MOL
REMARK 924 INTRA-LIGAND FREE ENERGY PREDICTED BY IDOCK:   -0.16 KCAL/MOL
REMARK 927      BINDING AFFINITY PREDICTED BY RF-SCORE:    0.00 PKD
ROOT
HETATM    1  N   UNL     1     -11.834  11.990  68.006  1.00  0.00    -0.498 NA 
HETATM    2  H1  UNL     1     -12.297  12.167  68.897  1.00  0.00     0.000 HD 
HETATM    3  C   UNL     1     -11.202  10.777  67.842  1.00  0.00    -0.318 A  
HETATM    4  H2  UNL     1     -11.838  12.688  67.261  1.00  0.00     0.000 HD 
HETATM    5  N   UNL     1     -10.599  10.547  66.681  1.00  0.00    -0.226 NA 
HETATM    6  C   UNL     1     -10.025   9.344  66.534  1.00  0.00    -0.269 A  
HETATM    7  N   UNL     1      -9.348   9.148  65.318  1.00  0.00    -0.418 NA 
HETATM    8  C   UNL     1     -10.013   8.358  67.517  1.00  0.00    -0.200 A  
HETATM    9  H2  UNL     1      -8.657   9.886  65.179  1.00  0.00     0.000 HD 
HETATM   10  H1  UNL     1      -8.911   8.233  65.207  1.00  0.00     0.000 HD 
HETATM   11  N   UNL     1      -9.465   7.119  67.346  1.00  0.00    -0.128 NA 
HETATM   12  C   UNL     1      -9.543   6.254  68.391  1.00  0.00    -0.121 A  
HETATM   13  N   UNL     1     -11.219   9.933  68.866  1.00  0.00    -0.136 NA 
HETATM   14  C   UNL     1     -10.124   6.677  69.597  1.00  0.00    -0.181 A  
HETATM   15  H2  UNL     1      -9.259   5.587  70.969  1.00  0.00     0.000 HD 
HETATM   16  N   UNL     1     -10.206   5.894  70.750  1.00  0.00    -0.201 NA 
HETATM   17  N   UNL     1     -10.674   7.904  69.736  1.00  0.00    -0.246 NA 
HETATM   18  H1  UNL     1     -10.629   6.202  71.625  1.00  0.00     0.000 HD 
HETATM   19  C   UNL     1     -10.641   8.747  68.702  1.00  0.00    -0.139 A  
ENDROOT
BRANCH  12  20
HETATM   20  C   UNL     1      -8.995   4.902  68.120  1.00  0.00    -0.123 A  
HETATM   21  C   UNL     1      -7.828   4.457  68.775  1.00  0.00    -0.070 A  
HETATM   22  C   UNL     1      -7.262   3.206  68.505  1.00  0.00    -0.049 A  
HETATM   23  C   UNL     1      -7.854   2.361  67.571  1.00  0.00    -0.064 A  
HETATM   24  C   UNL     1      -9.006   2.769  66.909  1.00  0.00    -0.171 A  
HETATM   25  C   UNL     1      -9.563   4.026  67.175  1.00  0.00    -0.231 A  
ENDBRANCH  12  20
TORSDOF 1
ENDMDL
MODEL      143
REMARK 921   NORMALIZED FREE ENERGY PREDICTED BY IDOCK:   -3.55 KCAL/MOL
REMARK 922        TOTAL FREE ENERGY PREDICTED BY IDOCK:   -3.94 KCAL/MOL
REMARK 923 INTER-LIGAND FREE ENERGY PREDICTED BY IDOCK:   -3.69 KCAL/MOL
REMARK 924 INTRA-LIGAND FREE ENERGY PREDICTED BY IDOCK:   -0.24 KCAL/MOL
REMARK 927      BINDING AFFINITY PREDICTED BY RF-SCORE:    0.00 PKD
ROOT
HETATM    1  N   UNL     1      -6.705  14.728  67.108  1.00  0.00    -0.341 NA 
HETATM    2  H1  UNL     1      -5.768  14.582  66.733  1.00  0.00     0.000 HD 
HETATM    3  C   UNL     1      -7.407  13.618  67.525  1.00  0.00    -0.166 A  
HETATM    4  H2  UNL     1      -7.109  15.662  67.173  1.00  0.00     0.000 HD 
HETATM    5  N   UNL     1      -8.627  13.808  68.015  1.00  0.00    -0.167 NA 
HETATM    6  C   UNL     1      -9.273  12.715  68.448  1.00  0.00    -0.135 A  
HETATM    7  N   UNL     1     -10.582  12.937  68.909  1.00  0.00    -0.400 NA 
HETATM    8  C   UNL     1      -8.751  11.425  68.394  1.00  0.00    -0.157 A  
HETATM    9  H2  UNL     1     -11.132  13.408  68.190  1.00  0.00     0.000 HD 
HETATM   10  H1  UNL     1     -11.073  12.106  69.238  1.00  0.00     0.000 HD 
HETATM   11  N   UNL     1      -9.396  10.322  68.877  1.00  0.00    -0.168 NA 
HETATM   12  C   UNL     1      -8.755   9.129  68.770  1.00  0.00    -0.132 A  
HETATM   13  N   UNL     1      -6.824  12.434  67.384  1.00  0.00    -0.143 NA 
HETATM   14  C   UNL     1      -7.504   9.071  68.134  1.00  0.00    -0.084 A  
HETATM   15  H2  UNL     1      -7.401   7.255  67.418  1.00  0.00     0.000 HD 
HETATM   16  N   UNL     1      -6.784   7.896  67.918  1.00  0.00    -0.066 NA 
HETATM   17  N   UNL     1      -6.880  10.180  67.678  1.00  0.00    -0.075 NA 
HETATM   18  H1  UNL     1      -5.876   7.854  67.456  1.00  0.00     0.000 HD 
HETATM   19  C   UNL     1      -7.482  11.363  67.817  1.00  0.00    -0.100 A  
ENDROOT
BRANCH  12  20
HETATM   20  C   UNL     1      -9.474   7.981  69.377  1.00  0.00    -0.159 A  
HETATM   21  C   UNL     1      -9.164   7.552  70.684  1.00  0.00    -0.159 A  
HETATM   22  C   UNL     1      -9.792   6.444  71.264  1.00  0.00    -0.200 A  
HETATM   23  C   UNL     1     -10.754   5.736  70.550  1.00  0.00    -0.361 A  
HETATM   24  C   UNL     1     -11.083   6.135  69.260  1.00  0.00    -0.463 A  
HETATM   25  C   UNL     1     -10.444   7.237  68.680  1.00  0.00    -0.214 A  
ENDBRANCH  12  20
TORSDOF 1
ENDMDL
MODEL      144
REMARK 921   NORMALIZED FREE ENERGY PREDICTED BY IDOCK:   -3.55 KCAL/MOL
REMARK 922        TOTAL FREE ENERGY PREDICTED BY IDOCK:   -3.93 KCAL/MOL
REMARK 923 INTER-LIGAND FREE ENERGY PREDICTED BY IDOCK:   -3.90 KCAL/MOL
REMARK 924 INTRA-LIGAND FREE ENERGY PREDICTED BY IDOCK:   -0.04 KCAL/MOL
REMARK 927      BINDING AFFINITY PREDICTED BY RF-SCORE:    0.00 PKD
ROOT
HETATM    1  N   UNL     1      -7.357   5.757  63.119  1.00  0.00    -0.055 NA 
HETATM    2  H1  UNL     1      -6.860   6.419  62.525  1.00  0.00     0.000 HD 
HETATM    3  C   UNL     1      -7.975   6.249  64.247  1.00  0.00    -0.108 A  
HETATM    4  H2  UNL     1      -7.396   4.764  62.887  1.00  0.00     0.000 HD 
HETATM    5  N   UNL     1      -8.624   5.387  65.022  1.00  0.00    -0.150 NA 
HETATM    6  C   UNL     1      -9.248   5.899  66.094  1.00  0.00    -0.150 A  
HETATM    7  N   UNL     1      -9.879   4.958  66.925  1.00  0.00    -0.178 NA 
HETATM    8  C   UNL     1      -9.235   7.248  66.435  1.00  0.00    -0.159 A  
HETATM    9  H2  UNL     1      -9.211   4.243  67.217  1.00  0.00     0.000 HD 
HETATM   10  H1  UNL     1     -10.353   5.347  67.740  1.00  0.00     0.000 HD 
HETATM   11  N   UNL     1      -9.909   7.770  67.503  1.00  0.00    -0.160 NA 
HETATM   12  C   UNL     1      -9.816   9.111  67.704  1.00  0.00    -0.172 A  
HETATM   13  N   UNL     1      -7.857   7.548  64.495  1.00  0.00    -0.126 NA 
HETATM   14  C   UNL     1      -9.006   9.882  66.854  1.00  0.00    -0.138 A  
HETATM   15  H2  UNL     1      -8.453  11.402  67.951  1.00  0.00     0.000 HD 
HETATM   16  N   UNL     1      -8.793  11.254  67.000  1.00  0.00    -0.149 NA 
HETATM   17  N   UNL     1      -8.362   9.345  65.795  1.00  0.00    -0.118 NA 
HETATM   18  H1  UNL     1      -8.205  11.814  66.384  1.00  0.00     0.000 HD 
HETATM   19  C   UNL     1      -8.480   8.035  65.563  1.00  0.00    -0.144 A  
ENDROOT
BRANCH  12  20
HETATM   20  C   UNL     1     -10.626   9.627  68.834  1.00  0.00    -0.239 A  
HETATM   21  C   UNL     1     -11.518  10.703  68.644  1.00  0.00    -0.332 A  
HETATM   22  C   UNL     1     -12.261  11.241  69.701  1.00  0.00    -0.340 A  
HETATM   23  C   UNL     1     -12.133  10.712  70.982  1.00  0.00    -0.473 A  
HETATM   24  C   UNL     1     -11.264   9.650  71.202  1.00  0.00    -0.454 A  
HETATM   25  C   UNL     1     -10.515   9.122  70.143  1.00  0.00    -0.249 A  
ENDBRANCH  12  20
TORSDOF 1
ENDMDL
MODEL      145
REMARK 921   NORMALIZED FREE ENERGY PREDICTED BY IDOCK:   -3.51 KCAL/MOL
REMARK 922        TOTAL FREE ENERGY PREDICTED BY IDOCK:   -3.90 KCAL/MOL
REMARK 923 INTER-LIGAND FREE ENERGY PREDICTED BY IDOCK:   -3.90 KCAL/MOL
REMARK 924 INTRA-LIGAND FREE ENERGY PREDICTED BY IDOCK:    0.00 KCAL/MOL
REMARK 927      BINDING AFFINITY PREDICTED BY RF-SCORE:    0.00 PKD
ROOT
HETATM    1  N   UNL     1     -10.771   9.586  66.199  1.00  0.00     0.151 NA 
HETATM    2  H1  UNL     1     -11.554   9.731  65.562  1.00  0.00     0.000 HD 
HETATM    3  C   UNL     1     -10.033  10.689  66.566  1.00  0.00    -0.215 A  
HETATM    4  H2  UNL     1     -10.543   8.657  66.552  1.00  0.00     0.000 HD 
HETATM    5  N   UNL     1      -9.013  10.500  67.396  1.00  0.00    -0.135 NA 
HETATM    6  C   UNL     1      -8.335  11.597  67.767  1.00  0.00    -0.143 A  
HETATM    7  N   UNL     1      -7.228  11.362  68.601  1.00  0.00    -0.093 NA 
HETATM    8  C   UNL     1      -8.626  12.884  67.323  1.00  0.00    -0.205 A  
HETATM    9  H2  UNL     1      -6.596  10.689  68.165  1.00  0.00     0.000 HD 
HETATM   10  H1  UNL     1      -6.712  12.196  68.883  1.00  0.00     0.000 HD 
HETATM   11  N   UNL     1      -7.959  14.001  67.739  1.00  0.00    -0.155 NA 
HETATM   12  C   UNL     1      -8.365  15.194  67.231  1.00  0.00    -0.201 A  
HETATM   13  N   UNL     1     -10.377  11.860  66.044  1.00  0.00    -0.225 NA 
HETATM   14  C   UNL     1      -9.398  15.225  66.280  1.00  0.00    -0.310 A  
HETATM   15  H2  UNL     1      -9.046  16.831  65.224  1.00  0.00     0.000 HD 
HETATM   16  N   UNL     1      -9.857  16.383  65.652  1.00  0.00    -0.530 NA 
HETATM   17  N   UNL     1     -10.053  14.106  65.897  1.00  0.00    -0.309 NA 
HETATM   18  H1  UNL     1     -10.607  16.405  64.961  1.00  0.00     0.000 HD 
HETATM   19  C   UNL     1      -9.690  12.933  66.422  1.00  0.00    -0.263 A  
ENDROOT
BRANCH  12  20
HETATM   20  C   UNL     1      -7.652  16.376  67.775  1.00  0.00    -0.160 A  
HETATM   21  C   UNL     1      -6.253  16.349  67.954  1.00  0.00    -0.143 A  
HETATM   22  C   UNL     1      -5.559  17.431  68.507  1.00  0.00    -0.155 A  
HETATM   23  C   UNL     1      -6.249  18.576  68.894  1.00  0.00    -0.233 A  
HETATM   24  C   UNL     1      -7.628  18.635  68.728  1.00  0.00    -0.327 A  
HETATM   25  C   UNL     1      -8.319  17.546  68.184  1.00  0.00    -0.249 A  
ENDBRANCH  12  20
TORSDOF 1
ENDMDL
MODEL      146
REMARK 921   NORMALIZED FREE ENERGY PREDICTED BY IDOCK:   -3.50 KCAL/MOL
REMARK 922        TOTAL FREE ENERGY PREDICTED BY IDOCK:   -3.88 KCAL/MOL
REMARK 923 INTER-LIGAND FREE ENERGY PREDICTED BY IDOCK:   -4.08 KCAL/MOL
REMARK 924 INTRA-LIGAND FREE ENERGY PREDICTED BY IDOCK:    0.20 KCAL/MOL
REMARK 927      BINDING AFFINITY PREDICTED BY RF-SCORE:    0.00 PKD
ROOT
HETATM    1  N   UNL     1     -11.884  13.902  64.938  1.00  0.00    -0.368 NA 
HETATM    2  H1  UNL     1     -11.938  13.616  63.960  1.00  0.00     0.000 HD 
HETATM    3  C   UNL     1     -11.358  13.002  65.839  1.00  0.00    -0.313 A  
HETATM    4  H2  UNL     1     -12.208  14.821  65.238  1.00  0.00     0.000 HD 
HETATM    5  N   UNL     1     -11.287  13.374  67.112  1.00  0.00    -0.302 NA 
HETATM    6  C   UNL     1     -10.736  12.494  67.961  1.00  0.00    -0.221 A  
HETATM    7  N   UNL     1     -10.725  12.890  69.310  1.00  0.00    -0.445 NA 
HETATM    8  C   UNL     1     -10.265  11.238  67.589  1.00  0.00    -0.181 A  
HETATM    9  H2  UNL     1     -11.670  13.127  69.614  1.00  0.00     0.000 HD 
HETATM   10  H1  UNL     1     -10.306  12.221  69.955  1.00  0.00     0.000 HD 
HETATM   11  N   UNL     1      -9.665  10.364  68.451  1.00  0.00    -0.154 NA 
HETATM   12  C   UNL     1      -9.240   9.179  67.940  1.00  0.00    -0.133 A  
HETATM   13  N   UNL     1     -10.982  11.817  65.375  1.00  0.00    -0.305 NA 
HETATM   14  C   UNL     1      -9.477   8.884  66.587  1.00  0.00    -0.202 A  
HETATM   15  H2  UNL     1      -9.568   6.934  66.518  1.00  0.00     0.000 HD 
HETATM   16  N   UNL     1      -9.136   7.679  65.972  1.00  0.00    -0.316 NA 
HETATM   17  N   UNL     1     -10.058   9.773  65.752  1.00  0.00    -0.278 NA 
HETATM   18  H1  UNL     1      -9.307   7.466  64.990  1.00  0.00     0.000 HD 
HETATM   19  C   UNL     1     -10.441  10.958  66.233  1.00  0.00    -0.245 A  
ENDROOT
BRANCH  12  20
HETATM   20  C   UNL     1      -8.533   8.304  68.907  1.00  0.00    -0.128 A  
HETATM   21  C   UNL     1      -8.750   8.445  70.294  1.00  0.00    -0.140 A  
HETATM   22  C   UNL     1      -8.063   7.666  71.231  1.00  0.00    -0.095 A  
HETATM   23  C   UNL     1      -7.139   6.717  70.804  1.00  0.00    -0.069 A  
HETATM   24  C   UNL     1      -6.904   6.551  69.444  1.00  0.00    -0.065 A  
HETATM   25  C   UNL     1      -7.586   7.341  68.511  1.00  0.00    -0.118 A  
ENDBRANCH  12  20
TORSDOF 1
ENDMDL
MODEL      147
REMARK 921   NORMALIZED FREE ENERGY PREDICTED BY IDOCK:   -3.48 KCAL/MOL
REMARK 922        TOTAL FREE ENERGY PREDICTED BY IDOCK:   -3.87 KCAL/MOL
REMARK 923 INTER-LIGAND FREE ENERGY PREDICTED BY IDOCK:   -4.26 KCAL/MOL
REMARK 924 INTRA-LIGAND FREE ENERGY PREDICTED BY IDOCK:    0.39 KCAL/MOL
REMARK 927      BINDING AFFINITY PREDICTED BY RF-SCORE:    0.00 PKD
ROOT
HETATM    1  N   UNL     1      -8.753   2.518  62.921  1.00  0.00    -0.085 NA 
HETATM    2  H1  UNL     1      -9.220   3.092  62.219  1.00  0.00     0.000 HD 
HETATM    3  C   UNL     1      -8.891   2.883  64.242  1.00  0.00    -0.101 A  
HETATM    4  H2  UNL     1      -8.203   1.701  62.654  1.00  0.00     0.000 HD 
HETATM    5  N   UNL     1      -8.284   2.135  65.156  1.00  0.00    -0.080 NA 
HETATM    6  C   UNL     1      -8.466   2.491  66.436  1.00  0.00    -0.099 A  
HETATM    7  N   UNL     1      -7.768   1.716  67.378  1.00  0.00    -0.059 NA 
HETATM    8  C   UNL     1      -9.223   3.586  66.843  1.00  0.00    -0.187 A  
HETATM    9  H2  UNL     1      -6.772   1.706  67.155  1.00  0.00     0.000 HD 
HETATM   10  H1  UNL     1      -7.906   1.987  68.352  1.00  0.00     0.000 HD 
HETATM   11  N   UNL     1      -9.441   3.918  68.150  1.00  0.00    -0.172 NA 
HETATM   12  C   UNL     1     -10.216   5.006  68.396  1.00  0.00    -0.072 A  
HETATM   13  N   UNL     1      -9.601   3.973  64.507  1.00  0.00    -0.164 NA 
HETATM   14  C   UNL     1     -10.709   5.762  67.319  1.00  0.00    -0.261 A  
HETATM   15  H2  UNL     1     -10.927   7.564  68.042  1.00  0.00     0.000 HD 
HETATM   16  N   UNL     1     -11.465   6.927  67.454  1.00  0.00    -0.660 NA 
HETATM   17  N   UNL     1     -10.492   5.403  66.034  1.00  0.00    -0.123 NA 
HETATM   18  H1  UNL     1     -11.822   7.475  66.672  1.00  0.00     0.000 HD 
HETATM   19  C   UNL     1      -9.768   4.311  65.781  1.00  0.00    -0.207 A  
ENDROOT
BRANCH  12  20
HETATM   20  C   UNL     1     -10.475   5.273  69.832  1.00  0.00    -0.351 A  
HETATM   21  C   UNL     1     -11.356   6.303  70.223  1.00  0.00    -0.457 A  
HETATM   22  C   UNL     1     -11.584   6.607  71.569  1.00  0.00    -0.357 A  
HETATM   23  C   UNL     1     -10.937   5.884  72.566  1.00  0.00    -0.307 A  
HETATM   24  C   UNL     1     -10.063   4.861  72.215  1.00  0.00    -0.247 A  
HETATM   25  C   UNL     1      -9.831   4.567  70.866  1.00  0.00    -0.269 A  
ENDBRANCH  12  20
TORSDOF 1
ENDMDL
MODEL      148
REMARK 921   NORMALIZED FREE ENERGY PREDICTED BY IDOCK:   -3.48 KCAL/MOL
REMARK 922        TOTAL FREE ENERGY PREDICTED BY IDOCK:   -3.86 KCAL/MOL
REMARK 923 INTER-LIGAND FREE ENERGY PREDICTED BY IDOCK:   -3.61 KCAL/MOL
REMARK 924 INTRA-LIGAND FREE ENERGY PREDICTED BY IDOCK:   -0.25 KCAL/MOL
REMARK 927      BINDING AFFINITY PREDICTED BY RF-SCORE:    0.00 PKD
ROOT
HETATM    1  N   UNL     1     -10.455   6.773  74.539  1.00  0.00    -0.464 NA 
HETATM    2  H1  UNL     1      -9.612   6.604  75.089  1.00  0.00     0.000 HD 
HETATM    3  C   UNL     1     -10.399   6.511  73.188  1.00  0.00    -0.231 A  
HETATM    4  H2  UNL     1     -11.308   7.123  74.974  1.00  0.00     0.000 HD 
HETATM    5  N   UNL     1     -11.497   6.729  72.472  1.00  0.00    -0.257 NA 
HETATM    6  C   UNL     1     -11.427   6.430  71.166  1.00  0.00    -0.323 A  
HETATM    7  N   UNL     1     -12.582   6.723  70.422  1.00  0.00    -0.459 NA 
HETATM    8  C   UNL     1     -10.288   5.933  70.537  1.00  0.00    -0.235 A  
HETATM    9  H2  UNL     1     -12.839   7.703  70.544  1.00  0.00     0.000 HD 
HETATM   10  H1  UNL     1     -12.529   6.496  69.429  1.00  0.00     0.000 HD 
HETATM   11  N   UNL     1     -10.236   5.589  69.216  1.00  0.00    -0.221 NA 
HETATM   12  C   UNL     1      -9.059   5.101  68.745  1.00  0.00    -0.114 A  
HETATM   13  N   UNL     1      -9.245   6.082  72.692  1.00  0.00    -0.144 NA 
HETATM   14  C   UNL     1      -7.950   5.022  69.604  1.00  0.00    -0.071 A  
HETATM   15  H2  UNL     1      -6.401   5.169  68.422  1.00  0.00     0.000 HD 
HETATM   16  N   UNL     1      -6.681   4.592  69.215  1.00  0.00    -0.044 NA 
HETATM   17  N   UNL     1      -8.032   5.354  70.912  1.00  0.00    -0.101 NA 
HETATM   18  H1  UNL     1      -5.877   4.534  69.839  1.00  0.00     0.000 HD 
HETATM   19  C   UNL     1      -9.196   5.794  71.395  1.00  0.00    -0.143 A  
ENDROOT
BRANCH  12  20
HETATM   20  C   UNL     1      -9.086   4.678  67.323  1.00  0.00    -0.132 A  
HETATM   21  C   UNL     1      -9.372   3.341  66.979  1.00  0.00    -0.198 A  
HETATM   22  C   UNL     1      -9.359   2.903  65.650  1.00  0.00    -0.071 A  
HETATM   23  C   UNL     1      -9.062   3.796  64.625  1.00  0.00    -0.138 A  
HETATM   24  C   UNL     1      -8.778   5.122  64.931  1.00  0.00    -0.140 A  
HETATM   25  C   UNL     1      -8.782   5.553  66.263  1.00  0.00    -0.128 A  
ENDBRANCH  12  20
TORSDOF 1
ENDMDL
MODEL      149
REMARK 921   NORMALIZED FREE ENERGY PREDICTED BY IDOCK:   -3.47 KCAL/MOL
REMARK 922        TOTAL FREE ENERGY PREDICTED BY IDOCK:   -3.85 KCAL/MOL
REMARK 923 INTER-LIGAND FREE ENERGY PREDICTED BY IDOCK:   -3.64 KCAL/MOL
REMARK 924 INTRA-LIGAND FREE ENERGY PREDICTED BY IDOCK:   -0.21 KCAL/MOL
REMARK 927      BINDING AFFINITY PREDICTED BY RF-SCORE:    0.00 PKD
ROOT
HETATM    1  N   UNL     1     -12.009  12.640  67.932  1.00  0.00    -0.350 NA 
HETATM    2  H1  UNL     1     -12.513  12.481  68.804  1.00  0.00     0.000 HD 
HETATM    3  C   UNL     1     -11.260  11.601  67.427  1.00  0.00    -0.298 A  
HETATM    4  H2  UNL     1     -12.058  13.538  67.450  1.00  0.00     0.000 HD 
HETATM    5  N   UNL     1     -10.603  11.807  66.291  1.00  0.00    -0.243 NA 
HETATM    6  C   UNL     1      -9.912  10.766  65.802  1.00  0.00    -0.251 A  
HETATM    7  N   UNL     1      -9.183  11.029  64.630  1.00  0.00    -0.285 NA 
HETATM    8  C   UNL     1      -9.835   9.520  66.419  1.00  0.00    -0.253 A  
HETATM    9  H2  UNL     1      -8.562  11.826  64.774  1.00  0.00     0.000 HD 
HETATM   10  H1  UNL     1      -8.658  10.237  64.259  1.00  0.00     0.000 HD 
HETATM   11  N   UNL     1      -9.166   8.451  65.894  1.00  0.00    -0.184 NA 
HETATM   12  C   UNL     1      -9.192   7.292  66.602  1.00  0.00    -0.157 A  
HETATM   13  N   UNL     1     -11.226  10.472  68.126  1.00  0.00    -0.298 NA 
HETATM   14  C   UNL     1      -9.847   7.255  67.844  1.00  0.00    -0.144 A  
HETATM   15  H2  UNL     1      -8.922   5.854  68.845  1.00  0.00     0.000 HD 
HETATM   16  N   UNL     1      -9.888   6.138  68.680  1.00  0.00    -0.134 NA 
HETATM   17  N   UNL     1     -10.516   8.322  68.334  1.00  0.00    -0.193 NA 
HETATM   18  H1  UNL     1     -10.364   6.111  69.581  1.00  0.00     0.000 HD 
HETATM   19  C   UNL     1     -10.533   9.454  67.626  1.00  0.00    -0.268 A  
ENDROOT
BRANCH  12  20
HETATM   20  C   UNL     1      -8.509   6.149  65.947  1.00  0.00    -0.145 A  
HETATM   21  C   UNL     1      -7.107   6.144  65.794  1.00  0.00    -0.073 A  
HETATM   22  C   UNL     1      -6.441   5.102  65.139  1.00  0.00    -0.036 A  
HETATM   23  C   UNL     1      -7.162   4.031  64.621  1.00  0.00    -0.066 A  
HETATM   24  C   UNL     1      -8.546   4.005  64.757  1.00  0.00    -0.116 A  
HETATM   25  C   UNL     1      -9.209   5.055  65.404  1.00  0.00    -0.144 A  
ENDBRANCH  12  20
TORSDOF 1
ENDMDL
MODEL      150
REMARK 921   NORMALIZED FREE ENERGY PREDICTED BY IDOCK:   -3.37 KCAL/MOL
REMARK 922        TOTAL FREE ENERGY PREDICTED BY IDOCK:   -3.75 KCAL/MOL
REMARK 923 INTER-LIGAND FREE ENERGY PREDICTED BY IDOCK:   -4.00 KCAL/MOL
REMARK 924 INTRA-LIGAND FREE ENERGY PREDICTED BY IDOCK:    0.26 KCAL/MOL
REMARK 927      BINDING AFFINITY PREDICTED BY RF-SCORE:    0.00 PKD
ROOT
HETATM    1  N   UNL     1      -6.429   5.129  70.417  1.00  0.00    -0.033 NA 
HETATM    2  H1  UNL     1      -6.831   4.965  71.340  1.00  0.00     0.000 HD 
HETATM    3  C   UNL     1      -7.051   6.049  69.602  1.00  0.00    -0.069 A  
HETATM    4  H2  UNL     1      -5.594   4.631  70.109  1.00  0.00     0.000 HD 
HETATM    5  N   UNL     1      -6.527   6.263  68.401  1.00  0.00    -0.047 NA 
HETATM    6  C   UNL     1      -7.131   7.190  67.643  1.00  0.00    -0.089 A  
HETATM    7  N   UNL     1      -6.589   7.357  66.356  1.00  0.00    -0.052 NA 
HETATM    8  C   UNL     1      -8.259   7.906  68.033  1.00  0.00    -0.127 A  
HETATM    9  H2  UNL     1      -6.568   6.463  65.866  1.00  0.00     0.000 HD 
HETATM   10  H1  UNL     1      -7.049   8.062  65.780  1.00  0.00     0.000 HD 
HETATM   11  N   UNL     1      -8.844   8.880  67.274  1.00  0.00    -0.127 NA 
HETATM   12  C   UNL     1      -9.932   9.506  67.794  1.00  0.00    -0.174 A  
HETATM   13  N   UNL     1      -8.147   6.637  70.065  1.00  0.00    -0.119 NA 
HETATM   14  C   UNL     1     -10.434   9.098  69.041  1.00  0.00    -0.221 A  
HETATM   15  H2  UNL     1     -12.337   9.535  68.971  1.00  0.00     0.000 HD 
HETATM   16  N   UNL     1     -11.575   9.630  69.643  1.00  0.00    -0.450 NA 
HETATM   17  N   UNL     1      -9.828   8.143  69.780  1.00  0.00    -0.184 NA 
HETATM   18  H1  UNL     1     -11.939   9.334  70.548  1.00  0.00     0.000 HD 
HETATM   19  C   UNL     1      -8.732   7.551  69.298  1.00  0.00    -0.136 A  
ENDROOT
BRANCH  12  20
HETATM   20  C   UNL     1     -10.478  10.602  66.956  1.00  0.00    -0.295 A  
HETATM   21  C   UNL     1     -11.202  11.660  67.542  1.00  0.00    -0.355 A  
HETATM   22  C   UNL     1     -11.768  12.682  66.773  1.00  0.00    -0.460 A  
HETATM   23  C   UNL     1     -11.620  12.675  65.389  1.00  0.00    -0.400 A  
HETATM   24  C   UNL     1     -10.909  11.647  64.780  1.00  0.00    -0.367 A  
HETATM   25  C   UNL     1     -10.354  10.621  65.554  1.00  0.00    -0.297 A  
ENDBRANCH  12  20
TORSDOF 1
ENDMDL
MODEL      151
REMARK 921   NORMALIZED FREE ENERGY PREDICTED BY IDOCK:   -3.36 KCAL/MOL
REMARK 922        TOTAL FREE ENERGY PREDICTED BY IDOCK:   -3.74 KCAL/MOL
REMARK 923 INTER-LIGAND FREE ENERGY PREDICTED BY IDOCK:   -3.50 KCAL/MOL
REMARK 924 INTRA-LIGAND FREE ENERGY PREDICTED BY IDOCK:   -0.24 KCAL/MOL
REMARK 927      BINDING AFFINITY PREDICTED BY RF-SCORE:    0.00 PKD
ROOT
HETATM    1  N   UNL     1      -9.133  10.441  69.810  1.00  0.00    -0.404 NA 
HETATM    2  H1  UNL     1      -8.390  11.059  69.484  1.00  0.00     0.000 HD 
HETATM    3  C   UNL     1      -9.393   9.309  69.070  1.00  0.00    -0.151 A  
HETATM    4  H2  UNL     1      -9.663  10.652  70.656  1.00  0.00     0.000 HD 
HETATM    5  N   UNL     1     -10.360   8.503  69.495  1.00  0.00    -0.215 NA 
HETATM    6  C   UNL     1     -10.567   7.389  68.776  1.00  0.00    -0.168 A  
HETATM    7  N   UNL     1     -11.631   6.583  69.216  1.00  0.00    -0.643 NA 
HETATM    8  C   UNL     1      -9.854   7.055  67.629  1.00  0.00    -0.147 A  
HETATM    9  H2  UNL     1     -12.490   7.132  69.268  1.00  0.00     0.000 HD 
HETATM   10  H1  UNL     1     -11.789   5.736  68.669  1.00  0.00     0.000 HD 
HETATM   11  N   UNL     1     -10.040   5.898  66.926  1.00  0.00    -0.169 NA 
HETATM   12  C   UNL     1      -9.257   5.700  65.833  1.00  0.00    -0.132 A  
HETATM   13  N   UNL     1      -8.678   9.117  67.968  1.00  0.00    -0.129 NA 
HETATM   14  C   UNL     1      -8.344   6.695  65.448  1.00  0.00    -0.129 A  
HETATM   15  H2  UNL     1      -8.148   6.460  63.518  1.00  0.00     0.000 HD 
HETATM   16  N   UNL     1      -7.532   6.623  64.315  1.00  0.00    -0.088 NA 
HETATM   17  N   UNL     1      -8.167   7.823  66.169  1.00  0.00    -0.116 NA 
HETATM   18  H1  UNL     1      -6.869   7.345  64.035  1.00  0.00     0.000 HD 
HETATM   19  C   UNL     1      -8.901   8.009  67.269  1.00  0.00    -0.131 A  
ENDROOT
BRANCH  12  20
HETATM   20  C   UNL     1      -9.456   4.395  65.155  1.00  0.00    -0.171 A  
HETATM   21  C   UNL     1      -8.564   3.326  65.382  1.00  0.00    -0.112 A  
HETATM   22  C   UNL     1      -8.699   2.100  64.721  1.00  0.00    -0.109 A  
HETATM   23  C   UNL     1      -9.738   1.908  63.815  1.00  0.00    -0.129 A  
HETATM   24  C   UNL     1     -10.636   2.941  63.571  1.00  0.00    -0.224 A  
HETATM   25  C   UNL     1     -10.490   4.170  64.227  1.00  0.00    -0.135 A  
ENDBRANCH  12  20
TORSDOF 1
ENDMDL
MODEL      152
REMARK 921   NORMALIZED FREE ENERGY PREDICTED BY IDOCK:   -3.31 KCAL/MOL
REMARK 922        TOTAL FREE ENERGY PREDICTED BY IDOCK:   -3.69 KCAL/MOL
REMARK 923 INTER-LIGAND FREE ENERGY PREDICTED BY IDOCK:   -3.52 KCAL/MOL
REMARK 924 INTRA-LIGAND FREE ENERGY PREDICTED BY IDOCK:   -0.17 KCAL/MOL
REMARK 927      BINDING AFFINITY PREDICTED BY RF-SCORE:    0.00 PKD
ROOT
HETATM    1  N   UNL     1     -13.807  10.473  72.078  1.00  0.00    -0.169 NA 
HETATM    2  H1  UNL     1     -13.693  10.199  73.054  1.00  0.00     0.000 HD 
HETATM    3  C   UNL     1     -12.728  10.309  71.238  1.00  0.00    -0.421 A  
HETATM    4  H2  UNL     1     -14.689  10.855  71.736  1.00  0.00     0.000 HD 
HETATM    5  N   UNL     1     -12.876  10.666  69.967  1.00  0.00    -0.137 NA 
HETATM    6  C   UNL     1     -11.822  10.460  69.163  1.00  0.00    -0.063 A  
HETATM    7  N   UNL     1     -11.987  10.898  67.837  1.00  0.00    -0.735 NA 
HETATM    8  C   UNL     1     -10.609   9.925  69.585  1.00  0.00    -0.250 A  
HETATM    9  H2  UNL     1     -12.253  11.883  67.823  1.00  0.00     0.000 HD 
HETATM   10  H1  UNL     1     -11.186  10.741  67.226  1.00  0.00     0.000 HD 
HETATM   11  N   UNL     1      -9.555   9.677  68.752  1.00  0.00    -0.149 NA 
HETATM   12  C   UNL     1      -8.438   9.136  69.305  1.00  0.00    -0.132 A  
HETATM   13  N   UNL     1     -11.607   9.830  71.764  1.00  0.00    -0.273 NA 
HETATM   14  C   UNL     1      -8.393   8.906  70.690  1.00  0.00    -0.166 A  
HETATM   15  H2  UNL     1      -6.497   9.021  71.146  1.00  0.00     0.000 HD 
HETATM   16  N   UNL     1      -7.282   8.409  71.371  1.00  0.00    -0.076 NA 
HETATM   17  N   UNL     1      -9.456   9.145  71.490  1.00  0.00    -0.294 NA 
HETATM   18  H1  UNL     1      -7.250   8.242  72.376  1.00  0.00     0.000 HD 
HETATM   19  C   UNL     1     -10.574   9.637  70.950  1.00  0.00    -0.316 A  
ENDROOT
BRANCH  12  20
HETATM   20  C   UNL     1      -7.355   8.824  68.339  1.00  0.00    -0.086 A  
HETATM   21  C   UNL     1      -6.153   9.562  68.347  1.00  0.00    -0.044 A  
HETATM   22  C   UNL     1      -5.135   9.321  67.418  1.00  0.00    -0.036 A  
HETATM   23  C   UNL     1      -5.290   8.328  66.455  1.00  0.00    -0.028 A  
HETATM   24  C   UNL     1      -6.462   7.582  66.422  1.00  0.00    -0.049 A  
HETATM   25  C   UNL     1      -7.483   7.834  67.347  1.00  0.00    -0.093 A  
ENDBRANCH  12  20
TORSDOF 1
ENDMDL
MODEL      153
REMARK 921   NORMALIZED FREE ENERGY PREDICTED BY IDOCK:   -3.29 KCAL/MOL
REMARK 922        TOTAL FREE ENERGY PREDICTED BY IDOCK:   -3.66 KCAL/MOL
REMARK 923 INTER-LIGAND FREE ENERGY PREDICTED BY IDOCK:   -3.43 KCAL/MOL
REMARK 924 INTRA-LIGAND FREE ENERGY PREDICTED BY IDOCK:   -0.24 KCAL/MOL
REMARK 927      BINDING AFFINITY PREDICTED BY RF-SCORE:    0.00 PKD
ROOT
HETATM    1  N   UNL     1      -5.478  16.506  68.251  1.00  0.00    -0.105 NA 
HETATM    2  H1  UNL     1      -4.538  16.473  67.856  1.00  0.00     0.000 HD 
HETATM    3  C   UNL     1      -6.235  15.357  68.198  1.00  0.00    -0.127 A  
HETATM    4  H2  UNL     1      -5.845  17.360  68.671  1.00  0.00     0.000 HD 
HETATM    5  N   UNL     1      -7.459  15.399  68.712  1.00  0.00    -0.126 NA 
HETATM    6  C   UNL     1      -8.159  14.255  68.681  1.00  0.00    -0.140 A  
HETATM    7  N   UNL     1      -9.470  14.342  69.182  1.00  0.00    -0.404 NA 
HETATM    8  C   UNL     1      -7.688  13.064  68.135  1.00  0.00    -0.143 A  
HETATM    9  H2  UNL     1      -9.982  15.081  68.698  1.00  0.00     0.000 HD 
HETATM   10  H1  UNL     1     -10.002  13.473  69.157  1.00  0.00     0.000 HD 
HETATM   11  N   UNL     1      -8.390  11.892  68.146  1.00  0.00    -0.154 NA 
HETATM   12  C   UNL     1      -7.795  10.805  67.589  1.00  0.00    -0.109 A  
HETATM   13  N   UNL     1      -5.697  14.293  67.612  1.00  0.00    -0.341 NA 
HETATM   14  C   UNL     1      -6.531  10.939  66.990  1.00  0.00    -0.085 A  
HETATM   15  H2  UNL     1      -6.483   9.541  65.626  1.00  0.00     0.000 HD 
HETATM   16  N   UNL     1      -5.853   9.907  66.340  1.00  0.00    -0.057 NA 
HETATM   17  N   UNL     1      -5.851  12.107  67.007  1.00  0.00    -0.244 NA 
HETATM   18  H1  UNL     1      -4.936  10.005  65.906  1.00  0.00     0.000 HD 
HETATM   19  C   UNL     1      -6.408  13.171  67.589  1.00  0.00    -0.160 A  
ENDROOT
BRANCH  12  20
HETATM   20  C   UNL     1      -8.574   9.547  67.695  1.00  0.00    -0.122 A  
HETATM   21  C   UNL     1      -9.683   9.318  66.854  1.00  0.00    -0.248 A  
HETATM   22  C   UNL     1     -10.465   8.162  66.963  1.00  0.00    -0.396 A  
HETATM   23  C   UNL     1     -10.154   7.199  67.918  1.00  0.00    -0.211 A  
HETATM   24  C   UNL     1      -9.067   7.394  68.762  1.00  0.00    -0.131 A  
HETATM   25  C   UNL     1      -8.294   8.557  68.656  1.00  0.00    -0.123 A  
ENDBRANCH  12  20
TORSDOF 1
ENDMDL
MODEL      154
REMARK 921   NORMALIZED FREE ENERGY PREDICTED BY IDOCK:   -3.29 KCAL/MOL
REMARK 922        TOTAL FREE ENERGY PREDICTED BY IDOCK:   -3.66 KCAL/MOL
REMARK 923 INTER-LIGAND FREE ENERGY PREDICTED BY IDOCK:   -3.42 KCAL/MOL
REMARK 924 INTRA-LIGAND FREE ENERGY PREDICTED BY IDOCK:   -0.24 KCAL/MOL
REMARK 927      BINDING AFFINITY PREDICTED BY RF-SCORE:    0.00 PKD
ROOT
HETATM    1  N   UNL     1      -6.061   9.776  64.558  1.00  0.00    -0.089 NA 
HETATM    2  H1  UNL     1      -5.498  10.579  64.840  1.00  0.00     0.000 HD 
HETATM    3  C   UNL     1      -6.868   9.194  65.511  1.00  0.00    -0.073 A  
HETATM    4  H2  UNL     1      -6.027   9.416  63.604  1.00  0.00     0.000 HD 
HETATM    5  N   UNL     1      -7.600   8.148  65.143  1.00  0.00    -0.091 NA 
HETATM    6  C   UNL     1      -8.405   7.625  66.080  1.00  0.00    -0.135 A  
HETATM    7  N   UNL     1      -9.127   6.487  65.681  1.00  0.00    -0.367 NA 
HETATM    8  C   UNL     1      -8.495   8.097  67.387  1.00  0.00    -0.126 A  
HETATM    9  H2  UNL     1      -8.489   5.773  65.327  1.00  0.00     0.000 HD 
HETATM   10  H1  UNL     1      -9.738   6.089  66.393  1.00  0.00     0.000 HD 
HETATM   11  N   UNL     1      -9.349   7.587  68.323  1.00  0.00    -0.141 NA 
HETATM   12  C   UNL     1      -9.338   8.162  69.555  1.00  0.00    -0.155 A  
HETATM   13  N   UNL     1      -6.837   9.703  66.736  1.00  0.00    -0.082 NA 
HETATM   14  C   UNL     1      -8.431   9.200  69.825  1.00  0.00    -0.139 A  
HETATM   15  H2  UNL     1      -8.114   9.086  71.750  1.00  0.00     0.000 HD 
HETATM   16  N   UNL     1      -8.293   9.822  71.066  1.00  0.00    -0.303 NA 
HETATM   17  N   UNL     1      -7.607   9.697  68.876  1.00  0.00    -0.074 NA 
HETATM   18  H1  UNL     1      -7.634  10.576  71.262  1.00  0.00     0.000 HD 
HETATM   19  C   UNL     1      -7.640   9.168  67.650  1.00  0.00    -0.085 A  
ENDROOT
BRANCH  12  20
HETATM   20  C   UNL     1     -10.336   7.613  70.505  1.00  0.00    -0.211 A  
HETATM   21  C   UNL     1     -10.103   6.386  71.161  1.00  0.00    -0.213 A  
HETATM   22  C   UNL     1     -11.046   5.822  72.026  1.00  0.00    -0.318 A  
HETATM   23  C   UNL     1     -12.252   6.474  72.263  1.00  0.00    -0.201 A  
HETATM   24  C   UNL     1     -12.512   7.686  71.634  1.00  0.00    -0.362 A  
HETATM   25  C   UNL     1     -11.569   8.242  70.760  1.00  0.00    -0.250 A  
ENDBRANCH  12  20
TORSDOF 1
ENDMDL
MODEL      155
REMARK 921   NORMALIZED FREE ENERGY PREDICTED BY IDOCK:   -3.18 KCAL/MOL
REMARK 922        TOTAL FREE ENERGY PREDICTED BY IDOCK:   -3.54 KCAL/MOL
REMARK 923 INTER-LIGAND FREE ENERGY PREDICTED BY IDOCK:   -3.73 KCAL/MOL
REMARK 924 INTRA-LIGAND FREE ENERGY PREDICTED BY IDOCK:    0.19 KCAL/MOL
REMARK 927      BINDING AFFINITY PREDICTED BY RF-SCORE:    0.00 PKD
ROOT
HETATM    1  N   UNL     1      -9.816  16.419  65.444  1.00  0.00    -0.494 NA 
HETATM    2  H1  UNL     1      -9.091  17.105  65.653  1.00  0.00     0.000 HD 
HETATM    3  C   UNL     1      -9.666  15.152  65.964  1.00  0.00    -0.330 A  
HETATM    4  H2  UNL     1     -10.623  16.662  64.871  1.00  0.00     0.000 HD 
HETATM    5  N   UNL     1     -10.610  14.258  65.692  1.00  0.00    -0.304 NA 
HETATM    6  C   UNL     1     -10.459  13.044  66.242  1.00  0.00    -0.276 A  
HETATM    7  N   UNL     1     -11.442  12.102  65.894  1.00  0.00    -0.360 NA 
HETATM    8  C   UNL     1      -9.382  12.678  67.045  1.00  0.00    -0.220 A  
HETATM    9  H2  UNL     1     -11.508  12.022  64.879  1.00  0.00     0.000 HD 
HETATM   10  H1  UNL     1     -11.326  11.179  66.312  1.00  0.00     0.000 HD 
HETATM   11  N   UNL     1      -9.255  11.453  67.637  1.00  0.00    -0.156 NA 
HETATM   12  C   UNL     1      -8.156  11.245  68.408  1.00  0.00    -0.143 A  
HETATM   13  N   UNL     1      -8.574  14.906  66.679  1.00  0.00    -0.225 NA 
HETATM   14  C   UNL     1      -7.188  12.257  68.520  1.00  0.00    -0.103 A  
HETATM   15  H2  UNL     1      -5.521  11.303  68.879  1.00  0.00     0.000 HD 
HETATM   16  N   UNL     1      -5.997  12.132  69.236  1.00  0.00    -0.078 NA 
HETATM   17  N   UNL     1      -7.345  13.466  67.937  1.00  0.00    -0.123 NA 
HETATM   18  H1  UNL     1      -5.295  12.866  69.318  1.00  0.00     0.000 HD 
HETATM   19  C   UNL     1      -8.442  13.696  67.212  1.00  0.00    -0.194 A  
ENDROOT
BRANCH  12  20
HETATM   20  C   UNL     1      -8.111   9.924  69.082  1.00  0.00    -0.118 A  
HETATM   21  C   UNL     1      -7.506   9.785  70.348  1.00  0.00    -0.161 A  
HETATM   22  C   UNL     1      -7.408   8.544  70.986  1.00  0.00    -0.074 A  
HETATM   23  C   UNL     1      -7.919   7.403  70.374  1.00  0.00    -0.103 A  
HETATM   24  C   UNL     1      -8.523   7.507  69.126  1.00  0.00    -0.136 A  
HETATM   25  C   UNL     1      -8.610   8.749  68.487  1.00  0.00    -0.134 A  
ENDBRANCH  12  20
TORSDOF 1
ENDMDL
MODEL      156
REMARK 921   NORMALIZED FREE ENERGY PREDICTED BY IDOCK:   -3.10 KCAL/MOL
REMARK 922        TOTAL FREE ENERGY PREDICTED BY IDOCK:   -3.46 KCAL/MOL
REMARK 923 INTER-LIGAND FREE ENERGY PREDICTED BY IDOCK:   -3.21 KCAL/MOL
REMARK 924 INTRA-LIGAND FREE ENERGY PREDICTED BY IDOCK:   -0.25 KCAL/MOL
REMARK 927      BINDING AFFINITY PREDICTED BY RF-SCORE:    0.00 PKD
ROOT
HETATM    1  N   UNL     1      -6.985   8.777  64.675  1.00  0.00    -0.080 NA 
HETATM    2  H1  UNL     1      -6.259   9.449  64.925  1.00  0.00     0.000 HD 
HETATM    3  C   UNL     1      -7.560   8.050  65.694  1.00  0.00    -0.084 A  
HETATM    4  H2  UNL     1      -7.276   8.649  63.706  1.00  0.00     0.000 HD 
HETATM    5  N   UNL     1      -8.506   7.176  65.370  1.00  0.00    -0.119 NA 
HETATM    6  C   UNL     1      -9.075   6.508  66.385  1.00  0.00    -0.155 A  
HETATM    7  N   UNL     1     -10.033   5.551  66.009  1.00  0.00    -0.350 NA 
HETATM    8  C   UNL     1      -8.721   6.668  67.722  1.00  0.00    -0.116 A  
HETATM    9  H2  UNL     1      -9.630   4.894  65.340  1.00  0.00     0.000 HD 
HETATM   10  H1  UNL     1     -10.466   5.043  66.781  1.00  0.00     0.000 HD 
HETATM   11  N   UNL     1      -9.335   6.017  68.755  1.00  0.00    -0.122 NA 
HETATM   12  C   UNL     1      -8.891   6.286  70.011  1.00  0.00    -0.142 A  
HETATM   13  N   UNL     1      -7.109   8.255  66.926  1.00  0.00    -0.077 NA 
HETATM   14  C   UNL     1      -7.808   7.162  70.189  1.00  0.00    -0.108 A  
HETATM   15  H2  UNL     1      -6.975   6.579  71.858  1.00  0.00     0.000 HD 
HETATM   16  N   UNL     1      -7.236   7.466  71.425  1.00  0.00    -0.070 NA 
HETATM   17  N   UNL     1      -7.229   7.806  69.152  1.00  0.00    -0.080 NA 
HETATM   18  H1  UNL     1      -6.450   8.102  71.554  1.00  0.00     0.000 HD 
HETATM   19  C   UNL     1      -7.685   7.582  67.917  1.00  0.00    -0.116 A  
ENDROOT
BRANCH  12  20
HETATM   20  C   UNL     1      -9.643   5.605  71.094  1.00  0.00    -0.208 A  
HETATM   21  C   UNL     1     -10.755   6.229  71.696  1.00  0.00    -0.284 A  
HETATM   22  C   UNL     1     -11.454   5.632  72.751  1.00  0.00    -0.328 A  
HETATM   23  C   UNL     1     -11.061   4.386  73.229  1.00  0.00    -0.368 A  
HETATM   24  C   UNL     1      -9.971   3.743  72.655  1.00  0.00    -0.220 A  
HETATM   25  C   UNL     1      -9.268   4.349  71.608  1.00  0.00    -0.186 A  
ENDBRANCH  12  20
TORSDOF 1
ENDMDL
MODEL      157
REMARK 921   NORMALIZED FREE ENERGY PREDICTED BY IDOCK:   -3.07 KCAL/MOL
REMARK 922        TOTAL FREE ENERGY PREDICTED BY IDOCK:   -3.43 KCAL/MOL
REMARK 923 INTER-LIGAND FREE ENERGY PREDICTED BY IDOCK:   -3.31 KCAL/MOL
REMARK 924 INTRA-LIGAND FREE ENERGY PREDICTED BY IDOCK:   -0.12 KCAL/MOL
REMARK 927      BINDING AFFINITY PREDICTED BY RF-SCORE:    0.00 PKD
ROOT
HETATM    1  N   UNL     1      -9.658  16.893  68.011  1.00  0.00    -0.242 NA 
HETATM    2  H1  UNL     1     -10.470  17.380  67.631  1.00  0.00     0.000 HD 
HETATM    3  C   UNL     1      -9.404  15.620  67.553  1.00  0.00    -0.206 A  
HETATM    4  H2  UNL     1      -9.055  17.334  68.706  1.00  0.00     0.000 HD 
HETATM    5  N   UNL     1      -8.346  14.986  68.047  1.00  0.00    -0.144 NA 
HETATM    6  C   UNL     1      -8.100  13.762  67.556  1.00  0.00    -0.185 A  
HETATM    7  N   UNL     1      -7.009  13.092  68.136  1.00  0.00    -0.094 NA 
HETATM    8  C   UNL     1      -8.886  13.132  66.595  1.00  0.00    -0.064 A  
HETATM    9  H2  UNL     1      -7.122  13.047  69.149  1.00  0.00     0.000 HD 
HETATM   10  H1  UNL     1      -6.822  12.161  67.763  1.00  0.00     0.000 HD 
HETATM   11  N   UNL     1      -8.606  11.904  66.067  1.00  0.00     0.039 NA 
HETATM   12  C   UNL     1      -9.457  11.423  65.123  1.00  0.00    -0.199 A  
HETATM   13  N   UNL     1     -10.249  15.105  66.668  1.00  0.00    -0.260 NA 
HETATM   14  C   UNL     1     -10.595  12.168  64.774  1.00  0.00    -0.296 A  
HETATM   15  H2  UNL     1     -11.891  10.833  64.177  1.00  0.00     0.000 HD 
HETATM   16  N   UNL     1     -11.563  11.746  63.862  1.00  0.00    -0.392 NA 
HETATM   17  N   UNL     1     -10.841  13.388  65.300  1.00  0.00    -0.299 NA 
HETATM   18  H1  UNL     1     -12.389  12.287  63.609  1.00  0.00     0.000 HD 
HETATM   19  C   UNL     1      -9.989  13.890  66.196  1.00  0.00    -0.310 A  
ENDROOT
BRANCH  12  20
HETATM   20  C   UNL     1      -9.060  10.119  64.537  1.00  0.00    -0.280 A  
HETATM   21  C   UNL     1      -8.795  10.005  63.156  1.00  0.00    -0.244 A  
HETATM   22  C   UNL     1      -8.464   8.779  62.568  1.00  0.00    -0.195 A  
HETATM   23  C   UNL     1      -8.386   7.630  63.348  1.00  0.00     0.140 A  
HETATM   24  C   UNL     1      -8.640   7.709  64.713  1.00  0.00     0.135 A  
HETATM   25  C   UNL     1      -8.980   8.936  65.296  1.00  0.00    -0.213 A  
ENDBRANCH  12  20
TORSDOF 1
ENDMDL
MODEL      158
REMARK 921   NORMALIZED FREE ENERGY PREDICTED BY IDOCK:   -3.06 KCAL/MOL
REMARK 922        TOTAL FREE ENERGY PREDICTED BY IDOCK:   -3.41 KCAL/MOL
REMARK 923 INTER-LIGAND FREE ENERGY PREDICTED BY IDOCK:   -3.75 KCAL/MOL
REMARK 924 INTRA-LIGAND FREE ENERGY PREDICTED BY IDOCK:    0.33 KCAL/MOL
REMARK 927      BINDING AFFINITY PREDICTED BY RF-SCORE:    0.00 PKD
ROOT
HETATM    1  N   UNL     1      -6.335  12.318  66.802  1.00  0.00    -0.481 NA 
HETATM    2  H1  UNL     1      -5.501  12.716  67.234  1.00  0.00     0.000 HD 
HETATM    3  C   UNL     1      -7.051  11.392  67.527  1.00  0.00    -0.106 A  
HETATM    4  H2  UNL     1      -6.628  12.597  65.866  1.00  0.00     0.000 HD 
HETATM    5  N   UNL     1      -8.138  10.875  66.964  1.00  0.00    -0.127 NA 
HETATM    6  C   UNL     1      -8.838  10.004  67.706  1.00  0.00    -0.125 A  
HETATM    7  N   UNL     1      -9.950   9.430  67.066  1.00  0.00    -0.205 NA 
HETATM    8  C   UNL     1      -8.482   9.611  68.994  1.00  0.00    -0.131 A  
HETATM    9  H2  UNL     1      -9.664   8.994  66.189  1.00  0.00     0.000 HD 
HETATM   10  H1  UNL     1     -10.482   8.768  67.631  1.00  0.00     0.000 HD 
HETATM   11  N   UNL     1      -9.223   8.758  69.761  1.00  0.00    -0.152 NA 
HETATM   12  C   UNL     1      -8.759   8.478  71.007  1.00  0.00    -0.173 A  
HETATM   13  N   UNL     1      -6.591  11.062  68.727  1.00  0.00    -0.057 NA 
HETATM   14  C   UNL     1      -7.536   9.025  71.428  1.00  0.00    -0.037 A  
HETATM   15  H2  UNL     1      -6.852   7.748  72.740  1.00  0.00     0.000 HD 
HETATM   16  N   UNL     1      -6.937   8.762  72.661  1.00  0.00    -0.316 NA 
HETATM   17  N   UNL     1      -6.830   9.880  70.655  1.00  0.00    -0.254 NA 
HETATM   18  H1  UNL     1      -6.049   9.159  72.966  1.00  0.00     0.000 HD 
HETATM   19  C   UNL     1      -7.298  10.195  69.446  1.00  0.00    -0.106 A  
ENDROOT
BRANCH  12  20
HETATM   20  C   UNL     1      -9.642   7.603  71.817  1.00  0.00    -0.183 A  
HETATM   21  C   UNL     1      -9.480   7.518  73.216  1.00  0.00    -0.293 A  
HETATM   22  C   UNL     1     -10.267   6.667  73.999  1.00  0.00    -0.395 A  
HETATM   23  C   UNL     1     -11.245   5.878  73.402  1.00  0.00    -0.051 A  
HETATM   24  C   UNL     1     -11.432   5.940  72.026  1.00  0.00    -0.311 A  
HETATM   25  C   UNL     1     -10.635   6.786  71.245  1.00  0.00    -0.246 A  
ENDBRANCH  12  20
TORSDOF 1
ENDMDL
MODEL      159
REMARK 921   NORMALIZED FREE ENERGY PREDICTED BY IDOCK:   -3.01 KCAL/MOL
REMARK 922        TOTAL FREE ENERGY PREDICTED BY IDOCK:   -3.36 KCAL/MOL
REMARK 923 INTER-LIGAND FREE ENERGY PREDICTED BY IDOCK:   -3.37 KCAL/MOL
REMARK 924 INTRA-LIGAND FREE ENERGY PREDICTED BY IDOCK:    0.01 KCAL/MOL
REMARK 927      BINDING AFFINITY PREDICTED BY RF-SCORE:    0.00 PKD
ROOT
HETATM    1  N   UNL     1      -6.245  10.405  63.463  1.00  0.00    -0.276 NA 
HETATM    2  H1  UNL     1      -5.379   9.876  63.360  1.00  0.00     0.000 HD 
HETATM    3  C   UNL     1      -7.127  10.002  64.441  1.00  0.00    -0.135 A  
HETATM    4  H2  UNL     1      -6.450  11.204  62.864  1.00  0.00     0.000 HD 
HETATM    5  N   UNL     1      -8.256  10.691  64.576  1.00  0.00    -0.068 NA 
HETATM    6  C   UNL     1      -9.079  10.301  65.560  1.00  0.00    -0.176 A  
HETATM    7  N   UNL     1     -10.289  11.011  65.644  1.00  0.00    -0.253 NA 
HETATM    8  C   UNL     1      -8.827   9.228  66.411  1.00  0.00    -0.146 A  
HETATM    9  H2  UNL     1     -10.776  10.983  64.748  1.00  0.00     0.000 HD 
HETATM   10  H1  UNL     1     -10.916  10.714  66.393  1.00  0.00     0.000 HD 
HETATM   11  N   UNL     1      -9.650   8.863  67.440  1.00  0.00    -0.151 NA 
HETATM   12  C   UNL     1      -9.265   7.803  68.198  1.00  0.00    -0.138 A  
HETATM   13  N   UNL     1      -6.800   8.937  65.163  1.00  0.00    -0.075 NA 
HETATM   14  C   UNL     1      -8.090   7.108  67.869  1.00  0.00    -0.119 A  
HETATM   15  H2  UNL     1      -8.391   5.294  68.532  1.00  0.00     0.000 HD 
HETATM   16  N   UNL     1      -7.631   5.975  68.542  1.00  0.00    -0.090 NA 
HETATM   17  N   UNL     1      -7.285   7.499  66.857  1.00  0.00    -0.083 NA 
HETATM   18  H1  UNL     1      -6.778   5.470  68.303  1.00  0.00     0.000 HD 
HETATM   19  C   UNL     1      -7.632   8.565  66.131  1.00  0.00    -0.089 A  
ENDROOT
BRANCH  12  20
HETATM   20  C   UNL     1     -10.161   7.501  69.342  1.00  0.00    -0.190 A  
HETATM   21  C   UNL     1     -10.642   6.191  69.548  1.00  0.00    -0.350 A  
HETATM   22  C   UNL     1     -11.524   5.886  70.590  1.00  0.00    -0.105 A  
HETATM   23  C   UNL     1     -11.948   6.886  71.460  1.00  0.00    -0.386 A  
HETATM   24  C   UNL     1     -11.491   8.187  71.284  1.00  0.00    -0.299 A  
HETATM   25  C   UNL     1     -10.616   8.490  70.234  1.00  0.00    -0.238 A  
ENDBRANCH  12  20
TORSDOF 1
ENDMDL
MODEL      160
REMARK 921   NORMALIZED FREE ENERGY PREDICTED BY IDOCK:   -2.84 KCAL/MOL
REMARK 922        TOTAL FREE ENERGY PREDICTED BY IDOCK:   -3.19 KCAL/MOL
REMARK 923 INTER-LIGAND FREE ENERGY PREDICTED BY IDOCK:   -3.43 KCAL/MOL
REMARK 924 INTRA-LIGAND FREE ENERGY PREDICTED BY IDOCK:    0.24 KCAL/MOL
REMARK 927      BINDING AFFINITY PREDICTED BY RF-SCORE:    0.00 PKD
ROOT
HETATM    1  N   UNL     1     -11.796  13.870  64.973  1.00  0.00    -0.355 NA 
HETATM    2  H1  UNL     1     -12.131  13.739  64.019  1.00  0.00     0.000 HD 
HETATM    3  C   UNL     1     -10.982  12.893  65.504  1.00  0.00    -0.274 A  
HETATM    4  H2  UNL     1     -12.053  14.694  65.515  1.00  0.00     0.000 HD 
HETATM    5  N   UNL     1     -10.545  13.063  66.747  1.00  0.00    -0.261 NA 
HETATM    6  C   UNL     1      -9.724  12.117  67.226  1.00  0.00    -0.191 A  
HETATM    7  N   UNL     1      -9.321  12.293  68.561  1.00  0.00    -0.361 NA 
HETATM    8  C   UNL     1      -9.333  10.987  66.513  1.00  0.00    -0.180 A  
HETATM    9  H2  UNL     1     -10.139  12.387  69.165  1.00  0.00     0.000 HD 
HETATM   10  H1  UNL     1      -8.697  11.573  68.925  1.00  0.00     0.000 HD 
HETATM   11  N   UNL     1      -8.462  10.048  66.990  1.00  0.00    -0.125 NA 
HETATM   12  C   UNL     1      -8.161   9.006  66.173  1.00  0.00    -0.111 A  
HETATM   13  N   UNL     1     -10.713  11.838  64.745  1.00  0.00    -0.289 NA 
HETATM   14  C   UNL     1      -8.784   8.908  64.917  1.00  0.00    -0.149 A  
HETATM   15  H2  UNL     1      -8.806   6.994  64.527  1.00  0.00     0.000 HD 
HETATM   16  N   UNL     1      -8.593   7.855  64.023  1.00  0.00    -0.356 NA 
HETATM   17  N   UNL     1      -9.630   9.859  64.462  1.00  0.00    -0.279 NA 
HETATM   18  H1  UNL     1      -9.045   7.784  63.112  1.00  0.00     0.000 HD 
HETATM   19  C   UNL     1      -9.900  10.909  65.239  1.00  0.00    -0.265 A  
ENDROOT
BRANCH  12  20
HETATM   20  C   UNL     1      -7.156   8.060  66.718  1.00  0.00    -0.081 A  
HETATM   21  C   UNL     1      -6.865   8.040  68.097  1.00  0.00    -0.069 A  
HETATM   22  C   UNL     1      -5.889   7.192  68.633  1.00  0.00    -0.022 A  
HETATM   23  C   UNL     1      -5.179   6.334  67.799  1.00  0.00    -0.004 A  
HETATM   24  C   UNL     1      -5.443   6.327  66.435  1.00  0.00    -0.013 A  
HETATM   25  C   UNL     1      -6.413   7.185  65.902  1.00  0.00    -0.048 A  
ENDBRANCH  12  20
TORSDOF 1
ENDMDL
MODEL      161
REMARK 921   NORMALIZED FREE ENERGY PREDICTED BY IDOCK:   -2.82 KCAL/MOL
REMARK 922        TOTAL FREE ENERGY PREDICTED BY IDOCK:   -3.16 KCAL/MOL
REMARK 923 INTER-LIGAND FREE ENERGY PREDICTED BY IDOCK:   -3.43 KCAL/MOL
REMARK 924 INTRA-LIGAND FREE ENERGY PREDICTED BY IDOCK:    0.27 KCAL/MOL
REMARK 927      BINDING AFFINITY PREDICTED BY RF-SCORE:    0.00 PKD
ROOT
HETATM    1  N   UNL     1      -9.610  14.778  70.421  1.00  0.00     0.163 NA 
HETATM    2  H1  UNL     1     -10.456  15.214  70.787  1.00  0.00     0.000 HD 
HETATM    3  C   UNL     1      -8.971  15.403  69.373  1.00  0.00    -0.258 A  
HETATM    4  H2  UNL     1      -9.249  13.909  70.816  1.00  0.00     0.000 HD 
HETATM    5  N   UNL     1      -7.869  14.836  68.896  1.00  0.00    -0.145 NA 
HETATM    6  C   UNL     1      -7.245  15.485  67.901  1.00  0.00    -0.141 A  
HETATM    7  N   UNL     1      -6.114  14.835  67.378  1.00  0.00    -0.320 NA 
HETATM    8  C   UNL     1      -7.694  16.681  67.347  1.00  0.00    -0.163 A  
HETATM    9  H2  UNL     1      -6.359  13.890  67.081  1.00  0.00     0.000 HD 
HETATM   10  H1  UNL     1      -5.641  15.330  66.621  1.00  0.00     0.000 HD 
HETATM   11  N   UNL     1      -7.031  17.360  66.364  1.00  0.00    -0.252 NA 
HETATM   12  C   UNL     1      -7.581  18.525  65.932  1.00  0.00    -0.136 A  
HETATM   13  N   UNL     1      -9.516  16.516  68.897  1.00  0.00    -0.254 NA 
HETATM   14  C   UNL     1      -8.810  18.948  66.464  1.00  0.00    -0.323 A  
HETATM   15  H2  UNL     1      -9.616  20.023  65.045  1.00  0.00     0.000 HD 
HETATM   16  N   UNL     1      -9.493  20.095  66.055  1.00  0.00    -0.603 NA 
HETATM   17  N   UNL     1      -9.438  18.266  67.447  1.00  0.00    -0.263 NA 
HETATM   18  H1  UNL     1     -10.385  20.402  66.442  1.00  0.00     0.000 HD 
HETATM   19  C   UNL     1      -8.885  17.143  67.910  1.00  0.00    -0.226 A  
ENDROOT
BRANCH  12  20
HETATM   20  C   UNL     1      -6.780  19.252  64.916  1.00  0.00     0.027 A  
HETATM   21  C   UNL     1      -6.920  20.646  64.757  1.00  0.00    -0.007 A  
HETATM   22  C   UNL     1      -6.212  21.350  63.777  1.00  0.00    -0.212 A  
HETATM   23  C   UNL     1      -5.337  20.677  62.929  1.00  0.00    -0.237 A  
HETATM   24  C   UNL     1      -5.175  19.302  63.062  1.00  0.00    -0.346 A  
HETATM   25  C   UNL     1      -5.894  18.600  64.038  1.00  0.00     0.270 A  
ENDBRANCH  12  20
TORSDOF 1
ENDMDL
MODEL      162
REMARK 921   NORMALIZED FREE ENERGY PREDICTED BY IDOCK:   -2.81 KCAL/MOL
REMARK 922        TOTAL FREE ENERGY PREDICTED BY IDOCK:   -3.15 KCAL/MOL
REMARK 923 INTER-LIGAND FREE ENERGY PREDICTED BY IDOCK:   -3.48 KCAL/MOL
REMARK 924 INTRA-LIGAND FREE ENERGY PREDICTED BY IDOCK:    0.33 KCAL/MOL
REMARK 927      BINDING AFFINITY PREDICTED BY RF-SCORE:    0.00 PKD
ROOT
HETATM    1  N   UNL     1     -12.654  14.655  74.344  1.00  0.00    -0.358 NA 
HETATM    2  H1  UNL     1     -12.977  13.720  74.593  1.00  0.00     0.000 HD 
HETATM    3  C   UNL     1     -12.330  14.890  73.026  1.00  0.00    -0.342 A  
HETATM    4  H2  UNL     1     -12.574  15.390  75.046  1.00  0.00     0.000 HD 
HETATM    5  N   UNL     1     -11.910  16.107  72.701  1.00  0.00    -0.519 NA 
HETATM    6  C   UNL     1     -11.638  16.319  71.405  1.00  0.00    -0.361 A  
HETATM    7  N   UNL     1     -11.143  17.598  71.098  1.00  0.00     1.021 NA 
HETATM    8  C   UNL     1     -11.752  15.349  70.413  1.00  0.00    -0.319 A  
HETATM    9  H2  UNL     1     -10.321  17.802  71.667  1.00  0.00     0.000 HD 
HETATM   10  H1  UNL     1     -10.936  17.759  70.112  1.00  0.00     0.000 HD 
HETATM   11  N   UNL     1     -11.516  15.583  69.088  1.00  0.00    -0.324 NA 
HETATM   12  C   UNL     1     -11.684  14.541  68.232  1.00  0.00    -0.335 A  
HETATM   13  N   UNL     1     -12.436  13.875  72.177  1.00  0.00    -0.138 NA 
HETATM   14  C   UNL     1     -12.036  13.279  68.739  1.00  0.00    -0.300 A  
HETATM   15  H2  UNL     1     -11.308  12.009  67.444  1.00  0.00     0.000 HD 
HETATM   16  N   UNL     1     -12.179  12.130  67.961  1.00  0.00    -0.326 NA 
HETATM   17  N   UNL     1     -12.280  13.078  70.053  1.00  0.00    -0.276 NA 
HETATM   18  H1  UNL     1     -12.434  11.214  68.329  1.00  0.00     0.000 HD 
HETATM   19  C   UNL     1     -12.159  14.104  70.897  1.00  0.00    -0.344 A  
ENDROOT
BRANCH  12  20
HETATM   20  C   UNL     1     -11.483  14.875  66.800  1.00  0.00    -0.304 A  
HETATM   21  C   UNL     1     -11.193  16.198  66.407  1.00  0.00     0.220 A  
HETATM   22  C   UNL     1     -11.044  16.551  65.061  1.00  0.00    -0.174 A  
HETATM   23  C   UNL     1     -11.178  15.585  64.068  1.00  0.00     0.366 A  
HETATM   24  C   UNL     1     -11.461  14.271  64.423  1.00  0.00    -0.321 A  
HETATM   25  C   UNL     1     -11.620  13.925  65.771  1.00  0.00    -0.343 A  
ENDBRANCH  12  20
TORSDOF 1
ENDMDL
MODEL      163
REMARK 921   NORMALIZED FREE ENERGY PREDICTED BY IDOCK:   -2.74 KCAL/MOL
REMARK 922        TOTAL FREE ENERGY PREDICTED BY IDOCK:   -3.08 KCAL/MOL
REMARK 923 INTER-LIGAND FREE ENERGY PREDICTED BY IDOCK:   -2.86 KCAL/MOL
REMARK 924 INTRA-LIGAND FREE ENERGY PREDICTED BY IDOCK:   -0.22 KCAL/MOL
REMARK 927      BINDING AFFINITY PREDICTED BY RF-SCORE:    0.00 PKD
ROOT
HETATM    1  N   UNL     1      -6.508  11.946  66.428  1.00  0.00    -0.427 NA 
HETATM    2  H1  UNL     1      -5.700  12.343  66.907  1.00  0.00     0.000 HD 
HETATM    3  C   UNL     1      -7.021  10.763  66.910  1.00  0.00    -0.109 A  
HETATM    4  H2  UNL     1      -6.922  12.410  65.619  1.00  0.00     0.000 HD 
HETATM    5  N   UNL     1      -8.074  10.247  66.286  1.00  0.00    -0.125 NA 
HETATM    6  C   UNL     1      -8.576   9.114  66.799  1.00  0.00    -0.127 A  
HETATM    7  N   UNL     1      -9.654   8.560  66.087  1.00  0.00    -0.360 NA 
HETATM    8  C   UNL     1      -8.052   8.459  67.911  1.00  0.00    -0.123 A  
HETATM    9  H2  UNL     1      -9.394   8.418  65.111  1.00  0.00     0.000 HD 
HETATM   10  H1  UNL     1     -10.036   7.699  66.478  1.00  0.00     0.000 HD 
HETATM   11  N   UNL     1      -8.595   7.330  68.455  1.00  0.00    -0.125 NA 
HETATM   12  C   UNL     1      -7.983   6.811  69.552  1.00  0.00    -0.125 A  
HETATM   13  N   UNL     1      -6.410  10.207  67.950  1.00  0.00    -0.060 NA 
HETATM   14  C   UNL     1      -6.812   7.414  70.040  1.00  0.00    -0.055 A  
HETATM   15  H2  UNL     1      -5.842   5.962  70.918  1.00  0.00     0.000 HD 
HETATM   16  N   UNL     1      -6.071   6.935  71.122  1.00  0.00    -0.036 NA 
HETATM   17  N   UNL     1      -6.304   8.540  69.493  1.00  0.00    -0.040 NA 
HETATM   18  H1  UNL     1      -5.221   7.372  71.476  1.00  0.00     0.000 HD 
HETATM   19  C   UNL     1      -6.922   9.083  68.441  1.00  0.00    -0.068 A  
ENDROOT
BRANCH  12  20
HETATM   20  C   UNL     1      -8.659   5.628  70.139  1.00  0.00    -0.127 A  
HETATM   21  C   UNL     1      -9.404   5.746  71.331  1.00  0.00    -0.164 A  
HETATM   22  C   UNL     1     -10.013   4.640  71.933  1.00  0.00    -0.254 A  
HETATM   23  C   UNL     1      -9.897   3.380  71.353  1.00  0.00    -0.204 A  
HETATM   24  C   UNL     1      -9.172   3.230  70.177  1.00  0.00    -0.226 A  
HETATM   25  C   UNL     1      -8.555   4.339  69.584  1.00  0.00    -0.103 A  
ENDBRANCH  12  20
TORSDOF 1
ENDMDL
MODEL      164
REMARK 921   NORMALIZED FREE ENERGY PREDICTED BY IDOCK:   -2.67 KCAL/MOL
REMARK 922        TOTAL FREE ENERGY PREDICTED BY IDOCK:   -3.00 KCAL/MOL
REMARK 923 INTER-LIGAND FREE ENERGY PREDICTED BY IDOCK:   -2.76 KCAL/MOL
REMARK 924 INTRA-LIGAND FREE ENERGY PREDICTED BY IDOCK:   -0.24 KCAL/MOL
REMARK 927      BINDING AFFINITY PREDICTED BY RF-SCORE:    0.00 PKD
ROOT
HETATM    1  N   UNL     1      -9.577  12.821  68.752  1.00  0.00    -0.412 NA 
HETATM    2  H1  UNL     1      -8.910  13.433  68.282  1.00  0.00     0.000 HD 
HETATM    3  C   UNL     1      -9.476  11.467  68.520  1.00  0.00    -0.174 A  
HETATM    4  H2  UNL     1     -10.295  13.199  69.371  1.00  0.00     0.000 HD 
HETATM    5  N   UNL     1     -10.346  10.670  69.132  1.00  0.00    -0.212 NA 
HETATM    6  C   UNL     1     -10.201   9.354  68.919  1.00  0.00    -0.200 A  
HETATM    7  N   UNL     1     -11.167   8.538  69.533  1.00  0.00    -0.440 NA 
HETATM    8  C   UNL     1      -9.225   8.797  68.097  1.00  0.00    -0.140 A  
HETATM    9  H2  UNL     1     -12.104   8.837  69.260  1.00  0.00     0.000 HD 
HETATM   10  H1  UNL     1     -11.057   7.537  69.371  1.00  0.00     0.000 HD 
HETATM   11  N   UNL     1      -9.055   7.453  67.919  1.00  0.00    -0.130 NA 
HETATM   12  C   UNL     1      -8.048   7.056  67.098  1.00  0.00    -0.118 A  
HETATM   13  N   UNL     1      -8.533  11.056  67.682  1.00  0.00    -0.120 NA 
HETATM   14  C   UNL     1      -7.272   8.023  66.438  1.00  0.00    -0.079 A  
HETATM   15  H2  UNL     1      -6.656   7.133  64.811  1.00  0.00     0.000 HD 
HETATM   16  N   UNL     1      -6.252   7.731  65.532  1.00  0.00    -0.038 NA 
HETATM   17  N   UNL     1      -7.449   9.347  66.644  1.00  0.00    -0.093 NA 
HETATM   18  H1  UNL     1      -5.688   8.433  65.053  1.00  0.00     0.000 HD 
HETATM   19  C   UNL     1      -8.408   9.748  67.482  1.00  0.00    -0.114 A  
ENDROOT
BRANCH  12  20
HETATM   20  C   UNL     1      -7.868   5.586  67.002  1.00  0.00    -0.101 A  
HETATM   21  C   UNL     1      -6.897   4.930  67.786  1.00  0.00    -0.060 A  
HETATM   22  C   UNL     1      -6.674   3.553  67.683  1.00  0.00    -0.042 A  
HETATM   23  C   UNL     1      -7.422   2.791  66.790  1.00  0.00    -0.070 A  
HETATM   24  C   UNL     1      -8.388   3.408  66.003  1.00  0.00    -0.103 A  
HETATM   25  C   UNL     1      -8.600   4.788  66.103  1.00  0.00    -0.115 A  
ENDBRANCH  12  20
TORSDOF 1
ENDMDL
MODEL      165
REMARK 921   NORMALIZED FREE ENERGY PREDICTED BY IDOCK:   -2.66 KCAL/MOL
REMARK 922        TOTAL FREE ENERGY PREDICTED BY IDOCK:   -2.99 KCAL/MOL
REMARK 923 INTER-LIGAND FREE ENERGY PREDICTED BY IDOCK:   -2.75 KCAL/MOL
REMARK 924 INTRA-LIGAND FREE ENERGY PREDICTED BY IDOCK:   -0.24 KCAL/MOL
REMARK 927      BINDING AFFINITY PREDICTED BY RF-SCORE:    0.00 PKD
ROOT
HETATM    1  N   UNL     1      -9.672  12.143  68.690  1.00  0.00    -0.380 NA 
HETATM    2  H1  UNL     1      -9.065  12.931  68.463  1.00  0.00     0.000 HD 
HETATM    3  C   UNL     1      -9.492  10.974  67.986  1.00  0.00    -0.166 A  
HETATM    4  H2  UNL     1     -10.387  12.219  69.414  1.00  0.00     0.000 HD 
HETATM    5  N   UNL     1     -10.282   9.947  68.282  1.00  0.00    -0.168 NA 
HETATM    6  C   UNL     1     -10.060   8.810  67.607  1.00  0.00    -0.216 A  
HETATM    7  N   UNL     1     -10.945   7.758  67.899  1.00  0.00    -0.484 NA 
HETATM    8  C   UNL     1      -9.083   8.660  66.626  1.00  0.00    -0.165 A  
HETATM    9  H2  UNL     1     -11.909   8.063  67.765  1.00  0.00     0.000 HD 
HETATM   10  H1  UNL     1     -10.776   6.893  67.386  1.00  0.00     0.000 HD 
HETATM   11  N   UNL     1      -8.833   7.486  65.974  1.00  0.00    -0.164 NA 
HETATM   12  C   UNL     1      -7.836   7.486  65.051  1.00  0.00    -0.127 A  
HETATM   13  N   UNL     1      -8.558  10.963  67.042  1.00  0.00    -0.134 NA 
HETATM   14  C   UNL     1      -7.151   8.681  64.773  1.00  0.00    -0.077 A  
HETATM   15  H2  UNL     1      -6.545   8.481  62.926  1.00  0.00     0.000 HD 
HETATM   16  N   UNL     1      -6.152   8.810  63.808  1.00  0.00    -0.072 NA 
HETATM   17  N   UNL     1      -7.407   9.826  65.444  1.00  0.00    -0.111 NA 
HETATM   18  H1  UNL     1      -5.655   9.678  63.606  1.00  0.00     0.000 HD 
HETATM   19  C   UNL     1      -8.356   9.826  66.383  1.00  0.00    -0.120 A  
ENDROOT
BRANCH  12  20
HETATM   20  C   UNL     1      -7.564   6.166  64.429  1.00  0.00    -0.098 A  
HETATM   21  C   UNL     1      -6.519   5.350  64.908  1.00  0.00    -0.039 A  
HETATM   22  C   UNL     1      -6.210   4.122  64.312  1.00  0.00    -0.026 A  
HETATM   23  C   UNL     1      -6.945   3.674  63.219  1.00  0.00    -0.044 A  
HETATM   24  C   UNL     1      -7.983   4.455  62.723  1.00  0.00    -0.069 A  
HETATM   25  C   UNL     1      -8.281   5.688  63.317  1.00  0.00    -0.090 A  
ENDBRANCH  12  20
TORSDOF 1
ENDMDL
MODEL      166
REMARK 921   NORMALIZED FREE ENERGY PREDICTED BY IDOCK:   -2.66 KCAL/MOL
REMARK 922        TOTAL FREE ENERGY PREDICTED BY IDOCK:   -2.99 KCAL/MOL
REMARK 923 INTER-LIGAND FREE ENERGY PREDICTED BY IDOCK:   -3.10 KCAL/MOL
REMARK 924 INTRA-LIGAND FREE ENERGY PREDICTED BY IDOCK:    0.11 KCAL/MOL
REMARK 927      BINDING AFFINITY PREDICTED BY RF-SCORE:    0.00 PKD
ROOT
HETATM    1  N   UNL     1     -10.133  12.141  64.714  1.00  0.00    -0.321 NA 
HETATM    2  H1  UNL     1     -10.832  12.726  65.171  1.00  0.00     0.000 HD 
HETATM    3  C   UNL     1      -9.731  10.997  65.367  1.00  0.00    -0.232 A  
HETATM    4  H2  UNL     1      -9.745  12.394  63.805  1.00  0.00     0.000 HD 
HETATM    5  N   UNL     1      -8.820  10.234  64.771  1.00  0.00    -0.182 NA 
HETATM    6  C   UNL     1      -8.474   9.107  65.411  1.00  0.00    -0.149 A  
HETATM    7  N   UNL     1      -7.470   8.348  64.786  1.00  0.00    -0.091 NA 
HETATM    8  C   UNL     1      -8.993   8.717  66.642  1.00  0.00    -0.145 A  
HETATM    9  H2  UNL     1      -6.645   8.926  64.622  1.00  0.00     0.000 HD 
HETATM   10  H1  UNL     1      -7.207   7.492  65.273  1.00  0.00     0.000 HD 
HETATM   11  N   UNL     1      -8.670   7.546  67.268  1.00  0.00    -0.120 NA 
HETATM   12  C   UNL     1      -9.269   7.291  68.461  1.00  0.00    -0.138 A  
HETATM   13  N   UNL     1     -10.263  10.750  66.557  1.00  0.00    -0.228 NA 
HETATM   14  C   UNL     1     -10.138   8.244  69.015  1.00  0.00    -0.202 A  
HETATM   15  H2  UNL     1     -10.028   7.946  70.944  1.00  0.00     0.000 HD 
HETATM   16  N   UNL     1     -10.763   8.113  70.256  1.00  0.00    -0.233 NA 
HETATM   17  N   UNL     1     -10.455   9.388  68.369  1.00  0.00    -0.215 NA 
HETATM   18  H1  UNL     1     -11.394   8.806  70.659  1.00  0.00     0.000 HD 
HETATM   19  C   UNL     1      -9.904   9.629  67.176  1.00  0.00    -0.186 A  
ENDROOT
BRANCH  12  20
HETATM   20  C   UNL     1      -8.933   5.974  69.055  1.00  0.00    -0.124 A  
HETATM   21  C   UNL     1      -8.682   5.855  70.438  1.00  0.00    -0.139 A  
HETATM   22  C   UNL     1      -8.318   4.635  71.019  1.00  0.00    -0.098 A  
HETATM   23  C   UNL     1      -8.198   3.496  70.229  1.00  0.00    -0.075 A  
HETATM   24  C   UNL     1      -8.440   3.579  68.863  1.00  0.00    -0.105 A  
HETATM   25  C   UNL     1      -8.794   4.804  68.285  1.00  0.00    -0.117 A  
ENDBRANCH  12  20
TORSDOF 1
ENDMDL
MODEL      167
REMARK 921   NORMALIZED FREE ENERGY PREDICTED BY IDOCK:   -2.56 KCAL/MOL
REMARK 922        TOTAL FREE ENERGY PREDICTED BY IDOCK:   -2.89 KCAL/MOL
REMARK 923 INTER-LIGAND FREE ENERGY PREDICTED BY IDOCK:   -2.67 KCAL/MOL
REMARK 924 INTRA-LIGAND FREE ENERGY PREDICTED BY IDOCK:   -0.22 KCAL/MOL
REMARK 927      BINDING AFFINITY PREDICTED BY RF-SCORE:    0.00 PKD
ROOT
HETATM    1  N   UNL     1      -6.924  11.546  70.182  1.00  0.00    -0.421 NA 
HETATM    2  H1  UNL     1      -6.131  11.263  70.759  1.00  0.00     0.000 HD 
HETATM    3  C   UNL     1      -7.394  10.643  69.255  1.00  0.00    -0.119 A  
HETATM    4  H2  UNL     1      -7.352  12.466  70.287  1.00  0.00     0.000 HD 
HETATM    5  N   UNL     1      -8.427  11.010  68.504  1.00  0.00    -0.147 NA 
HETATM    6  C   UNL     1      -8.889  10.097  67.636  1.00  0.00    -0.125 A  
HETATM    7  N   UNL     1      -9.944  10.532  66.816  1.00  0.00    -0.196 NA 
HETATM    8  C   UNL     1      -8.344   8.826  67.475  1.00  0.00    -0.109 A  
HETATM    9  H2  UNL     1      -9.677  11.383  66.321  1.00  0.00     0.000 HD 
HETATM   10  H1  UNL     1     -10.295   9.837  66.156  1.00  0.00     0.000 HD 
HETATM   11  N   UNL     1      -8.847   7.885  66.621  1.00  0.00    -0.139 NA 
HETATM   12  C   UNL     1      -8.220   6.681  66.582  1.00  0.00    -0.112 A  
HETATM   13  N   UNL     1      -6.767   9.476  69.160  1.00  0.00    -0.049 NA 
HETATM   14  C   UNL     1      -7.073   6.473  67.366  1.00  0.00    -0.080 A  
HETATM   15  H2  UNL     1      -6.053   5.119  66.394  1.00  0.00     0.000 HD 
HETATM   16  N   UNL     1      -6.318   5.299  67.362  1.00  0.00    -0.038 NA 
HETATM   17  N   UNL     1      -6.605   7.415  68.215  1.00  0.00    -0.048 NA 
HETATM   18  H1  UNL     1      -5.485   5.149  67.931  1.00  0.00     0.000 HD 
HETATM   19  C   UNL     1      -7.239   8.587  68.292  1.00  0.00    -0.086 A  
ENDROOT
BRANCH  12  20
HETATM   20  C   UNL     1      -8.854   5.679  65.691  1.00  0.00    -0.150 A  
HETATM   21  C   UNL     1      -8.304   5.396  64.424  1.00  0.00    -0.129 A  
HETATM   22  C   UNL     1      -8.906   4.490  63.543  1.00  0.00    -0.139 A  
HETATM   23  C   UNL     1     -10.079   3.837  63.910  1.00  0.00    -0.208 A  
HETATM   24  C   UNL     1     -10.646   4.093  65.153  1.00  0.00    -0.139 A  
HETATM   25  C   UNL     1     -10.045   5.008  66.027  1.00  0.00    -0.234 A  
ENDBRANCH  12  20
TORSDOF 1
ENDMDL
MODEL      168
REMARK 921   NORMALIZED FREE ENERGY PREDICTED BY IDOCK:   -2.49 KCAL/MOL
REMARK 922        TOTAL FREE ENERGY PREDICTED BY IDOCK:   -2.81 KCAL/MOL
REMARK 923 INTER-LIGAND FREE ENERGY PREDICTED BY IDOCK:   -2.59 KCAL/MOL
REMARK 924 INTRA-LIGAND FREE ENERGY PREDICTED BY IDOCK:   -0.23 KCAL/MOL
REMARK 927      BINDING AFFINITY PREDICTED BY RF-SCORE:    0.00 PKD
ROOT
HETATM    1  N   UNL     1     -10.196   2.464  64.395  1.00  0.00    -0.361 NA 
HETATM    2  H1  UNL     1     -10.769   1.832  64.954  1.00  0.00     0.000 HD 
HETATM    3  C   UNL     1      -9.764   3.629  64.989  1.00  0.00    -0.162 A  
HETATM    4  H2  UNL     1      -9.950   2.241  63.431  1.00  0.00     0.000 HD 
HETATM    5  N   UNL     1      -9.017   4.452  64.261  1.00  0.00    -0.148 NA 
HETATM    6  C   UNL     1      -8.579   5.561  64.875  1.00  0.00    -0.111 A  
HETATM    7  N   UNL     1      -7.838   6.440  64.067  1.00  0.00    -0.111 NA 
HETATM    8  C   UNL     1      -8.875   5.894  66.195  1.00  0.00    -0.147 A  
HETATM    9  H2  UNL     1      -8.374   6.689  63.235  1.00  0.00     0.000 HD 
HETATM   10  H1  UNL     1      -7.505   7.284  64.534  1.00  0.00     0.000 HD 
HETATM   11  N   UNL     1      -8.389   7.003  66.828  1.00  0.00    -0.113 NA 
HETATM   12  C   UNL     1      -8.752   7.188  68.124  1.00  0.00    -0.127 A  
HETATM   13  N   UNL     1     -10.147   3.861  66.239  1.00  0.00    -0.040 NA 
HETATM   14  C   UNL     1      -9.635   6.280  68.732  1.00  0.00    -0.121 A  
HETATM   15  H2  UNL     1     -10.544   7.327  70.109  1.00  0.00     0.000 HD 
HETATM   16  N   UNL     1     -10.117   6.403  70.036  1.00  0.00    -0.169 NA 
HETATM   17  N   UNL     1     -10.088   5.182  68.089  1.00  0.00    -0.150 NA 
HETATM   18  H1  UNL     1     -10.758   5.744  70.477  1.00  0.00     0.000 HD 
HETATM   19  C   UNL     1      -9.704   4.967  66.828  1.00  0.00    -0.181 A  
ENDROOT
BRANCH  12  20
HETATM   20  C   UNL     1      -8.136   8.369  68.778  1.00  0.00    -0.121 A  
HETATM   21  C   UNL     1      -8.555   9.674  68.443  1.00  0.00    -0.119 A  
HETATM   22  C   UNL     1      -7.961  10.807  69.009  1.00  0.00    -0.137 A  
HETATM   23  C   UNL     1      -6.930  10.665  69.932  1.00  0.00    -0.148 A  
HETATM   24  C   UNL     1      -6.494   9.393  70.285  1.00  0.00    -0.064 A  
HETATM   25  C   UNL     1      -7.085   8.262  69.708  1.00  0.00    -0.056 A  
ENDBRANCH  12  20
TORSDOF 1
ENDMDL
MODEL      169
REMARK 921   NORMALIZED FREE ENERGY PREDICTED BY IDOCK:   -2.38 KCAL/MOL
REMARK 922        TOTAL FREE ENERGY PREDICTED BY IDOCK:   -2.70 KCAL/MOL
REMARK 923 INTER-LIGAND FREE ENERGY PREDICTED BY IDOCK:   -2.46 KCAL/MOL
REMARK 924 INTRA-LIGAND FREE ENERGY PREDICTED BY IDOCK:   -0.24 KCAL/MOL
REMARK 927      BINDING AFFINITY PREDICTED BY RF-SCORE:    0.00 PKD
ROOT
HETATM    1  N   UNL     1      -5.785  10.240  70.425  1.00  0.00    -0.068 NA 
HETATM    2  H1  UNL     1      -5.026  10.415  71.083  1.00  0.00     0.000 HD 
HETATM    3  C   UNL     1      -6.527   9.092  70.594  1.00  0.00    -0.066 A  
HETATM    4  H2  UNL     1      -5.987  10.892  69.667  1.00  0.00     0.000 HD 
HETATM    5  N   UNL     1      -7.516   8.864  69.737  1.00  0.00    -0.055 NA 
HETATM    6  C   UNL     1      -8.246   7.759  69.948  1.00  0.00    -0.125 A  
HETATM    7  N   UNL     1      -9.249   7.513  68.994  1.00  0.00    -0.147 NA 
HETATM    8  C   UNL     1      -8.014   6.854  70.980  1.00  0.00    -0.102 A  
HETATM    9  H2  UNL     1      -8.845   7.493  68.057  1.00  0.00     0.000 HD 
HETATM   10  H1  UNL     1      -9.804   6.672  69.155  1.00  0.00     0.000 HD 
HETATM   11  N   UNL     1      -8.789   5.753  71.216  1.00  0.00    -0.135 NA 
HETATM   12  C   UNL     1      -8.450   4.968  72.272  1.00  0.00    -0.124 A  
HETATM   13  N   UNL     1      -6.185   8.281  71.588  1.00  0.00    -0.043 NA 
HETATM   14  C   UNL     1      -7.312   5.284  73.031  1.00  0.00    -0.091 A  
HETATM   15  H2  UNL     1      -6.710   3.569  73.751  1.00  0.00     0.000 HD 
HETATM   16  N   UNL     1      -6.840   4.519  74.099  1.00  0.00    -0.067 NA 
HETATM   17  N   UNL     1      -6.571   6.388  72.787  1.00  0.00    -0.063 NA 
HETATM   18  H1  UNL     1      -6.013   4.749  74.650  1.00  0.00     0.000 HD 
HETATM   19  C   UNL     1      -6.919   7.189  71.778  1.00  0.00    -0.064 A  
ENDROOT
BRANCH  12  20
HETATM   20  C   UNL     1      -9.370   3.830  72.520  1.00  0.00    -0.164 A  
HETATM   21  C   UNL     1     -10.360   3.914  73.521  1.00  0.00    -0.236 A  
HETATM   22  C   UNL     1     -11.210   2.840  73.809  1.00  0.00    -0.272 A  
HETATM   23  C   UNL     1     -11.095   1.651  73.096  1.00  0.00    -0.259 A  
HETATM   24  C   UNL     1     -10.131   1.537  72.101  1.00  0.00    -0.213 A  
HETATM   25  C   UNL     1      -9.276   2.611  71.824  1.00  0.00    -0.168 A  
ENDBRANCH  12  20
TORSDOF 1
ENDMDL
MODEL      170
REMARK 921   NORMALIZED FREE ENERGY PREDICTED BY IDOCK:   -1.92 KCAL/MOL
REMARK 922        TOTAL FREE ENERGY PREDICTED BY IDOCK:   -2.22 KCAL/MOL
REMARK 923 INTER-LIGAND FREE ENERGY PREDICTED BY IDOCK:   -2.35 KCAL/MOL
REMARK 924 INTRA-LIGAND FREE ENERGY PREDICTED BY IDOCK:    0.14 KCAL/MOL
REMARK 927      BINDING AFFINITY PREDICTED BY RF-SCORE:    0.00 PKD
ROOT
HETATM    1  N   UNL     1      -5.934  16.477  69.102  1.00  0.00    -0.146 NA 
HETATM    2  H1  UNL     1      -6.400  16.892  68.295  1.00  0.00     0.000 HD 
HETATM    3  C   UNL     1      -6.168  15.144  69.360  1.00  0.00    -0.116 A  
HETATM    4  H2  UNL     1      -5.316  17.029  69.697  1.00  0.00     0.000 HD 
HETATM    5  N   UNL     1      -5.561  14.603  70.411  1.00  0.00    -0.129 NA 
HETATM    6  C   UNL     1      -5.777  13.295  70.616  1.00  0.00    -0.176 A  
HETATM    7  N   UNL     1      -5.168  12.762  71.765  1.00  0.00    -0.359 NA 
HETATM    8  C   UNL     1      -6.597  12.503  69.818  1.00  0.00     0.057 A  
HETATM    9  H2  UNL     1      -5.444  13.297  72.589  1.00  0.00     0.000 HD 
HETATM   10  H1  UNL     1      -5.333  11.767  71.922  1.00  0.00     0.000 HD 
HETATM   11  N   UNL     1      -6.778  11.162  70.007  1.00  0.00    -0.136 NA 
HETATM   12  C   UNL     1      -7.596  10.515  69.136  1.00  0.00    -0.123 A  
HETATM   13  N   UNL     1      -7.005  14.500  68.555  1.00  0.00    -0.098 NA 
HETATM   14  C   UNL     1      -8.251  11.245  68.130  1.00  0.00    -0.140 A  
HETATM   15  H2  UNL     1      -9.878  10.226  67.764  1.00  0.00     0.000 HD 
HETATM   16  N   UNL     1      -9.154  10.695  67.219  1.00  0.00    -0.143 NA 
HETATM   17  N   UNL     1      -8.042  12.568  67.954  1.00  0.00    -0.150 NA 
HETATM   18  H1  UNL     1      -9.629  11.225  66.489  1.00  0.00     0.000 HD 
HETATM   19  C   UNL     1      -7.207  13.206  68.777  1.00  0.00    -0.085 A  
ENDROOT
BRANCH  12  20
HETATM   20  C   UNL     1      -7.696   9.050  69.349  1.00  0.00    -0.083 A  
HETATM   21  C   UNL     1      -7.794   8.171  68.250  1.00  0.00    -0.122 A  
HETATM   22  C   UNL     1      -7.936   6.790  68.422  1.00  0.00    -0.115 A  
HETATM   23  C   UNL     1      -7.979   6.247  69.703  1.00  0.00    -0.112 A  
HETATM   24  C   UNL     1      -7.883   7.087  70.807  1.00  0.00    -0.096 A  
HETATM   25  C   UNL     1      -7.752   8.469  70.630  1.00  0.00    -0.081 A  
ENDBRANCH  12  20
TORSDOF 1
ENDMDL
MODEL      171
REMARK 921   NORMALIZED FREE ENERGY PREDICTED BY IDOCK:   -0.72 KCAL/MOL
REMARK 922        TOTAL FREE ENERGY PREDICTED BY IDOCK:   -0.94 KCAL/MOL
REMARK 923 INTER-LIGAND FREE ENERGY PREDICTED BY IDOCK:   -0.70 KCAL/MOL
REMARK 924 INTRA-LIGAND FREE ENERGY PREDICTED BY IDOCK:   -0.24 KCAL/MOL
REMARK 927      BINDING AFFINITY PREDICTED BY RF-SCORE:    0.00 PKD
ROOT
HETATM    1  N   UNL     1     -14.251   6.228  72.526  1.00  0.00    -0.473 NA 
HETATM    2  H1  UNL     1     -14.267   6.346  73.539  1.00  0.00     0.000 HD 
HETATM    3  C   UNL     1     -13.137   6.672  71.848  1.00  0.00    -0.056 A  
HETATM    4  H2  UNL     1     -15.032   5.797  72.032  1.00  0.00     0.000 HD 
HETATM    5  N   UNL     1     -13.116   6.519  70.529  1.00  0.00     0.858 NA 
HETATM    6  C   UNL     1     -12.004   6.926  69.898  1.00  0.00     0.009 A  
HETATM    7  N   UNL     1     -12.031   6.803  68.498  1.00  0.00     0.395 NA 
HETATM    8  C   UNL     1     -10.909   7.501  70.537  1.00  0.00    -0.240 A  
HETATM    9  H2  UNL     1     -12.845   7.286  68.119  1.00  0.00     0.000 HD 
HETATM   10  H1  UNL     1     -11.185   7.112  68.019  1.00  0.00     0.000 HD 
HETATM   11  N   UNL     1      -9.762   7.873  69.895  1.00  0.00    -0.175 NA 
HETATM   12  C   UNL     1      -8.769   8.408  70.653  1.00  0.00    -0.146 A  
HETATM   13  N   UNL     1     -12.174   7.246  72.559  1.00  0.00    -0.057 NA 
HETATM   14  C   UNL     1      -8.978   8.602  72.029  1.00  0.00    -0.216 A  
HETATM   15  H2  UNL     1      -7.816  10.103  72.495  1.00  0.00     0.000 HD 
HETATM   16  N   UNL     1      -8.053   9.192  72.890  1.00  0.00     0.228 NA 
HETATM   17  N   UNL     1     -10.116   8.211  72.643  1.00  0.00    -0.297 NA 
HETATM   18  H1  UNL     1      -8.204   9.333  73.889  1.00  0.00     0.000 HD 
HETATM   19  C   UNL     1     -11.081   7.645  71.915  1.00  0.00    -0.249 A  
ENDROOT
BRANCH  12  20
HETATM   20  C   UNL     1      -7.523   8.724  69.912  1.00  0.00    -0.053 A  
HETATM   21  C   UNL     1      -7.434   9.891  69.125  1.00  0.00    -0.087 A  
HETATM   22  C   UNL     1      -6.290  10.192  68.378  1.00  0.00    -0.049 A  
HETATM   23  C   UNL     1      -5.197   9.331  68.402  1.00  0.00    -0.034 A  
HETATM   24  C   UNL     1      -5.252   8.173  69.170  1.00  0.00    -0.027 A  
HETATM   25  C   UNL     1      -6.403   7.871  69.907  1.00  0.00    -0.030 A  
ENDBRANCH  12  20
TORSDOF 1
ENDMDL
MODEL      172
REMARK 921   NORMALIZED FREE ENERGY PREDICTED BY IDOCK:    9.34 KCAL/MOL
REMARK 922        TOTAL FREE ENERGY PREDICTED BY IDOCK:    9.71 KCAL/MOL
REMARK 923 INTER-LIGAND FREE ENERGY PREDICTED BY IDOCK:    9.56 KCAL/MOL
REMARK 924 INTRA-LIGAND FREE ENERGY PREDICTED BY IDOCK:    0.15 KCAL/MOL
REMARK 927      BINDING AFFINITY PREDICTED BY RF-SCORE:    0.00 PKD
ROOT
HETATM    1  N   UNL     1     -10.872  20.425  70.124  1.00  0.00     0.035 NA 
HETATM    2  H1  UNL     1     -10.137  20.583  70.814  1.00  0.00     0.000 HD 
HETATM    3  C   UNL     1     -10.809  19.270  69.376  1.00  0.00     1.443 A  
HETATM    4  H2  UNL     1     -11.627  21.098  69.992  1.00  0.00     0.000 HD 
HETATM    5  N   UNL     1     -11.766  19.064  68.478  1.00  0.00     2.289 NA 
HETATM    6  C   UNL     1     -11.702  17.913  67.791  1.00  0.00     1.574 A  
HETATM    7  N   UNL     1     -12.694  17.746  66.809  1.00  0.00     6.251 NA 
HETATM    8  C   UNL     1     -10.699  16.960  67.953  1.00  0.00    -0.344 A  
HETATM    9  H2  UNL     1     -12.690  18.539  66.167  1.00  0.00     0.000 HD 
HETATM   10  H1  UNL     1     -12.644  16.872  66.287  1.00  0.00     0.000 HD 
HETATM   11  N   UNL     1     -10.664  15.771  67.282  1.00  0.00    -0.315 NA 
HETATM   12  C   UNL     1      -9.631  14.932  67.556  1.00  0.00    -0.204 A  
HETATM   13  N   UNL     1      -9.782  18.456  69.588  1.00  0.00     0.329 NA 
HETATM   14  C   UNL     1      -8.635  15.334  68.461  1.00  0.00    -0.167 A  
HETATM   15  H2  UNL     1      -7.036  14.365  67.893  1.00  0.00     0.000 HD 
HETATM   16  N   UNL     1      -7.504  14.579  68.774  1.00  0.00    -0.126 NA 
HETATM   17  N   UNL     1      -8.702  16.509  69.125  1.00  0.00    -0.201 NA 
HETATM   18  H1  UNL     1      -6.781  14.871  69.431  1.00  0.00     0.000 HD 
HETATM   19  C   UNL     1      -9.735  17.323  68.895  1.00  0.00    -0.251 A  
ENDROOT
BRANCH  12  20
HETATM   20  C   UNL     1      -9.686  13.628  66.850  1.00  0.00    -0.262 A  
HETATM   21  C   UNL     1     -10.922  12.991  66.617  1.00  0.00    -0.301 A  
HETATM   22  C   UNL     1     -11.002  11.740  65.995  1.00  0.00    -0.355 A  
HETATM   23  C   UNL     1      -9.841  11.091  65.585  1.00  0.00    -0.287 A  
HETATM   24  C   UNL     1      -8.606  11.694  65.798  1.00  0.00     0.131 A  
HETATM   25  C   UNL     1      -8.531  12.941  66.430  1.00  0.00     0.323 A  
ENDBRANCH  12  20
TORSDOF 1
ENDMDL
MODEL      173
REMARK 921   NORMALIZED FREE ENERGY PREDICTED BY IDOCK:   25.71 KCAL/MOL
REMARK 922        TOTAL FREE ENERGY PREDICTED BY IDOCK:   27.04 KCAL/MOL
REMARK 923 INTER-LIGAND FREE ENERGY PREDICTED BY IDOCK:   26.95 KCAL/MOL
REMARK 924 INTRA-LIGAND FREE ENERGY PREDICTED BY IDOCK:    0.09 KCAL/MOL
REMARK 927      BINDING AFFINITY PREDICTED BY RF-SCORE:    0.00 PKD
ROOT
HETATM    1  N   UNL     1      -7.541  15.786  71.959  1.00  0.00     5.774 NA 
HETATM    2  H1  UNL     1      -8.104  16.625  72.099  1.00  0.00     0.000 HD 
HETATM    3  C   UNL     1      -7.677  15.116  70.764  1.00  0.00     1.572 A  
HETATM    4  H2  UNL     1      -6.899  15.454  72.680  1.00  0.00     0.000 HD 
HETATM    5  N   UNL     1      -6.944  14.023  70.581  1.00  0.00     0.541 NA 
HETATM    6  C   UNL     1      -7.068  13.412  69.394  1.00  0.00     0.134 A  
HETATM    7  N   UNL     1      -6.324  12.229  69.249  1.00  0.00    -0.096 NA 
HETATM    8  C   UNL     1      -7.918  13.842  68.378  1.00  0.00    -0.144 A  
HETATM    9  H2  UNL     1      -6.547  11.579  70.003  1.00  0.00     0.000 HD 
HETATM   10  H1  UNL     1      -6.419  11.764  68.346  1.00  0.00     0.000 HD 
HETATM   11  N   UNL     1      -8.007  13.241  67.155  1.00  0.00    -0.119 NA 
HETATM   12  C   UNL     1      -8.870  13.783  66.256  1.00  0.00     0.253 A  
HETATM   13  N   UNL     1      -8.552  15.595  69.887  1.00  0.00     0.049 NA 
HETATM   14  C   UNL     1      -9.657  14.884  66.630  1.00  0.00    -0.266 A  
HETATM   15  H2  UNL     1     -11.255  14.749  65.514  1.00  0.00     0.000 HD 
HETATM   16  N   UNL     1     -10.613  15.485  65.810  1.00  0.00    -0.337 NA 
HETATM   17  N   UNL     1      -9.538  15.471  67.842  1.00  0.00    -0.206 NA 
HETATM   18  H1  UNL     1     -11.184  16.284  66.082  1.00  0.00     0.000 HD 
HETATM   19  C   UNL     1      -8.662  14.973  68.718  1.00  0.00    -0.186 A  
ENDROOT
BRANCH  12  20
HETATM   20  C   UNL     1      -8.870  13.130  64.923  1.00  0.00     2.170 A  
HETATM   21  C   UNL     1      -8.930  13.905  63.746  1.00  0.00     7.164 A  
HETATM   22  C   UNL     1      -8.978  13.316  62.478  1.00  0.00     9.047 A  
HETATM   23  C   UNL     1      -8.963  11.930  62.352  1.00  0.00     1.029 A  
HETATM   24  C   UNL     1      -8.902  11.138  63.493  1.00  0.00     0.015 A  
HETATM   25  C   UNL     1      -8.865  11.732  64.761  1.00  0.00     0.558 A  
ENDBRANCH  12  20
TORSDOF 1
ENDMDL
MODEL      174
REMARK 921   NORMALIZED FREE ENERGY PREDICTED BY IDOCK:   31.48 KCAL/MOL
REMARK 922        TOTAL FREE ENERGY PREDICTED BY IDOCK:   33.14 KCAL/MOL
REMARK 923 INTER-LIGAND FREE ENERGY PREDICTED BY IDOCK:   33.02 KCAL/MOL
REMARK 924 INTRA-LIGAND FREE ENERGY PREDICTED BY IDOCK:    0.12 KCAL/MOL
REMARK 927      BINDING AFFINITY PREDICTED BY RF-SCORE:    0.00 PKD
ROOT
HETATM    1  N   UNL     1     -11.635  14.067  64.521  1.00  0.00    -0.414 NA 
HETATM    2  H1  UNL     1     -11.160  13.167  64.586  1.00  0.00     0.000 HD 
HETATM    3  C   UNL     1     -11.744  14.817  65.671  1.00  0.00    -0.257 A  
HETATM    4  H2  UNL     1     -12.016  14.400  63.636  1.00  0.00     0.000 HD 
HETATM    5  N   UNL     1     -12.362  15.990  65.586  1.00  0.00     1.542 NA 
HETATM    6  C   UNL     1     -12.421  16.717  66.712  1.00  0.00     3.622 A  
HETATM    7  N   UNL     1     -13.128  17.927  66.608  1.00  0.00     8.845 NA 
HETATM    8  C   UNL     1     -11.897  16.307  67.936  1.00  0.00     0.386 A  
HETATM    9  H2  UNL     1     -14.069  17.754  66.253  1.00  0.00     0.000 HD 
HETATM   10  H1  UNL     1     -13.172  18.479  67.464  1.00  0.00     0.000 HD 
HETATM   11  N   UNL     1     -11.921  17.071  69.068  1.00  0.00     0.953 NA 
HETATM   12  C   UNL     1     -11.356  16.544  70.186  1.00  0.00    -0.055 A  
HETATM   13  N   UNL     1     -11.245  14.304  66.789  1.00  0.00    -0.322 NA 
HETATM   14  C   UNL     1     -10.828  15.243  70.147  1.00  0.00    -0.281 A  
HETATM   15  H2  UNL     1     -10.980  14.596  71.985  1.00  0.00     0.000 HD 
HETATM   16  N   UNL     1     -10.276  14.584  71.246  1.00  0.00     1.287 NA 
HETATM   17  N   UNL     1     -10.802  14.515  69.010  1.00  0.00    -0.248 NA 
HETATM   18  H1  UNL     1      -9.893  13.639  71.218  1.00  0.00     0.000 HD 
HETATM   19  C   UNL     1     -11.316  15.038  67.895  1.00  0.00    -0.333 A  
ENDROOT
BRANCH  12  20
HETATM   20  C   UNL     1     -11.349  17.448  71.363  1.00  0.00     1.729 A  
HETATM   21  C   UNL     1     -11.109  18.829  71.204  1.00  0.00     4.165 A  
HETATM   22  C   UNL     1     -11.050  19.698  72.300  1.00  0.00     6.533 A  
HETATM   23  C   UNL     1     -11.234  19.207  73.589  1.00  0.00     4.091 A  
HETATM   24  C   UNL     1     -11.475  17.851  73.779  1.00  0.00     1.078 A  
HETATM   25  C   UNL     1     -11.522  16.984  72.680  1.00  0.00     0.696 A  
ENDBRANCH  12  20
TORSDOF 1
ENDMDL
MODEL      175
REMARK 921   NORMALIZED FREE ENERGY PREDICTED BY IDOCK:   31.53 KCAL/MOL
REMARK 922        TOTAL FREE ENERGY PREDICTED BY IDOCK:   33.20 KCAL/MOL
REMARK 923 INTER-LIGAND FREE ENERGY PREDICTED BY IDOCK:   32.98 KCAL/MOL
REMARK 924 INTRA-LIGAND FREE ENERGY PREDICTED BY IDOCK:    0.21 KCAL/MOL
REMARK 927      BINDING AFFINITY PREDICTED BY RF-SCORE:    0.00 PKD
ROOT
HETATM    1  N   UNL     1     -10.333  19.032  74.471  1.00  0.00     3.511 NA 
HETATM    2  H1  UNL     1      -9.410  19.424  74.656  1.00  0.00     0.000 HD 
HETATM    3  C   UNL     1     -10.466  18.198  73.383  1.00  0.00     4.365 A  
HETATM    4  H2  UNL     1     -11.130  19.250  75.069  1.00  0.00     0.000 HD 
HETATM    5  N   UNL     1     -11.668  17.687  73.140  1.00  0.00     0.929 NA 
HETATM    6  C   UNL     1     -11.762  16.849  72.097  1.00  0.00     0.379 A  
HETATM    7  N   UNL     1     -13.055  16.367  71.831  1.00  0.00     0.007 NA 
HETATM    8  C   UNL     1     -10.696  16.511  71.268  1.00  0.00     1.042 A  
HETATM    9  H2  UNL     1     -13.703  17.146  71.713  1.00  0.00     0.000 HD 
HETATM   10  H1  UNL     1     -13.125  15.729  71.037  1.00  0.00     0.000 HD 
HETATM   11  N   UNL     1     -10.787  15.623  70.234  1.00  0.00    -0.330 NA 
HETATM   12  C   UNL     1      -9.657  15.380  69.520  1.00  0.00    -0.257 A  
HETATM   13  N   UNL     1      -9.389  17.984  72.637  1.00  0.00    11.140 NA 
HETATM   14  C   UNL     1      -8.478  16.076  69.833  1.00  0.00     0.560 A  
HETATM   15  H2  UNL     1      -7.484  16.139  68.152  1.00  0.00     0.000 HD 
HETATM   16  N   UNL     1      -7.278  15.948  69.133  1.00  0.00    -0.184 NA 
HETATM   17  N   UNL     1      -8.410  16.938  70.871  1.00  0.00     4.982 NA 
HETATM   18  H1  UNL     1      -6.422  16.454  69.360  1.00  0.00     0.000 HD 
HETATM   19  C   UNL     1      -9.503  17.153  71.606  1.00  0.00     8.169 A  
ENDROOT
BRANCH  12  20
HETATM   20  C   UNL     1      -9.802  14.354  68.458  1.00  0.00    -0.233 A  
HETATM   21  C   UNL     1      -9.050  14.442  67.268  1.00  0.00    -0.221 A  
HETATM   22  C   UNL     1      -9.200  13.516  66.230  1.00  0.00    -0.070 A  
HETATM   23  C   UNL     1     -10.108  12.468  66.357  1.00  0.00    -0.255 A  
HETATM   24  C   UNL     1     -10.863  12.352  67.518  1.00  0.00    -0.271 A  
HETATM   25  C   UNL     1     -10.717  13.288  68.550  1.00  0.00    -0.280 A  
ENDBRANCH  12  20
TORSDOF 1
ENDMDL
