MODEL        1
REMARK 921   NORMALIZED FREE ENERGY PREDICTED BY IDOCK:   -7.87 KCAL/MOL
REMARK 922        TOTAL FREE ENERGY PREDICTED BY IDOCK:   -8.98 KCAL/MOL
REMARK 923 INTER-LIGAND FREE ENERGY PREDICTED BY IDOCK:   -8.33 KCAL/MOL
REMARK 924 INTRA-LIGAND FREE ENERGY PREDICTED BY IDOCK:   -0.64 KCAL/MOL
REMARK 927      BINDING AFFINITY PREDICTED BY RF-SCORE:    0.00 PKD
ROOT
HETATM    1  C   UNL     1     -10.642  10.989  66.378  1.00  0.00    -0.308 C  
HETATM    2  C   UNL     1     -11.183  12.003  65.443  1.00  0.00    -0.322 A  
HETATM    3  N   UNL     1     -11.429  11.771  64.170  1.00  0.00    -0.346 NA 
HETATM    4  N   UNL     1     -11.731  12.960  63.568  1.00  0.00    -0.514 NA 
HETATM    5  C   UNL     1     -11.667  13.901  64.483  1.00  0.00    -0.410 A  
HETATM    6  C   UNL     1     -11.946  15.341  64.298  1.00  0.00    -0.223 C  
HETATM    7  N   UNL     1     -10.787  16.125  64.687  1.00  0.00    -0.856 NA 
HETATM    8  C   UNL     1     -10.400  16.188  65.914  1.00  0.00    -0.367 C  
HETATM    9  H   UNL     1     -10.268  16.635  63.973  1.00  0.00     0.000 HD 
HETATM   10  C   UNL     1     -11.160  16.073  68.280  1.00  0.00    -0.351 A  
HETATM   11  C   UNL     1     -11.035  15.414  67.042  1.00  0.00    -0.306 A  
HETATM   12  C   UNL     1     -11.385  14.047  66.952  1.00  0.00    -0.329 A  
HETATM   13 CL   UNL     1     -11.607  16.179  70.937  1.00  0.00    -0.434 Cl 
HETATM   14  N   UNL     1     -11.380  13.351  65.711  1.00  0.00    -0.302 NA 
HETATM   15  C   UNL     1     -11.555  15.376  69.419  1.00  0.00    -0.340 A  
HETATM   16  C   UNL     1     -11.817  13.371  68.107  1.00  0.00    -0.396 A  
HETATM   17  C   UNL     1     -11.882  14.030  69.338  1.00  0.00    -0.381 A  
ENDROOT
BRANCH   8  18
HETATM   18  C   UNL     1      -9.220  17.077  66.227  1.00  0.00    -0.278 A  
HETATM   19  C   UNL     1      -6.855  17.241  66.816  1.00  0.00    -0.251 A  
HETATM   20  C   UNL     1      -8.200  19.235  66.695  1.00  0.00    -0.305 A  
HETATM   21  C   UNL     1      -7.960  16.478  66.433  1.00  0.00    -0.352 A  
HETATM   22  C   UNL     1      -6.974  18.619  66.947  1.00  0.00    -0.212 A  
HETATM   23  C   UNL     1      -9.326  18.475  66.346  1.00  0.00    -0.282 A  
HETATM   24 CL   UNL     1     -10.802  19.358  66.163  1.00  0.00    -0.467 Cl 
ENDBRANCH   8  18
TORSDOF 1
ENDMDL
MODEL        2
REMARK 921   NORMALIZED FREE ENERGY PREDICTED BY IDOCK:   -7.69 KCAL/MOL
REMARK 922        TOTAL FREE ENERGY PREDICTED BY IDOCK:   -8.79 KCAL/MOL
REMARK 923 INTER-LIGAND FREE ENERGY PREDICTED BY IDOCK:   -8.15 KCAL/MOL
REMARK 924 INTRA-LIGAND FREE ENERGY PREDICTED BY IDOCK:   -0.63 KCAL/MOL
REMARK 927      BINDING AFFINITY PREDICTED BY RF-SCORE:    0.00 PKD
ROOT
HETATM    1  C   UNL     1     -10.606  17.501  65.497  1.00  0.00    -0.097 C  
HETATM    2  C   UNL     1     -11.156  16.216  65.005  1.00  0.00    -0.294 A  
HETATM    3  N   UNL     1     -12.071  16.121  64.063  1.00  0.00    -0.831 NA 
HETATM    4  N   UNL     1     -12.483  14.821  63.993  1.00  0.00    -0.809 NA 
HETATM    5  C   UNL     1     -11.812  14.139  64.894  1.00  0.00    -0.402 A  
HETATM    6  C   UNL     1     -11.903  12.687  65.160  1.00  0.00    -0.396 C  
HETATM    7  N   UNL     1     -12.259  12.459  66.550  1.00  0.00    -0.528 NA 
HETATM    8  C   UNL     1     -11.448  12.751  67.507  1.00  0.00    -0.336 C  
HETATM    9  H   UNL     1     -13.170  12.060  66.772  1.00  0.00     0.000 HD 
HETATM   10  C   UNL     1      -9.049  12.982  68.122  1.00  0.00    -0.204 A  
HETATM   11  C   UNL     1     -10.111  13.421  67.308  1.00  0.00    -0.238 A  
HETATM   12  C   UNL     1      -9.911  14.529  66.453  1.00  0.00    -0.292 A  
HETATM   13 CL   UNL     1      -6.591  13.175  69.214  1.00  0.00    -0.107 Cl 
HETATM   14  N   UNL     1     -10.907  14.956  65.532  1.00  0.00    -0.335 NA 
HETATM   15  C   UNL     1      -7.839  13.670  68.141  1.00  0.00    -0.143 A  
HETATM   16  C   UNL     1      -8.668  15.186  66.461  1.00  0.00    -0.280 A  
HETATM   17  C   UNL     1      -7.644  14.770  67.317  1.00  0.00    -0.195 A  
ENDROOT
BRANCH   8  18
HETATM   18  C   UNL     1     -11.885  12.422  68.914  1.00  0.00    -0.350 A  
HETATM   19  C   UNL     1     -12.498  10.703  70.538  1.00  0.00    -0.445 A  
HETATM   20  C   UNL     1     -12.649  13.030  71.142  1.00  0.00    -0.388 A  
HETATM   21  C   UNL     1     -12.010  11.066  69.281  1.00  0.00    -0.410 A  
HETATM   22  C   UNL     1     -12.818  11.685  71.469  1.00  0.00    -0.469 A  
HETATM   23  C   UNL     1     -12.195  13.407  69.870  1.00  0.00    -0.271 A  
HETATM   24 CL   UNL     1     -12.130  15.109  69.568  1.00  0.00    -0.332 Cl 
ENDBRANCH   8  18
TORSDOF 1
ENDMDL
MODEL        3
REMARK 921   NORMALIZED FREE ENERGY PREDICTED BY IDOCK:   -7.69 KCAL/MOL
REMARK 922        TOTAL FREE ENERGY PREDICTED BY IDOCK:   -8.79 KCAL/MOL
REMARK 923 INTER-LIGAND FREE ENERGY PREDICTED BY IDOCK:   -8.15 KCAL/MOL
REMARK 924 INTRA-LIGAND FREE ENERGY PREDICTED BY IDOCK:   -0.64 KCAL/MOL
REMARK 927      BINDING AFFINITY PREDICTED BY RF-SCORE:    0.00 PKD
ROOT
HETATM    1  C   UNL     1     -11.180  10.646  69.709  1.00  0.00    -0.363 C  
HETATM    2  C   UNL     1     -11.577  11.480  68.550  1.00  0.00    -0.313 A  
HETATM    3  N   UNL     1     -11.751  11.010  67.333  1.00  0.00    -0.500 NA 
HETATM    4  N   UNL     1     -11.920  12.067  66.485  1.00  0.00    -0.601 NA 
HETATM    5  C   UNL     1     -11.848  13.168  67.197  1.00  0.00    -0.369 A  
HETATM    6  C   UNL     1     -12.005  14.556  66.709  1.00  0.00    -0.342 C  
HETATM    7  N   UNL     1     -10.819  15.331  67.030  1.00  0.00    -0.318 NA 
HETATM    8  C   UNL     1     -10.515  15.619  68.248  1.00  0.00    -0.252 C  
HETATM    9  H   UNL     1     -10.215  15.654  66.275  1.00  0.00     0.000 HD 
HETATM   10  C   UNL     1     -11.444  16.032  70.519  1.00  0.00    -0.409 A  
HETATM   11  C   UNL     1     -11.283  15.129  69.450  1.00  0.00    -0.293 A  
HETATM   12  C   UNL     1     -11.728  13.796  69.603  1.00  0.00    -0.318 A  
HETATM   13 CL   UNL     1     -12.064  16.702  73.056  1.00  0.00    -0.478 Cl 
HETATM   14  N   UNL     1     -11.690  12.863  68.530  1.00  0.00    -0.320 NA 
HETATM   15  C   UNL     1     -11.968  15.605  71.736  1.00  0.00    -0.440 A  
HETATM   16  C   UNL     1     -12.289  13.395  70.829  1.00  0.00    -0.433 A  
HETATM   17  C   UNL     1     -12.389  14.293  71.896  1.00  0.00    -0.329 A  
ENDROOT
BRANCH   8  18
HETATM   18  C   UNL     1      -9.296  16.480  68.476  1.00  0.00    -0.229 A  
HETATM   19  C   UNL     1      -6.993  16.632  69.275  1.00  0.00    -0.225 A  
HETATM   20  C   UNL     1      -8.137  18.618  68.537  1.00  0.00    -0.370 A  
HETATM   21  C   UNL     1      -8.120  15.871  68.959  1.00  0.00    -0.229 A  
HETATM   22  C   UNL     1      -7.001  18.006  69.065  1.00  0.00    -0.252 A  
HETATM   23  C   UNL     1      -9.288  17.869  68.251  1.00  0.00    -0.286 A  
HETATM   24 CL   UNL     1     -10.655  18.773  67.699  1.00  0.00    -0.478 Cl 
ENDBRANCH   8  18
TORSDOF 1
ENDMDL
MODEL        4
REMARK 921   NORMALIZED FREE ENERGY PREDICTED BY IDOCK:   -7.55 KCAL/MOL
REMARK 922        TOTAL FREE ENERGY PREDICTED BY IDOCK:   -8.63 KCAL/MOL
REMARK 923 INTER-LIGAND FREE ENERGY PREDICTED BY IDOCK:   -7.99 KCAL/MOL
REMARK 924 INTRA-LIGAND FREE ENERGY PREDICTED BY IDOCK:   -0.64 KCAL/MOL
REMARK 927      BINDING AFFINITY PREDICTED BY RF-SCORE:    0.00 PKD
ROOT
HETATM    1  C   UNL     1      -9.065  11.257  66.638  1.00  0.00    -0.187 C  
HETATM    2  C   UNL     1      -9.862  12.013  65.644  1.00  0.00    -0.243 A  
HETATM    3  N   UNL     1      -9.927  11.702  64.366  1.00  0.00    -0.258 NA 
HETATM    4  N   UNL     1     -10.584  12.707  63.713  1.00  0.00    -0.422 NA 
HETATM    5  C   UNL     1     -10.912  13.616  64.603  1.00  0.00    -0.396 A  
HETATM    6  C   UNL     1     -11.663  14.867  64.361  1.00  0.00    -0.328 C  
HETATM    7  N   UNL     1     -10.878  16.009  64.796  1.00  0.00    -0.765 NA 
HETATM    8  C   UNL     1     -10.619  16.210  66.042  1.00  0.00    -0.295 C  
HETATM    9  H   UNL     1     -10.523  16.664  64.101  1.00  0.00     0.000 HD 
HETATM   10  C   UNL     1     -11.447  15.851  68.360  1.00  0.00    -0.348 A  
HETATM   11  C   UNL     1     -11.018  15.269  67.151  1.00  0.00    -0.331 A  
HETATM   12  C   UNL     1     -10.863  13.866  67.079  1.00  0.00    -0.285 A  
HETATM   13 CL   UNL     1     -12.077  15.809  70.982  1.00  0.00    -0.428 Cl 
HETATM   14  N   UNL     1     -10.534  13.208  65.862  1.00  0.00    -0.275 NA 
HETATM   15  C   UNL     1     -11.648  15.066  69.492  1.00  0.00    -0.311 A  
HETATM   16  C   UNL     1     -11.108  13.088  68.225  1.00  0.00    -0.293 A  
HETATM   17  C   UNL     1     -11.479  13.689  69.431  1.00  0.00    -0.343 A  
ENDROOT
BRANCH   8  18
HETATM   18  C   UNL     1      -9.847  17.457  66.400  1.00  0.00    -0.311 A  
HETATM   19  C   UNL     1      -9.822  19.893  66.577  1.00  0.00    -0.567 A  
HETATM   20  C   UNL     1      -7.816  18.640  67.028  1.00  0.00    -0.242 A  
HETATM   21  C   UNL     1     -10.510  18.700  66.347  1.00  0.00    -0.463 A  
HETATM   22  C   UNL     1      -8.475  19.864  66.917  1.00  0.00    -0.379 A  
HETATM   23  C   UNL     1      -8.487  17.437  66.763  1.00  0.00    -0.254 A  
HETATM   24 CL   UNL     1      -7.522  16.005  66.838  1.00  0.00    -0.263 Cl 
ENDBRANCH   8  18
TORSDOF 1
ENDMDL
MODEL        5
REMARK 921   NORMALIZED FREE ENERGY PREDICTED BY IDOCK:   -7.40 KCAL/MOL
REMARK 922        TOTAL FREE ENERGY PREDICTED BY IDOCK:   -8.47 KCAL/MOL
REMARK 923 INTER-LIGAND FREE ENERGY PREDICTED BY IDOCK:   -7.87 KCAL/MOL
REMARK 924 INTRA-LIGAND FREE ENERGY PREDICTED BY IDOCK:   -0.60 KCAL/MOL
REMARK 927      BINDING AFFINITY PREDICTED BY RF-SCORE:    0.00 PKD
ROOT
HETATM    1  C   UNL     1      -9.997  19.170  66.821  1.00  0.00    -0.432 C  
HETATM    2  C   UNL     1     -10.309  18.006  65.961  1.00  0.00    -0.331 A  
HETATM    3  N   UNL     1     -11.013  18.081  64.850  1.00  0.00    -0.524 NA 
HETATM    4  N   UNL     1     -11.270  16.811  64.418  1.00  0.00    -1.107 NA 
HETATM    5  C   UNL     1     -10.719  15.978  65.271  1.00  0.00    -0.399 A  
HETATM    6  C   UNL     1     -10.712  14.500  65.194  1.00  0.00    -0.406 C  
HETATM    7  N   UNL     1     -11.304  13.939  66.396  1.00  0.00    -0.319 NA 
HETATM    8  C   UNL     1     -10.725  14.046  67.542  1.00  0.00    -0.268 C  
HETATM    9  H   UNL     1     -12.196  13.450  66.331  1.00  0.00     0.000 HD 
HETATM   10  C   UNL     1      -8.524  14.260  68.681  1.00  0.00    -0.142 A  
HETATM   11  C   UNL     1      -9.449  14.816  67.776  1.00  0.00    -0.204 A  
HETATM   12  C   UNL     1      -9.202  16.100  67.241  1.00  0.00    -0.208 A  
HETATM   13 CL   UNL     1      -6.353  14.330  70.279  1.00  0.00    -0.162 Cl 
HETATM   14  N   UNL     1     -10.041  16.674  66.245  1.00  0.00    -0.313 NA 
HETATM   15  C   UNL     1      -7.416  14.991  69.101  1.00  0.00    -0.169 A  
HETATM   16  C   UNL     1      -8.056  16.806  67.650  1.00  0.00    -0.188 A  
HETATM   17  C   UNL     1      -7.179  16.260  68.591  1.00  0.00    -0.166 A  
ENDROOT
BRANCH   8  18
HETATM   18  C   UNL     1     -11.388  13.377  68.722  1.00  0.00    -0.332 A  
HETATM   19  C   UNL     1     -12.498  13.626  70.884  1.00  0.00    -0.448 A  
HETATM   20  C   UNL     1     -12.028  11.425  70.025  1.00  0.00    -0.442 A  
HETATM   21  C   UNL     1     -11.955  14.188  69.727  1.00  0.00    -0.396 A  
HETATM   22  C   UNL     1     -12.535  12.245  71.034  1.00  0.00    -0.361 A  
HETATM   23  C   UNL     1     -11.446  11.979  68.876  1.00  0.00    -0.301 A  
HETATM   24 CL   UNL     1     -10.768  10.849  67.757  1.00  0.00    -0.255 Cl 
ENDBRANCH   8  18
TORSDOF 1
ENDMDL
MODEL        6
REMARK 921   NORMALIZED FREE ENERGY PREDICTED BY IDOCK:   -7.33 KCAL/MOL
REMARK 922        TOTAL FREE ENERGY PREDICTED BY IDOCK:   -8.41 KCAL/MOL
REMARK 923 INTER-LIGAND FREE ENERGY PREDICTED BY IDOCK:   -7.76 KCAL/MOL
REMARK 924 INTRA-LIGAND FREE ENERGY PREDICTED BY IDOCK:   -0.64 KCAL/MOL
REMARK 927      BINDING AFFINITY PREDICTED BY RF-SCORE:    0.00 PKD
ROOT
HETATM    1  C   UNL     1     -10.550  10.482  69.318  1.00  0.00    -0.265 C  
HETATM    2  C   UNL     1     -11.134  11.223  68.176  1.00  0.00    -0.259 A  
HETATM    3  N   UNL     1     -11.202  10.748  66.950  1.00  0.00    -0.267 NA 
HETATM    4  N   UNL     1     -11.614  11.753  66.122  1.00  0.00    -0.435 NA 
HETATM    5  C   UNL     1     -11.792  12.829  66.855  1.00  0.00    -0.371 A  
HETATM    6  C   UNL     1     -12.266  14.152  66.393  1.00  0.00    -0.446 C  
HETATM    7  N   UNL     1     -11.288  15.172  66.728  1.00  0.00    -0.296 NA 
HETATM    8  C   UNL     1     -11.051  15.500  67.950  1.00  0.00    -0.321 C  
HETATM    9  H   UNL     1     -10.778  15.639  65.978  1.00  0.00     0.000 HD 
HETATM   10  C   UNL     1     -12.037  15.649  70.229  1.00  0.00    -0.413 A  
HETATM   11  C   UNL     1     -11.680  14.825  69.144  1.00  0.00    -0.344 A  
HETATM   12  C   UNL     1     -11.806  13.423  69.272  1.00  0.00    -0.334 A  
HETATM   13 CL   UNL     1     -12.781  16.112  72.779  1.00  0.00    -0.512 Cl 
HETATM   14  N   UNL     1     -11.561  12.544  68.181  1.00  0.00    -0.319 NA 
HETATM   15  C   UNL     1     -12.442  15.091  71.439  1.00  0.00    -0.329 A  
HETATM   16  C   UNL     1     -12.254  12.883  70.491  1.00  0.00    -0.395 A  
HETATM   17  C   UNL     1     -12.551  13.714  71.575  1.00  0.00    -0.385 A  
ENDROOT
BRANCH   8  18
HETATM   18  C   UNL     1     -10.061  16.614  68.193  1.00  0.00    -0.267 A  
HETATM   19  C   UNL     1      -9.555  18.999  68.040  1.00  0.00    -0.383 A  
HETATM   20  C   UNL     1      -7.865  17.463  68.806  1.00  0.00    -0.250 A  
HETATM   21  C   UNL     1     -10.457  17.940  67.922  1.00  0.00    -0.404 A  
HETATM   22  C   UNL     1      -8.259  18.761  68.481  1.00  0.00    -0.379 A  
HETATM   23  C   UNL     1      -8.751  16.387  68.656  1.00  0.00    -0.234 A  
HETATM   24 CL   UNL     1      -8.099  14.822  68.997  1.00  0.00    -0.156 Cl 
ENDBRANCH   8  18
TORSDOF 1
ENDMDL
MODEL        7
REMARK 921   NORMALIZED FREE ENERGY PREDICTED BY IDOCK:   -7.31 KCAL/MOL
REMARK 922        TOTAL FREE ENERGY PREDICTED BY IDOCK:   -8.38 KCAL/MOL
REMARK 923 INTER-LIGAND FREE ENERGY PREDICTED BY IDOCK:   -7.73 KCAL/MOL
REMARK 924 INTRA-LIGAND FREE ENERGY PREDICTED BY IDOCK:   -0.65 KCAL/MOL
REMARK 927      BINDING AFFINITY PREDICTED BY RF-SCORE:    0.00 PKD
ROOT
HETATM    1  C   UNL     1     -10.105  19.513  67.180  1.00  0.00    -0.515 C  
HETATM    2  C   UNL     1     -10.303  18.363  66.266  1.00  0.00    -0.415 A  
HETATM    3  N   UNL     1     -10.986  18.426  65.142  1.00  0.00    -0.453 NA 
HETATM    4  N   UNL     1     -11.129  17.159  64.655  1.00  0.00    -1.007 NA 
HETATM    5  C   UNL     1     -10.530  16.338  65.488  1.00  0.00    -0.362 A  
HETATM    6  C   UNL     1     -10.400  14.871  65.353  1.00  0.00    -0.388 C  
HETATM    7  N   UNL     1     -10.969  14.214  66.517  1.00  0.00    -0.305 NA 
HETATM    8  C   UNL     1     -10.425  14.321  67.680  1.00  0.00    -0.248 C  
HETATM    9  H   UNL     1     -11.816  13.657  66.411  1.00  0.00     0.000 HD 
HETATM   10  C   UNL     1      -8.274  14.666  68.880  1.00  0.00    -0.145 A  
HETATM   11  C   UNL     1      -9.222  15.181  67.976  1.00  0.00    -0.185 A  
HETATM   12  C   UNL     1      -9.070  16.503  67.497  1.00  0.00    -0.197 A  
HETATM   13 CL   UNL     1      -6.151  14.846  70.533  1.00  0.00    -0.143 Cl 
HETATM   14  N   UNL     1      -9.932  17.046  66.505  1.00  0.00    -0.297 NA 
HETATM   15  C   UNL     1      -7.239  15.466  69.356  1.00  0.00    -0.203 A  
HETATM   16  C   UNL     1      -7.995  17.281  67.962  1.00  0.00    -0.215 A  
HETATM   17  C   UNL     1      -7.096  16.770  68.902  1.00  0.00    -0.215 A  
ENDROOT
BRANCH   8  18
HETATM   18  C   UNL     1     -11.056  13.552  68.816  1.00  0.00    -0.298 A  
HETATM   19  C   UNL     1     -11.568  11.379  69.808  1.00  0.00    -0.407 A  
HETATM   20  C   UNL     1     -12.394  13.392  70.842  1.00  0.00    -0.436 A  
HETATM   21  C   UNL     1     -10.928  12.148  68.834  1.00  0.00    -0.269 A  
HETATM   22  C   UNL     1     -12.301  12.000  70.812  1.00  0.00    -0.403 A  
HETATM   23  C   UNL     1     -11.787  14.172  69.847  1.00  0.00    -0.325 A  
HETATM   24 CL   UNL     1     -12.069  15.875  69.951  1.00  0.00    -0.303 Cl 
ENDBRANCH   8  18
TORSDOF 1
ENDMDL
MODEL        8
REMARK 921   NORMALIZED FREE ENERGY PREDICTED BY IDOCK:   -7.28 KCAL/MOL
REMARK 922        TOTAL FREE ENERGY PREDICTED BY IDOCK:   -8.34 KCAL/MOL
REMARK 923 INTER-LIGAND FREE ENERGY PREDICTED BY IDOCK:   -7.71 KCAL/MOL
REMARK 924 INTRA-LIGAND FREE ENERGY PREDICTED BY IDOCK:   -0.63 KCAL/MOL
REMARK 927      BINDING AFFINITY PREDICTED BY RF-SCORE:    0.00 PKD
ROOT
HETATM    1  C   UNL     1     -10.675  17.679  65.467  1.00  0.00    -0.037 C  
HETATM    2  C   UNL     1     -11.155  16.379  64.943  1.00  0.00    -0.239 A  
HETATM    3  N   UNL     1     -12.039  16.259  63.975  1.00  0.00    -0.823 NA 
HETATM    4  N   UNL     1     -12.392  14.943  63.877  1.00  0.00    -0.711 NA 
HETATM    5  C   UNL     1     -11.716  14.278  64.787  1.00  0.00    -0.415 A  
HETATM    6  C   UNL     1     -11.751  12.819  65.031  1.00  0.00    -0.354 C  
HETATM    7  N   UNL     1     -12.134  12.557  66.408  1.00  0.00    -0.597 NA 
HETATM    8  C   UNL     1     -11.363  12.870  67.391  1.00  0.00    -0.309 C  
HETATM    9  H   UNL     1     -13.033  12.115  66.599  1.00  0.00     0.000 HD 
HETATM   10  C   UNL     1      -8.995  13.195  68.075  1.00  0.00    -0.195 A  
HETATM   11  C   UNL     1     -10.052  13.599  67.238  1.00  0.00    -0.239 A  
HETATM   12  C   UNL     1      -9.877  14.727  66.403  1.00  0.00    -0.280 A  
HETATM   13 CL   UNL     1      -6.578  13.478  69.238  1.00  0.00    -0.110 Cl 
HETATM   14  N   UNL     1     -10.866  15.124  65.461  1.00  0.00    -0.343 NA 
HETATM   15  C   UNL     1      -7.816  13.935  68.137  1.00  0.00    -0.147 A  
HETATM   16  C   UNL     1      -8.665  15.437  66.454  1.00  0.00    -0.307 A  
HETATM   17  C   UNL     1      -7.648  15.053  67.333  1.00  0.00    -0.233 A  
ENDROOT
BRANCH   8  18
HETATM   18  C   UNL     1     -11.824  12.502  68.781  1.00  0.00    -0.347 A  
HETATM   19  C   UNL     1     -12.620  13.259  70.963  1.00  0.00    -0.408 A  
HETATM   20  C   UNL     1     -12.194  10.918  70.590  1.00  0.00    -0.472 A  
HETATM   21  C   UNL     1     -12.271  13.529  69.638  1.00  0.00    -0.304 A  
HETATM   22  C   UNL     1     -12.581  11.954  71.439  1.00  0.00    -0.346 A  
HETATM   23  C   UNL     1     -11.805  11.182  69.269  1.00  0.00    -0.352 A  
HETATM   24 CL   UNL     1     -11.252   9.818  68.361  1.00  0.00    -0.147 Cl 
ENDBRANCH   8  18
TORSDOF 1
ENDMDL
MODEL        9
REMARK 921   NORMALIZED FREE ENERGY PREDICTED BY IDOCK:   -7.24 KCAL/MOL
REMARK 922        TOTAL FREE ENERGY PREDICTED BY IDOCK:   -8.31 KCAL/MOL
REMARK 923 INTER-LIGAND FREE ENERGY PREDICTED BY IDOCK:   -7.67 KCAL/MOL
REMARK 924 INTRA-LIGAND FREE ENERGY PREDICTED BY IDOCK:   -0.64 KCAL/MOL
REMARK 927      BINDING AFFINITY PREDICTED BY RF-SCORE:    0.00 PKD
ROOT
HETATM    1  C   UNL     1      -9.861  10.454  66.329  1.00  0.00    -0.272 C  
HETATM    2  C   UNL     1     -10.582  11.292  65.343  1.00  0.00    -0.250 A  
HETATM    3  N   UNL     1     -10.665  11.008  64.060  1.00  0.00    -0.347 NA 
HETATM    4  N   UNL     1     -11.227  12.076  63.420  1.00  0.00    -0.414 NA 
HETATM    5  C   UNL     1     -11.481  12.996  64.322  1.00  0.00    -0.381 A  
HETATM    6  C   UNL     1     -12.119  14.312  64.097  1.00  0.00    -0.393 C  
HETATM    7  N   UNL     1     -11.240  15.374  64.555  1.00  0.00    -0.685 NA 
HETATM    8  C   UNL     1     -10.973  15.532  65.805  1.00  0.00    -0.283 C  
HETATM    9  H   UNL     1     -10.824  16.006  63.872  1.00  0.00     0.000 HD 
HETATM   10  C   UNL     1     -11.844  15.210  68.112  1.00  0.00    -0.252 A  
HETATM   11  C   UNL     1     -11.460  14.612  66.897  1.00  0.00    -0.372 A  
HETATM   12  C   UNL     1     -11.427  13.202  66.803  1.00  0.00    -0.343 A  
HETATM   13 CL   UNL     1     -12.494  15.182  70.730  1.00  0.00    -0.389 Cl 
HETATM   14  N   UNL     1     -11.149  12.537  65.576  1.00  0.00    -0.291 NA 
HETATM   15  C   UNL     1     -12.121  14.428  69.231  1.00  0.00    -0.299 A  
HETATM   16  C   UNL     1     -11.747  12.431  67.934  1.00  0.00    -0.421 A  
HETATM   17  C   UNL     1     -12.072  13.043  69.148  1.00  0.00    -0.234 A  
ENDROOT
BRANCH   8  18
HETATM   18  C   UNL     1     -10.097  16.701  66.187  1.00  0.00    -0.361 A  
HETATM   19  C   UNL     1      -9.803  19.125  66.263  1.00  0.00    -0.437 A  
HETATM   20  C   UNL     1      -8.012  17.679  66.970  1.00  0.00    -0.242 A  
HETATM   21  C   UNL     1     -10.601  18.007  66.013  1.00  0.00    -0.258 A  
HETATM   22  C   UNL     1      -8.508  18.962  66.740  1.00  0.00    -0.304 A  
HETATM   23  C   UNL     1      -8.791  16.548  66.688  1.00  0.00    -0.256 A  
HETATM   24 CL   UNL     1      -8.014  15.021  66.923  1.00  0.00    -0.188 Cl 
ENDBRANCH   8  18
TORSDOF 1
ENDMDL
MODEL       10
REMARK 921   NORMALIZED FREE ENERGY PREDICTED BY IDOCK:   -7.08 KCAL/MOL
REMARK 922        TOTAL FREE ENERGY PREDICTED BY IDOCK:   -8.14 KCAL/MOL
REMARK 923 INTER-LIGAND FREE ENERGY PREDICTED BY IDOCK:   -7.89 KCAL/MOL
REMARK 924 INTRA-LIGAND FREE ENERGY PREDICTED BY IDOCK:   -0.25 KCAL/MOL
REMARK 927      BINDING AFFINITY PREDICTED BY RF-SCORE:    0.00 PKD
ROOT
HETATM    1  C   UNL     1     -11.614  16.256  64.212  1.00  0.00     0.033 C  
HETATM    2  C   UNL     1     -11.800  14.821  64.534  1.00  0.00    -0.419 A  
HETATM    3  N   UNL     1     -12.530  13.995  63.815  1.00  0.00    -0.796 NA 
HETATM    4  N   UNL     1     -12.639  12.816  64.494  1.00  0.00    -0.659 NA 
HETATM    5  C   UNL     1     -11.972  12.937  65.619  1.00  0.00    -0.440 A  
HETATM    6  C   UNL     1     -11.785  11.903  66.660  1.00  0.00    -0.186 C  
HETATM    7  N   UNL     1     -12.277  12.390  67.937  1.00  0.00    -0.296 NA 
HETATM    8  C   UNL     1     -11.692  13.355  68.558  1.00  0.00    -0.357 C  
HETATM    9  H   UNL     1     -13.103  11.959  68.350  1.00  0.00     0.000 HD 
HETATM   10  C   UNL     1      -9.511  14.492  68.924  1.00  0.00    -0.144 A  
HETATM   11  C   UNL     1     -10.516  14.123  68.009  1.00  0.00    -0.240 A  
HETATM   12  C   UNL     1     -10.439  14.590  66.677  1.00  0.00    -0.274 A  
HETATM   13 CL   UNL     1      -7.331  15.875  69.704  1.00  0.00    -0.156 Cl 
HETATM   14  N   UNL     1     -11.363  14.170  65.680  1.00  0.00    -0.313 NA 
HETATM   15  C   UNL     1      -8.492  15.362  68.545  1.00  0.00    -0.163 A  
HETATM   16  C   UNL     1      -9.380  15.437  66.306  1.00  0.00    -0.351 A  
HETATM   17  C   UNL     1      -8.423  15.837  67.243  1.00  0.00    -0.212 A  
ENDROOT
BRANCH   8  18
HETATM   18  C   UNL     1     -12.243  13.749  69.907  1.00  0.00    -0.383 A  
HETATM   19  C   UNL     1     -12.927  15.545  71.415  1.00  0.00    -0.553 A  
HETATM   20  C   UNL     1     -12.943  13.263  72.185  1.00  0.00    -0.395 A  
HETATM   21  C   UNL     1     -12.505  15.112  70.156  1.00  0.00    -0.361 A  
HETATM   22  C   UNL     1     -13.146  14.621  72.430  1.00  0.00    -0.472 A  
HETATM   23  C   UNL     1     -12.484  12.821  70.936  1.00  0.00    -0.283 A  
HETATM   24 CL   UNL     1     -12.180  11.123  70.806  1.00  0.00    -0.468 Cl 
ENDBRANCH   8  18
TORSDOF 1
ENDMDL
MODEL       11
REMARK 921   NORMALIZED FREE ENERGY PREDICTED BY IDOCK:   -6.92 KCAL/MOL
REMARK 922        TOTAL FREE ENERGY PREDICTED BY IDOCK:   -7.97 KCAL/MOL
REMARK 923 INTER-LIGAND FREE ENERGY PREDICTED BY IDOCK:   -7.41 KCAL/MOL
REMARK 924 INTRA-LIGAND FREE ENERGY PREDICTED BY IDOCK:   -0.56 KCAL/MOL
REMARK 927      BINDING AFFINITY PREDICTED BY RF-SCORE:    0.00 PKD
ROOT
HETATM    1  C   UNL     1      -8.331  16.845  66.088  1.00  0.00    -0.286 C  
HETATM    2  C   UNL     1      -9.339  16.987  67.166  1.00  0.00    -0.236 A  
HETATM    3  N   UNL     1      -9.290  17.914  68.099  1.00  0.00    -0.277 NA 
HETATM    4  N   UNL     1     -10.252  17.639  69.028  1.00  0.00    -0.358 NA 
HETATM    5  C   UNL     1     -10.876  16.547  68.648  1.00  0.00    -0.345 A  
HETATM    6  C   UNL     1     -12.014  15.889  69.328  1.00  0.00    -0.242 C  
HETATM    7  N   UNL     1     -11.672  14.514  69.646  1.00  0.00    -0.289 NA 
HETATM    8  C   UNL     1     -11.502  13.633  68.721  1.00  0.00    -0.309 C  
HETATM    9  H   UNL     1     -11.565  14.240  70.622  1.00  0.00     0.000 HD 
HETATM   10  C   UNL     1     -12.158  12.974  66.415  1.00  0.00    -0.428 A  
HETATM   11  C   UNL     1     -11.552  13.937  67.245  1.00  0.00    -0.393 A  
HETATM   12  C   UNL     1     -10.921  15.056  66.655  1.00  0.00    -0.325 A  
HETATM   13 CL   UNL     1     -12.740  11.845  64.036  1.00  0.00    -0.432 Cl 
HETATM   14  N   UNL     1     -10.383  16.114  67.438  1.00  0.00    -0.288 NA 
HETATM   15  C   UNL     1     -12.077  13.081  65.028  1.00  0.00    -0.427 A  
HETATM   16  C   UNL     1     -10.884  15.163  65.253  1.00  0.00    -0.414 A  
HETATM   17  C   UNL     1     -11.443  14.169  64.445  1.00  0.00    -0.344 A  
ENDROOT
BRANCH   8  18
HETATM   18  C   UNL     1     -11.209  12.217  69.155  1.00  0.00    -0.303 A  
HETATM   19  C   UNL     1     -11.896  10.272  70.463  1.00  0.00    -0.419 A  
HETATM   20  C   UNL     1      -9.790  10.246  69.296  1.00  0.00    -0.244 A  
HETATM   21  C   UNL     1     -12.156  11.548  69.958  1.00  0.00    -0.408 A  
HETATM   22  C   UNL     1     -10.714   9.621  70.133  1.00  0.00    -0.321 A  
HETATM   23  C   UNL     1     -10.023  11.541  68.812  1.00  0.00    -0.157 A  
HETATM   24 CL   UNL     1      -8.748  12.232  67.870  1.00  0.00    -0.169 Cl 
ENDBRANCH   8  18
TORSDOF 1
ENDMDL
MODEL       12
REMARK 921   NORMALIZED FREE ENERGY PREDICTED BY IDOCK:   -6.79 KCAL/MOL
REMARK 922        TOTAL FREE ENERGY PREDICTED BY IDOCK:   -7.83 KCAL/MOL
REMARK 923 INTER-LIGAND FREE ENERGY PREDICTED BY IDOCK:   -7.33 KCAL/MOL
REMARK 924 INTRA-LIGAND FREE ENERGY PREDICTED BY IDOCK:   -0.51 KCAL/MOL
REMARK 927      BINDING AFFINITY PREDICTED BY RF-SCORE:    0.00 PKD
ROOT
HETATM    1  C   UNL     1      -9.128  17.242  66.530  1.00  0.00    -0.289 C  
HETATM    2  C   UNL     1      -9.999  16.247  65.861  1.00  0.00    -0.339 A  
HETATM    3  N   UNL     1     -10.882  16.551  64.933  1.00  0.00    -0.702 NA 
HETATM    4  N   UNL     1     -11.635  15.441  64.677  1.00  0.00    -0.369 NA 
HETATM    5  C   UNL     1     -11.201  14.474  65.453  1.00  0.00    -0.342 A  
HETATM    6  C   UNL     1     -11.696  13.081  65.500  1.00  0.00    -0.368 C  
HETATM    7  N   UNL     1     -12.134  12.756  66.846  1.00  0.00    -0.468 NA 
HETATM    8  C   UNL     1     -11.298  12.667  67.821  1.00  0.00    -0.297 C  
HETATM    9  H   UNL     1     -13.126  12.596  67.023  1.00  0.00     0.000 HD 
HETATM   10  C   UNL     1      -8.944  12.130  68.420  1.00  0.00    -0.146 A  
HETATM   11  C   UNL     1      -9.824  12.961  67.700  1.00  0.00    -0.211 A  
HETATM   12  C   UNL     1      -9.305  14.085  67.018  1.00  0.00    -0.250 A  
HETATM   13 CL   UNL     1      -6.555  11.469  69.483  1.00  0.00    -0.119 Cl 
HETATM   14  N   UNL     1     -10.121  14.904  66.189  1.00  0.00    -0.282 NA 
HETATM   15  C   UNL     1      -7.592  12.445  68.520  1.00  0.00    -0.122 A  
HETATM   16  C   UNL     1      -7.929  14.364  67.101  1.00  0.00    -0.147 A  
HETATM   17  C   UNL     1      -7.081  13.558  67.866  1.00  0.00    -0.140 A  
ENDROOT
BRANCH   8  18
HETATM   18  C   UNL     1     -11.842  12.265  69.171  1.00  0.00    -0.355 A  
HETATM   19  C   UNL     1     -12.525  10.461  70.671  1.00  0.00    -0.437 A  
HETATM   20  C   UNL     1     -12.823  12.755  71.343  1.00  0.00    -0.371 A  
HETATM   21  C   UNL     1     -11.944  10.892  69.476  1.00  0.00    -0.401 A  
HETATM   22  C   UNL     1     -12.965  11.392  71.604  1.00  0.00    -0.523 A  
HETATM   23  C   UNL     1     -12.275  13.199  70.131  1.00  0.00    -0.290 A  
HETATM   24 CL   UNL     1     -12.254  14.913  69.898  1.00  0.00    -0.358 Cl 
ENDBRANCH   8  18
TORSDOF 1
ENDMDL
MODEL       13
REMARK 921   NORMALIZED FREE ENERGY PREDICTED BY IDOCK:   -6.76 KCAL/MOL
REMARK 922        TOTAL FREE ENERGY PREDICTED BY IDOCK:   -7.80 KCAL/MOL
REMARK 923 INTER-LIGAND FREE ENERGY PREDICTED BY IDOCK:   -7.17 KCAL/MOL
REMARK 924 INTRA-LIGAND FREE ENERGY PREDICTED BY IDOCK:   -0.62 KCAL/MOL
REMARK 927      BINDING AFFINITY PREDICTED BY RF-SCORE:    0.00 PKD
ROOT
HETATM    1  C   UNL     1      -9.359  17.242  66.423  1.00  0.00    -0.281 C  
HETATM    2  C   UNL     1     -10.186  16.818  67.577  1.00  0.00    -0.289 A  
HETATM    3  N   UNL     1     -10.222  17.456  68.728  1.00  0.00    -0.346 NA 
HETATM    4  N   UNL     1     -10.926  16.695  69.618  1.00  0.00    -0.290 NA 
HETATM    5  C   UNL     1     -11.311  15.604  68.997  1.00  0.00    -0.330 A  
HETATM    6  C   UNL     1     -12.127  14.503  69.554  1.00  0.00    -0.306 C  
HETATM    7  N   UNL     1     -11.408  13.246  69.438  1.00  0.00    -0.394 NA 
HETATM    8  C   UNL     1     -11.173  12.711  68.290  1.00  0.00    -0.272 C  
HETATM    9  H   UNL     1     -11.083  12.778  70.283  1.00  0.00     0.000 HD 
HETATM   10  C   UNL     1     -12.002  12.495  65.955  1.00  0.00    -0.472 A  
HETATM   11  C   UNL     1     -11.531  13.349  66.971  1.00  0.00    -0.372 A  
HETATM   12  C   UNL     1     -11.299  14.711  66.673  1.00  0.00    -0.356 A  
HETATM   13 CL   UNL     1     -12.655  11.882  63.411  1.00  0.00    -0.674 Cl 
HETATM   14  N   UNL     1     -10.924  15.646  67.677  1.00  0.00    -0.317 NA 
HETATM   15  C   UNL     1     -12.171  12.965  64.655  1.00  0.00    -0.435 A  
HETATM   16  C   UNL     1     -11.513  15.173  65.362  1.00  0.00    -0.239 A  
HETATM   17  C   UNL     1     -11.928  14.298  64.354  1.00  0.00    -0.476 A  
ENDROOT
BRANCH   8  18
HETATM   18  C   UNL     1     -10.473  11.374  68.275  1.00  0.00    -0.221 A  
HETATM   19  C   UNL     1     -10.503   9.018  68.921  1.00  0.00    -0.231 A  
HETATM   20  C   UNL     1      -8.562   9.935  67.829  1.00  0.00    -0.121 A  
HETATM   21  C   UNL     1     -11.138  10.258  68.824  1.00  0.00    -0.276 A  
HETATM   22  C   UNL     1      -9.215   8.856  68.424  1.00  0.00    -0.140 A  
HETATM   23  C   UNL     1      -9.176  11.194  67.760  1.00  0.00    -0.153 A  
HETATM   24 CL   UNL     1      -8.212  12.464  67.089  1.00  0.00    -0.184 Cl 
ENDBRANCH   8  18
TORSDOF 1
ENDMDL
MODEL       14
REMARK 921   NORMALIZED FREE ENERGY PREDICTED BY IDOCK:   -6.74 KCAL/MOL
REMARK 922        TOTAL FREE ENERGY PREDICTED BY IDOCK:   -7.78 KCAL/MOL
REMARK 923 INTER-LIGAND FREE ENERGY PREDICTED BY IDOCK:   -7.15 KCAL/MOL
REMARK 924 INTRA-LIGAND FREE ENERGY PREDICTED BY IDOCK:   -0.63 KCAL/MOL
REMARK 927      BINDING AFFINITY PREDICTED BY RF-SCORE:    0.00 PKD
ROOT
HETATM    1  C   UNL     1     -10.281  19.733  68.523  1.00  0.00    -0.547 C  
HETATM    2  C   UNL     1      -9.094  18.952  68.105  1.00  0.00    -0.313 A  
HETATM    3  N   UNL     1      -7.997  19.489  67.612  1.00  0.00    -0.278 NA 
HETATM    4  N   UNL     1      -7.193  18.482  67.159  1.00  0.00    -0.207 NA 
HETATM    5  C   UNL     1      -7.810  17.344  67.382  1.00  0.00    -0.196 A  
HETATM    6  C   UNL     1      -7.306  15.985  67.085  1.00  0.00    -0.222 C  
HETATM    7  N   UNL     1      -8.236  15.292  66.211  1.00  0.00    -0.275 NA 
HETATM    8  C   UNL     1      -9.408  14.947  66.617  1.00  0.00    -0.268 C  
HETATM    9  H   UNL     1      -7.954  15.074  65.256  1.00  0.00     0.000 HD 
HETATM   10  C   UNL     1     -10.746  14.301  68.612  1.00  0.00    -0.256 A  
HETATM   11  C   UNL     1      -9.966  15.286  67.976  1.00  0.00    -0.224 A  
HETATM   12  C   UNL     1      -9.853  16.564  68.571  1.00  0.00    -0.243 A  
HETATM   13 CL   UNL     1     -12.477  13.407  70.477  1.00  0.00    -0.379 Cl 
HETATM   14  N   UNL     1      -9.000  17.568  68.036  1.00  0.00    -0.252 NA 
HETATM   15  C   UNL     1     -11.455  14.597  69.773  1.00  0.00    -0.282 A  
HETATM   16  C   UNL     1     -10.548  16.829  69.765  1.00  0.00    -0.174 A  
HETATM   17  C   UNL     1     -11.361  15.855  70.351  1.00  0.00    -0.399 A  
ENDROOT
BRANCH   8  18
HETATM   18  C   UNL     1     -10.279  14.177  65.654  1.00  0.00    -0.357 A  
HETATM   19  C   UNL     1     -12.154  14.204  64.088  1.00  0.00    -0.437 A  
HETATM   20  C   UNL     1     -11.052  12.125  64.600  1.00  0.00    -0.366 A  
HETATM   21  C   UNL     1     -11.260  14.878  64.922  1.00  0.00    -0.415 A  
HETATM   22  C   UNL     1     -12.051  12.828  63.926  1.00  0.00    -0.562 A  
HETATM   23  C   UNL     1     -10.172  12.786  65.469  1.00  0.00    -0.279 A  
HETATM   24 CL   UNL     1      -9.052  11.776  66.315  1.00  0.00    -0.216 Cl 
ENDBRANCH   8  18
TORSDOF 1
ENDMDL
MODEL       15
REMARK 921   NORMALIZED FREE ENERGY PREDICTED BY IDOCK:   -6.74 KCAL/MOL
REMARK 922        TOTAL FREE ENERGY PREDICTED BY IDOCK:   -7.77 KCAL/MOL
REMARK 923 INTER-LIGAND FREE ENERGY PREDICTED BY IDOCK:   -7.90 KCAL/MOL
REMARK 924 INTRA-LIGAND FREE ENERGY PREDICTED BY IDOCK:    0.13 KCAL/MOL
REMARK 927      BINDING AFFINITY PREDICTED BY RF-SCORE:    0.00 PKD
ROOT
HETATM    1  C   UNL     1      -7.705  10.961  68.304  1.00  0.00    -0.111 C  
HETATM    2  C   UNL     1      -8.802  11.646  67.581  1.00  0.00    -0.159 A  
HETATM    3  N   UNL     1      -8.648  12.269  66.431  1.00  0.00    -0.039 NA 
HETATM    4  N   UNL     1      -9.802  12.943  66.151  1.00  0.00    -0.272 NA 
HETATM    5  C   UNL     1     -10.646  12.722  67.133  1.00  0.00    -0.237 A  
HETATM    6  C   UNL     1     -12.033  13.222  67.244  1.00  0.00    -0.343 C  
HETATM    7  N   UNL     1     -12.188  13.983  68.472  1.00  0.00    -0.537 NA 
HETATM    8  C   UNL     1     -12.125  13.415  69.626  1.00  0.00    -0.289 C  
HETATM    9  H   UNL     1     -12.349  14.988  68.418  1.00  0.00     0.000 HD 
HETATM   10  C   UNL     1     -12.514  11.287  70.854  1.00  0.00    -0.493 A  
HETATM   11  C   UNL     1     -11.809  11.955  69.834  1.00  0.00    -0.418 A  
HETATM   12  C   UNL     1     -10.772  11.275  69.155  1.00  0.00    -0.207 A  
HETATM   13 CL   UNL     1     -12.963   9.241  72.552  1.00  0.00    -0.439 Cl 
HETATM   14  N   UNL     1     -10.093  11.855  68.048  1.00  0.00    -0.189 NA 
HETATM   15  C   UNL     1     -12.152   9.999  71.240  1.00  0.00    -0.394 A  
HETATM   16  C   UNL     1     -10.448   9.961  69.536  1.00  0.00    -0.261 A  
HETATM   17  C   UNL     1     -11.122   9.335  70.588  1.00  0.00    -0.335 A  
ENDROOT
BRANCH   8  18
HETATM   18  C   UNL     1     -12.358  14.280  70.842  1.00  0.00    -0.429 A  
HETATM   19  C   UNL     1     -13.754  14.784  72.782  1.00  0.00    -0.486 A  
HETATM   20  C   UNL     1     -11.872  16.194  72.262  1.00  0.00    -0.631 A  
HETATM   21  C   UNL     1     -13.435  13.966  71.696  1.00  0.00    -0.428 A  
HETATM   22  C   UNL     1     -12.973  15.898  73.065  1.00  0.00    -0.630 A  
HETATM   23  C   UNL     1     -11.564  15.400  71.148  1.00  0.00    -0.377 A  
HETATM   24 CL   UNL     1     -10.234  15.942  70.184  1.00  0.00    -0.197 Cl 
ENDBRANCH   8  18
TORSDOF 1
ENDMDL
MODEL       16
REMARK 921   NORMALIZED FREE ENERGY PREDICTED BY IDOCK:   -6.69 KCAL/MOL
REMARK 922        TOTAL FREE ENERGY PREDICTED BY IDOCK:   -7.72 KCAL/MOL
REMARK 923 INTER-LIGAND FREE ENERGY PREDICTED BY IDOCK:   -7.22 KCAL/MOL
REMARK 924 INTRA-LIGAND FREE ENERGY PREDICTED BY IDOCK:   -0.51 KCAL/MOL
REMARK 927      BINDING AFFINITY PREDICTED BY RF-SCORE:    0.00 PKD
ROOT
HETATM    1  C   UNL     1     -10.397  19.543  68.251  1.00  0.00    -0.524 C  
HETATM    2  C   UNL     1      -9.207  18.738  67.893  1.00  0.00    -0.294 A  
HETATM    3  N   UNL     1      -8.103  19.244  67.384  1.00  0.00    -0.273 NA 
HETATM    4  N   UNL     1      -7.295  18.213  66.998  1.00  0.00    -0.202 NA 
HETATM    5  C   UNL     1      -7.917  17.090  67.278  1.00  0.00    -0.174 A  
HETATM    6  C   UNL     1      -7.412  15.716  67.065  1.00  0.00    -0.193 C  
HETATM    7  N   UNL     1      -8.332  14.975  66.220  1.00  0.00    -0.296 NA 
HETATM    8  C   UNL     1      -9.511  14.656  66.631  1.00  0.00    -0.278 C  
HETATM    9  H   UNL     1      -8.039  14.703  65.282  1.00  0.00     0.000 HD 
HETATM   10  C   UNL     1     -10.874  14.125  68.642  1.00  0.00    -0.268 A  
HETATM   11  C   UNL     1     -10.085  15.072  67.961  1.00  0.00    -0.223 A  
HETATM   12  C   UNL     1      -9.976  16.381  68.484  1.00  0.00    -0.239 A  
HETATM   13 CL   UNL     1     -12.629  13.341  70.534  1.00  0.00    -0.308 Cl 
HETATM   14  N   UNL     1      -9.114  17.353  67.904  1.00  0.00    -0.250 NA 
HETATM   15  C   UNL     1     -11.597  14.488  69.776  1.00  0.00    -0.295 A  
HETATM   16  C   UNL     1     -10.685  16.715  69.652  1.00  0.00    -0.286 A  
HETATM   17  C   UNL     1     -11.507  15.777  70.282  1.00  0.00    -0.369 A  
ENDROOT
BRANCH   8  18
HETATM   18  C   UNL     1     -10.372  13.833  65.702  1.00  0.00    -0.321 A  
HETATM   19  C   UNL     1     -10.960  11.622  64.845  1.00  0.00    -0.345 A  
HETATM   20  C   UNL     1     -11.995  13.584  63.908  1.00  0.00    -0.491 A  
HETATM   21  C   UNL     1     -10.257  12.428  65.743  1.00  0.00    -0.283 A  
HETATM   22  C   UNL     1     -11.829  12.200  63.927  1.00  0.00    -0.558 A  
HETATM   23  C   UNL     1     -11.267  14.406  64.780  1.00  0.00    -0.387 A  
HETATM   24 CL   UNL     1     -11.497  16.108  64.577  1.00  0.00    -0.358 Cl 
ENDBRANCH   8  18
TORSDOF 1
ENDMDL
MODEL       17
REMARK 921   NORMALIZED FREE ENERGY PREDICTED BY IDOCK:   -6.67 KCAL/MOL
REMARK 922        TOTAL FREE ENERGY PREDICTED BY IDOCK:   -7.70 KCAL/MOL
REMARK 923 INTER-LIGAND FREE ENERGY PREDICTED BY IDOCK:   -7.19 KCAL/MOL
REMARK 924 INTRA-LIGAND FREE ENERGY PREDICTED BY IDOCK:   -0.51 KCAL/MOL
REMARK 927      BINDING AFFINITY PREDICTED BY RF-SCORE:    0.00 PKD
ROOT
HETATM    1  C   UNL     1      -8.297  10.349  64.642  1.00  0.00    -0.155 C  
HETATM    2  C   UNL     1      -9.580  11.033  64.356  1.00  0.00    -0.259 A  
HETATM    3  N   UNL     1      -9.907  11.517  63.176  1.00  0.00    -0.390 NA 
HETATM    4  N   UNL     1     -11.056  12.241  63.314  1.00  0.00    -0.395 NA 
HETATM    5  C   UNL     1     -11.416  12.188  64.576  1.00  0.00    -0.334 A  
HETATM    6  C   UNL     1     -12.618  12.798  65.186  1.00  0.00    -0.444 C  
HETATM    7  N   UNL     1     -12.227  13.694  66.260  1.00  0.00    -0.438 NA 
HETATM    8  C   UNL     1     -11.699  13.248  67.347  1.00  0.00    -0.373 C  
HETATM    9  H   UNL     1     -12.373  14.697  66.151  1.00  0.00     0.000 HD 
HETATM   10  C   UNL     1     -11.588  11.297  68.885  1.00  0.00    -0.386 A  
HETATM   11  C   UNL     1     -11.359  11.799  67.590  1.00  0.00    -0.370 A  
HETATM   12  C   UNL     1     -10.718  10.976  66.635  1.00  0.00    -0.249 A  
HETATM   13 CL   UNL     1     -11.331   9.480  70.862  1.00  0.00    -0.377 Cl 
HETATM   14  N   UNL     1     -10.551  11.384  65.283  1.00  0.00    -0.280 NA 
HETATM   15  C   UNL     1     -11.126  10.034  69.248  1.00  0.00    -0.206 A  
HETATM   16  C   UNL     1     -10.294   9.689  67.013  1.00  0.00    -0.315 A  
HETATM   17  C   UNL     1     -10.480   9.230  68.319  1.00  0.00    -0.260 A  
ENDROOT
BRANCH   8  18
HETATM   18  C   UNL     1     -11.383  14.252  68.430  1.00  0.00    -0.309 A  
HETATM   19  C   UNL     1     -12.186  15.578  70.318  1.00  0.00    -0.432 A  
HETATM   20  C   UNL     1      -9.923  15.849  69.542  1.00  0.00    -0.274 A  
HETATM   21  C   UNL     1     -12.394  14.589  69.354  1.00  0.00    -0.213 A  
HETATM   22  C   UNL     1     -10.951  16.208  70.412  1.00  0.00    -0.320 A  
HETATM   23  C   UNL     1     -10.131  14.884  68.546  1.00  0.00    -0.232 A  
HETATM   24 CL   UNL     1      -8.802  14.611  67.473  1.00  0.00    -0.179 Cl 
ENDBRANCH   8  18
TORSDOF 1
ENDMDL
MODEL       18
REMARK 921   NORMALIZED FREE ENERGY PREDICTED BY IDOCK:   -6.59 KCAL/MOL
REMARK 922        TOTAL FREE ENERGY PREDICTED BY IDOCK:   -7.61 KCAL/MOL
REMARK 923 INTER-LIGAND FREE ENERGY PREDICTED BY IDOCK:   -7.35 KCAL/MOL
REMARK 924 INTRA-LIGAND FREE ENERGY PREDICTED BY IDOCK:   -0.26 KCAL/MOL
REMARK 927      BINDING AFFINITY PREDICTED BY RF-SCORE:    0.00 PKD
ROOT
HETATM    1  C   UNL     1      -9.298  17.183  66.443  1.00  0.00    -0.286 C  
HETATM    2  C   UNL     1     -10.126  16.789  67.607  1.00  0.00    -0.275 A  
HETATM    3  N   UNL     1     -10.143  17.443  68.750  1.00  0.00    -0.330 NA 
HETATM    4  N   UNL     1     -10.856  16.707  69.653  1.00  0.00    -0.334 NA 
HETATM    5  C   UNL     1     -11.265  15.615  69.049  1.00  0.00    -0.306 A  
HETATM    6  C   UNL     1     -12.097  14.537  69.625  1.00  0.00    -0.323 C  
HETATM    7  N   UNL     1     -11.402  13.265  69.521  1.00  0.00    -0.431 NA 
HETATM    8  C   UNL     1     -11.184  12.711  68.380  1.00  0.00    -0.279 C  
HETATM    9  H   UNL     1     -11.081  12.802  70.371  1.00  0.00     0.000 HD 
HETATM   10  C   UNL     1     -12.030  12.480  66.052  1.00  0.00    -0.456 A  
HETATM   11  C   UNL     1     -11.537  13.338  67.054  1.00  0.00    -0.404 A  
HETATM   12  C   UNL     1     -11.283  14.692  66.737  1.00  0.00    -0.344 A  
HETATM   13 CL   UNL     1     -12.708  11.846  63.520  1.00  0.00    -0.641 Cl 
HETATM   14  N   UNL     1     -10.884  15.633  67.726  1.00  0.00    -0.301 NA 
HETATM   15  C   UNL     1     -12.198  12.936  64.747  1.00  0.00    -0.445 A  
HETATM   16  C   UNL     1     -11.495  15.140  65.421  1.00  0.00    -0.239 A  
HETATM   17  C   UNL     1     -11.932  14.260  64.428  1.00  0.00    -0.476 A  
ENDROOT
BRANCH   8  18
HETATM   18  C   UNL     1     -10.508  11.361  68.379  1.00  0.00    -0.221 A  
HETATM   19  C   UNL     1      -8.784   9.913  67.431  1.00  0.00    -0.129 A  
HETATM   20  C   UNL     1     -10.316   9.036  69.069  1.00  0.00    -0.233 A  
HETATM   21  C   UNL     1      -9.390  11.166  67.541  1.00  0.00    -0.174 A  
HETATM   22  C   UNL     1      -9.246   8.848  68.194  1.00  0.00    -0.145 A  
HETATM   23  C   UNL     1     -10.957  10.280  69.160  1.00  0.00    -0.238 A  
HETATM   24 CL   UNL     1     -12.332  10.342  70.208  1.00  0.00    -0.345 Cl 
ENDBRANCH   8  18
TORSDOF 1
ENDMDL
MODEL       19
REMARK 921   NORMALIZED FREE ENERGY PREDICTED BY IDOCK:   -6.56 KCAL/MOL
REMARK 922        TOTAL FREE ENERGY PREDICTED BY IDOCK:   -7.59 KCAL/MOL
REMARK 923 INTER-LIGAND FREE ENERGY PREDICTED BY IDOCK:   -6.95 KCAL/MOL
REMARK 924 INTRA-LIGAND FREE ENERGY PREDICTED BY IDOCK:   -0.64 KCAL/MOL
REMARK 927      BINDING AFFINITY PREDICTED BY RF-SCORE:    0.00 PKD
ROOT
HETATM    1  C   UNL     1     -12.379  15.103  64.519  1.00  0.00    -0.212 C  
HETATM    2  C   UNL     1     -11.886  13.739  64.217  1.00  0.00    -0.417 A  
HETATM    3  N   UNL     1     -12.329  13.002  63.219  1.00  0.00    -0.705 NA 
HETATM    4  N   UNL     1     -11.807  11.747  63.348  1.00  0.00    -0.417 NA 
HETATM    5  C   UNL     1     -11.051  11.735  64.422  1.00  0.00    -0.334 A  
HETATM    6  C   UNL     1     -10.258  10.598  64.940  1.00  0.00    -0.324 C  
HETATM    7  N   UNL     1     -10.657  10.296  66.303  1.00  0.00    -0.133 NA 
HETATM    8  C   UNL     1     -10.420  11.115  67.269  1.00  0.00    -0.226 C  
HETATM    9  H   UNL     1     -11.135   9.417  66.500  1.00  0.00     0.000 HD 
HETATM   10  C   UNL     1      -8.884  12.896  68.076  1.00  0.00    -0.195 A  
HETATM   11  C   UNL     1      -9.797  12.476  67.090  1.00  0.00    -0.210 A  
HETATM   12  C   UNL     1     -10.175  13.381  66.071  1.00  0.00    -0.300 A  
HETATM   13 CL   UNL     1      -7.372  14.723  69.361  1.00  0.00    -0.169 Cl 
HETATM   14  N   UNL     1     -11.011  12.988  64.990  1.00  0.00    -0.289 NA 
HETATM   15  C   UNL     1      -8.411  14.206  68.093  1.00  0.00    -0.161 A  
HETATM   16  C   UNL     1      -9.656  14.688  66.086  1.00  0.00    -0.336 A  
HETATM   17  C   UNL     1      -8.793  15.102  67.105  1.00  0.00    -0.236 A  
ENDROOT
BRANCH   8  18
HETATM   18  C   UNL     1     -10.819  10.684  68.660  1.00  0.00    -0.266 A  
HETATM   19  C   UNL     1     -12.336  10.964  70.555  1.00  0.00    -0.463 A  
HETATM   20  C   UNL     1     -10.476   9.443  70.724  1.00  0.00    -0.372 A  
HETATM   21  C   UNL     1     -11.972  11.255  69.238  1.00  0.00    -0.411 A  
HETATM   22  C   UNL     1     -11.588  10.058  71.298  1.00  0.00    -0.430 A  
HETATM   23  C   UNL     1     -10.079   9.756  69.416  1.00  0.00    -0.209 A  
HETATM   24 CL   UNL     1      -8.625   8.996  68.869  1.00  0.00    -0.130 Cl 
ENDBRANCH   8  18
TORSDOF 1
ENDMDL
MODEL       20
REMARK 921   NORMALIZED FREE ENERGY PREDICTED BY IDOCK:   -6.55 KCAL/MOL
REMARK 922        TOTAL FREE ENERGY PREDICTED BY IDOCK:   -7.58 KCAL/MOL
REMARK 923 INTER-LIGAND FREE ENERGY PREDICTED BY IDOCK:   -6.94 KCAL/MOL
REMARK 924 INTRA-LIGAND FREE ENERGY PREDICTED BY IDOCK:   -0.63 KCAL/MOL
REMARK 927      BINDING AFFINITY PREDICTED BY RF-SCORE:    0.00 PKD
ROOT
HETATM    1  C   UNL     1     -10.623  16.681  69.278  1.00  0.00    -0.343 C  
HETATM    2  C   UNL     1     -11.356  15.677  70.084  1.00  0.00    -0.344 A  
HETATM    3  N   UNL     1     -11.637  15.824  71.362  1.00  0.00    -0.408 NA 
HETATM    4  N   UNL     1     -12.141  14.644  71.829  1.00  0.00    -0.341 NA 
HETATM    5  C   UNL     1     -12.162  13.792  70.828  1.00  0.00    -0.363 A  
HETATM    6  C   UNL     1     -12.657  12.399  70.856  1.00  0.00    -0.246 C  
HETATM    7  N   UNL     1     -11.603  11.490  70.440  1.00  0.00    -0.503 NA 
HETATM    8  C   UNL     1     -11.162  11.484  69.230  1.00  0.00    -0.272 C  
HETATM    9  H   UNL     1     -11.204  10.844  71.120  1.00  0.00     0.000 HD 
HETATM   10  C   UNL     1     -11.764  11.929  66.858  1.00  0.00    -0.291 A  
HETATM   11  C   UNL     1     -11.614  12.446  68.159  1.00  0.00    -0.395 A  
HETATM   12  C   UNL     1     -11.767  13.835  68.371  1.00  0.00    -0.358 A  
HETATM   13 CL   UNL     1     -12.072  12.138  64.187  1.00  0.00    -0.494 Cl 
HETATM   14  N   UNL     1     -11.731  14.405  69.674  1.00  0.00    -0.290 NA 
HETATM   15  C   UNL     1     -11.989  12.781  65.779  1.00  0.00    -0.449 A  
HETATM   16  C   UNL     1     -12.031  14.672  67.272  1.00  0.00    -0.312 A  
HETATM   17  C   UNL     1     -12.122  14.147  65.980  1.00  0.00    -0.449 A  
ENDROOT
BRANCH   8  18
HETATM   18  C   UNL     1     -10.107  10.461  68.879  1.00  0.00    -0.213 A  
HETATM   19  C   UNL     1      -9.506   8.104  68.661  1.00  0.00    -0.147 A  
HETATM   20  C   UNL     1      -7.837   9.803  68.304  1.00  0.00    -0.089 A  
HETATM   21  C   UNL     1     -10.462   9.096  68.887  1.00  0.00    -0.239 A  
HETATM   22  C   UNL     1      -8.194   8.456  68.370  1.00  0.00    -0.124 A  
HETATM   23  C   UNL     1      -8.780  10.808  68.565  1.00  0.00    -0.149 A  
HETATM   24 CL   UNL     1      -8.176  12.428  68.549  1.00  0.00    -0.127 Cl 
ENDBRANCH   8  18
TORSDOF 1
ENDMDL
MODEL       21
REMARK 921   NORMALIZED FREE ENERGY PREDICTED BY IDOCK:   -6.51 KCAL/MOL
REMARK 922        TOTAL FREE ENERGY PREDICTED BY IDOCK:   -7.53 KCAL/MOL
REMARK 923 INTER-LIGAND FREE ENERGY PREDICTED BY IDOCK:   -7.07 KCAL/MOL
REMARK 924 INTRA-LIGAND FREE ENERGY PREDICTED BY IDOCK:   -0.46 KCAL/MOL
REMARK 927      BINDING AFFINITY PREDICTED BY RF-SCORE:    0.00 PKD
ROOT
HETATM    1  C   UNL     1     -11.359  15.446  70.978  1.00  0.00    -0.411 C  
HETATM    2  C   UNL     1     -12.252  14.369  71.466  1.00  0.00    -0.334 A  
HETATM    3  N   UNL     1     -12.947  14.440  72.583  1.00  0.00    -0.433 NA 
HETATM    4  N   UNL     1     -13.501  13.215  72.822  1.00  0.00    -0.541 NA 
HETATM    5  C   UNL     1     -13.139  12.413  71.847  1.00  0.00    -0.366 A  
HETATM    6  C   UNL     1     -13.527  10.997  71.669  1.00  0.00    -0.092 C  
HETATM    7  N   UNL     1     -12.340  10.163  71.599  1.00  0.00    -0.397 NA 
HETATM    8  C   UNL     1     -11.525  10.236  70.604  1.00  0.00    -0.349 C  
HETATM    9  H   UNL     1     -12.147   9.506  72.355  1.00  0.00     0.000 HD 
HETATM   10  C   UNL     1     -11.339  10.765  68.181  1.00  0.00    -0.377 A  
HETATM   11  C   UNL     1     -11.659  11.225  69.473  1.00  0.00    -0.398 A  
HETATM   12  C   UNL     1     -11.960  12.593  69.662  1.00  0.00    -0.286 A  
HETATM   13 CL   UNL     1     -10.763  11.085  65.566  1.00  0.00    -0.262 Cl 
HETATM   14  N   UNL     1     -12.391  13.101  70.919  1.00  0.00    -0.360 NA 
HETATM   15  C   UNL     1     -11.250  11.654  67.113  1.00  0.00    -0.309 A  
HETATM   16  C   UNL     1     -11.900  13.467  68.562  1.00  0.00    -0.398 A  
HETATM   17  C   UNL     1     -11.527  13.001  67.298  1.00  0.00    -0.380 A  
ENDROOT
BRANCH   8  18
HETATM   18  C   UNL     1     -10.352   9.286  70.594  1.00  0.00    -0.326 A  
HETATM   19  C   UNL     1      -7.930   8.994  70.474  1.00  0.00    -0.150 A  
HETATM   20  C   UNL     1      -9.368   7.062  70.509  1.00  0.00    -0.159 A  
HETATM   21  C   UNL     1      -9.048   9.823  70.578  1.00  0.00    -0.069 A  
HETATM   22  C   UNL     1      -8.089   7.614  70.439  1.00  0.00    -0.113 A  
HETATM   23  C   UNL     1     -10.501   7.886  70.575  1.00  0.00    -0.214 A  
HETATM   24 CL   UNL     1     -12.026   7.071  70.553  1.00  0.00    -0.349 Cl 
ENDBRANCH   8  18
TORSDOF 1
ENDMDL
MODEL       22
REMARK 921   NORMALIZED FREE ENERGY PREDICTED BY IDOCK:   -6.47 KCAL/MOL
REMARK 922        TOTAL FREE ENERGY PREDICTED BY IDOCK:   -7.49 KCAL/MOL
REMARK 923 INTER-LIGAND FREE ENERGY PREDICTED BY IDOCK:   -6.85 KCAL/MOL
REMARK 924 INTRA-LIGAND FREE ENERGY PREDICTED BY IDOCK:   -0.64 KCAL/MOL
REMARK 927      BINDING AFFINITY PREDICTED BY RF-SCORE:    0.00 PKD
ROOT
HETATM    1  C   UNL     1      -9.595   9.104  66.067  1.00  0.00    -0.342 C  
HETATM    2  C   UNL     1      -9.938  10.274  65.225  1.00  0.00    -0.317 A  
HETATM    3  N   UNL     1      -9.770  10.315  63.920  1.00  0.00    -0.303 NA 
HETATM    4  N   UNL     1     -10.004  11.593  63.497  1.00  0.00    -0.372 NA 
HETATM    5  C   UNL     1     -10.314  12.314  64.550  1.00  0.00    -0.311 A  
HETATM    6  C   UNL     1     -10.678  13.747  64.572  1.00  0.00    -0.390 C  
HETATM    7  N   UNL     1      -9.775  14.474  65.448  1.00  0.00    -0.530 NA 
HETATM    8  C   UNL     1      -9.779  14.285  66.722  1.00  0.00    -0.275 C  
HETATM    9  H   UNL     1      -9.125  15.148  65.045  1.00  0.00     0.000 HD 
HETATM   10  C   UNL     1     -11.189  13.627  68.662  1.00  0.00    -0.308 A  
HETATM   11  C   UNL     1     -10.633  13.258  67.422  1.00  0.00    -0.250 A  
HETATM   12  C   UNL     1     -10.794  11.931  66.963  1.00  0.00    -0.259 A  
HETATM   13 CL   UNL     1     -12.412  13.134  71.014  1.00  0.00    -0.448 Cl 
HETATM   14  N   UNL     1     -10.348  11.522  65.675  1.00  0.00    -0.251 NA 
HETATM   15  C   UNL     1     -11.827  12.683  69.462  1.00  0.00    -0.312 A  
HETATM   16  C   UNL     1     -11.475  11.003  67.771  1.00  0.00    -0.339 A  
HETATM   17  C   UNL     1     -11.971  11.374  69.023  1.00  0.00    -0.387 A  
ENDROOT
BRANCH   8  18
HETATM   18  C   UNL     1      -8.846  15.132  67.554  1.00  0.00    -0.190 A  
HETATM   19  C   UNL     1      -6.781  15.266  68.853  1.00  0.00    -0.115 A  
HETATM   20  C   UNL     1      -8.252  17.170  68.742  1.00  0.00    -0.238 A  
HETATM   21  C   UNL     1      -7.638  14.561  68.005  1.00  0.00    -0.138 A  
HETATM   22  C   UNL     1      -7.089  16.570  69.223  1.00  0.00    -0.219 A  
HETATM   23  C   UNL     1      -9.138  16.459  67.920  1.00  0.00    -0.201 A  
HETATM   24 CL   UNL     1     -10.590  17.290  67.482  1.00  0.00    -0.351 Cl 
ENDBRANCH   8  18
TORSDOF 1
ENDMDL
MODEL       23
REMARK 921   NORMALIZED FREE ENERGY PREDICTED BY IDOCK:   -6.45 KCAL/MOL
REMARK 922        TOTAL FREE ENERGY PREDICTED BY IDOCK:   -7.47 KCAL/MOL
REMARK 923 INTER-LIGAND FREE ENERGY PREDICTED BY IDOCK:   -7.11 KCAL/MOL
REMARK 924 INTRA-LIGAND FREE ENERGY PREDICTED BY IDOCK:   -0.36 KCAL/MOL
REMARK 927      BINDING AFFINITY PREDICTED BY RF-SCORE:    0.00 PKD
ROOT
HETATM    1  C   UNL     1     -13.158   9.819  71.256  1.00  0.00    -0.465 C  
HETATM    2  C   UNL     1     -12.922  11.279  71.334  1.00  0.00    -0.379 A  
HETATM    3  N   UNL     1     -13.608  12.094  72.108  1.00  0.00    -0.349 NA 
HETATM    4  N   UNL     1     -13.264  13.377  71.791  1.00  0.00    -0.404 NA 
HETATM    5  C   UNL     1     -12.371  13.328  70.829  1.00  0.00    -0.344 A  
HETATM    6  C   UNL     1     -11.688  14.474  70.189  1.00  0.00    -0.297 C  
HETATM    7  N   UNL     1     -11.926  14.454  68.756  1.00  0.00    -0.457 NA 
HETATM    8  C   UNL     1     -11.433  13.530  68.007  1.00  0.00    -0.307 C  
HETATM    9  H   UNL     1     -12.495  15.188  68.335  1.00  0.00     0.000 HD 
HETATM   10  C   UNL     1      -9.550  11.926  67.752  1.00  0.00    -0.190 A  
HETATM   11  C   UNL     1     -10.648  12.350  68.524  1.00  0.00    -0.251 A  
HETATM   12  C   UNL     1     -11.032  11.591  69.652  1.00  0.00    -0.064 A  
HETATM   13 CL   UNL     1      -7.615  10.188  67.037  1.00  0.00    -0.092 Cl 
HETATM   14  N   UNL     1     -12.064  12.020  70.532  1.00  0.00    -0.364 NA 
HETATM   15  C   UNL     1      -8.891  10.736  68.050  1.00  0.00    -0.132 A  
HETATM   16  C   UNL     1     -10.328  10.412  69.958  1.00  0.00    -0.181 A  
HETATM   17  C   UNL     1      -9.276   9.977  69.147  1.00  0.00    -0.196 A  
ENDROOT
BRANCH   8  18
HETATM   18  C   UNL     1     -11.686  13.630  66.521  1.00  0.00    -0.414 A  
HETATM   19  C   UNL     1     -12.448  12.533  64.476  1.00  0.00    -0.539 A  
HETATM   20  C   UNL     1     -11.549  14.765  64.374  1.00  0.00    -0.304 A  
HETATM   21  C   UNL     1     -12.277  12.532  65.862  1.00  0.00    -0.310 A  
HETATM   22  C   UNL     1     -12.084  13.648  63.732  1.00  0.00    -0.435 A  
HETATM   23  C   UNL     1     -11.337  14.761  65.760  1.00  0.00    -0.336 A  
HETATM   24 CL   UNL     1     -10.573  16.171  66.408  1.00  0.00    -0.297 Cl 
ENDBRANCH   8  18
TORSDOF 1
ENDMDL
MODEL       24
REMARK 921   NORMALIZED FREE ENERGY PREDICTED BY IDOCK:   -6.42 KCAL/MOL
REMARK 922        TOTAL FREE ENERGY PREDICTED BY IDOCK:   -7.44 KCAL/MOL
REMARK 923 INTER-LIGAND FREE ENERGY PREDICTED BY IDOCK:   -6.80 KCAL/MOL
REMARK 924 INTRA-LIGAND FREE ENERGY PREDICTED BY IDOCK:   -0.64 KCAL/MOL
REMARK 927      BINDING AFFINITY PREDICTED BY RF-SCORE:    0.00 PKD
ROOT
HETATM    1  C   UNL     1     -10.048  11.273  65.852  1.00  0.00    -0.291 C  
HETATM    2  C   UNL     1     -10.705  11.790  67.075  1.00  0.00    -0.246 A  
HETATM    3  N   UNL     1     -11.844  11.328  67.549  1.00  0.00    -0.604 NA 
HETATM    4  N   UNL     1     -12.251  12.149  68.562  1.00  0.00    -0.233 NA 
HETATM    5  C   UNL     1     -11.355  13.100  68.693  1.00  0.00    -0.289 A  
HETATM    6  C   UNL     1     -11.361  14.197  69.685  1.00  0.00    -0.236 C  
HETATM    7  N   UNL     1     -11.319  15.480  69.005  1.00  0.00    -0.302 NA 
HETATM    8  C   UNL     1     -10.278  15.858  68.348  1.00  0.00    -0.226 C  
HETATM    9  H   UNL     1     -12.132  16.094  69.048  1.00  0.00     0.000 HD 
HETATM   10  C   UNL     1      -7.804  15.656  68.193  1.00  0.00    -0.129 A  
HETATM   11  C   UNL     1      -9.051  15.005  68.143  1.00  0.00    -0.178 A  
HETATM   12  C   UNL     1      -9.100  13.638  67.785  1.00  0.00    -0.199 A  
HETATM   13 CL   UNL     1      -5.141  15.830  67.803  1.00  0.00    -0.134 Cl 
HETATM   14  N   UNL     1     -10.314  12.897  67.817  1.00  0.00    -0.218 NA 
HETATM   15  C   UNL     1      -6.639  14.987  67.827  1.00  0.00    -0.169 A  
HETATM   16  C   UNL     1      -7.907  12.972  67.456  1.00  0.00    -0.178 A  
HETATM   17  C   UNL     1      -6.685  13.650  67.458  1.00  0.00    -0.139 A  
ENDROOT
BRANCH   8  18
HETATM   18  C   UNL     1     -10.309  17.234  67.726  1.00  0.00    -0.356 A  
HETATM   19  C   UNL     1     -10.259  19.653  68.058  1.00  0.00    -0.579 A  
HETATM   20  C   UNL     1     -10.588  18.755  65.848  1.00  0.00    -0.405 A  
HETATM   21  C   UNL     1     -10.147  18.357  68.563  1.00  0.00    -0.413 A  
HETATM   22  C   UNL     1     -10.480  19.853  66.700  1.00  0.00    -0.580 A  
HETATM   23  C   UNL     1     -10.515  17.447  66.350  1.00  0.00    -0.267 A  
HETATM   24 CL   UNL     1     -10.768  16.183  65.197  1.00  0.00    -0.429 Cl 
ENDBRANCH   8  18
TORSDOF 1
ENDMDL
MODEL       25
REMARK 921   NORMALIZED FREE ENERGY PREDICTED BY IDOCK:   -6.38 KCAL/MOL
REMARK 922        TOTAL FREE ENERGY PREDICTED BY IDOCK:   -7.40 KCAL/MOL
REMARK 923 INTER-LIGAND FREE ENERGY PREDICTED BY IDOCK:   -6.79 KCAL/MOL
REMARK 924 INTRA-LIGAND FREE ENERGY PREDICTED BY IDOCK:   -0.61 KCAL/MOL
REMARK 927      BINDING AFFINITY PREDICTED BY RF-SCORE:    0.00 PKD
ROOT
HETATM    1  C   UNL     1     -11.271  16.557  68.528  1.00  0.00    -0.296 C  
HETATM    2  C   UNL     1     -11.702  15.391  69.336  1.00  0.00    -0.351 A  
HETATM    3  N   UNL     1     -11.939  15.443  70.630  1.00  0.00    -0.323 NA 
HETATM    4  N   UNL     1     -12.124  14.167  71.082  1.00  0.00    -0.345 NA 
HETATM    5  C   UNL     1     -11.998  13.355  70.058  1.00  0.00    -0.337 A  
HETATM    6  C   UNL     1     -12.148  11.884  70.065  1.00  0.00    -0.291 C  
HETATM    7  N   UNL     1     -10.934  11.260  69.569  1.00  0.00    -0.379 NA 
HETATM    8  C   UNL     1     -10.570  11.382  68.340  1.00  0.00    -0.202 C  
HETATM    9  H   UNL     1     -10.357  10.714  70.208  1.00  0.00     0.000 HD 
HETATM   10  C   UNL     1     -11.388  11.719  66.015  1.00  0.00    -0.335 A  
HETATM   11  C   UNL     1     -11.294  12.230  67.324  1.00  0.00    -0.392 A  
HETATM   12  C   UNL     1     -11.759  13.539  67.587  1.00  0.00    -0.363 A  
HETATM   13 CL   UNL     1     -11.882  11.900  63.370  1.00  0.00    -0.550 Cl 
HETATM   14  N   UNL     1     -11.788  14.075  68.904  1.00  0.00    -0.336 NA 
HETATM   15  C   UNL     1     -11.866  12.513  64.976  1.00  0.00    -0.396 A  
HETATM   16  C   UNL     1     -12.273  14.310  66.529  1.00  0.00    -0.419 A  
HETATM   17  C   UNL     1     -12.307  13.805  65.227  1.00  0.00    -0.491 A  
ENDROOT
BRANCH   8  18
HETATM   18  C   UNL     1      -9.325  10.646  67.906  1.00  0.00    -0.154 A  
HETATM   19  C   UNL     1      -6.934  10.742  67.412  1.00  0.00    -0.083 A  
HETATM   20  C   UNL     1      -8.151   8.695  67.048  1.00  0.00    -0.100 A  
HETATM   21  C   UNL     1      -8.099  11.344  67.891  1.00  0.00    -0.126 A  
HETATM   22  C   UNL     1      -6.960   9.418  66.990  1.00  0.00    -0.085 A  
HETATM   23  C   UNL     1      -9.335   9.301  67.493  1.00  0.00    -0.127 A  
HETATM   24 CL   UNL     1     -10.757   8.319  67.416  1.00  0.00    -0.306 Cl 
ENDBRANCH   8  18
TORSDOF 1
ENDMDL
MODEL       26
REMARK 921   NORMALIZED FREE ENERGY PREDICTED BY IDOCK:   -6.36 KCAL/MOL
REMARK 922        TOTAL FREE ENERGY PREDICTED BY IDOCK:   -7.37 KCAL/MOL
REMARK 923 INTER-LIGAND FREE ENERGY PREDICTED BY IDOCK:   -8.00 KCAL/MOL
REMARK 924 INTRA-LIGAND FREE ENERGY PREDICTED BY IDOCK:    0.63 KCAL/MOL
REMARK 927      BINDING AFFINITY PREDICTED BY RF-SCORE:    0.00 PKD
ROOT
HETATM    1  C   UNL     1     -12.106  14.736  64.237  1.00  0.00    -0.415 C  
HETATM    2  C   UNL     1     -11.120  13.960  65.027  1.00  0.00    -0.353 A  
HETATM    3  N   UNL     1     -10.754  12.729  64.739  1.00  0.00    -0.300 NA 
HETATM    4  N   UNL     1      -9.991  12.256  65.768  1.00  0.00    -0.252 NA 
HETATM    5  C   UNL     1      -9.900  13.207  66.670  1.00  0.00    -0.261 A  
HETATM    6  C   UNL     1      -9.145  13.158  67.941  1.00  0.00    -0.207 C  
HETATM    7  N   UNL     1     -10.039  13.412  69.057  1.00  0.00    -0.430 NA 
HETATM    8  C   UNL     1     -10.583  14.566  69.233  1.00  0.00    -0.212 C  
HETATM    9  H   UNL     1     -10.240  12.660  69.716  1.00  0.00     0.000 HD 
HETATM   10  C   UNL     1     -10.304  17.009  68.855  1.00  0.00    -0.337 A  
HETATM   11  C   UNL     1     -10.427  15.728  68.284  1.00  0.00    -0.259 A  
HETATM   12  C   UNL     1     -10.526  15.607  66.879  1.00  0.00    -0.307 A  
HETATM   13 CL   UNL     1     -10.294  19.705  68.786  1.00  0.00    -0.437 Cl 
HETATM   14  N   UNL     1     -10.548  14.340  66.233  1.00  0.00    -0.286 NA 
HETATM   15  C   UNL     1     -10.349  18.149  68.057  1.00  0.00    -0.391 A  
HETATM   16  C   UNL     1     -10.532  16.770  66.088  1.00  0.00    -0.282 A  
HETATM   17  C   UNL     1     -10.464  18.036  66.678  1.00  0.00    -0.332 A  
ENDROOT
BRANCH   8  18
HETATM   18  C   UNL     1     -11.449  14.749  70.457  1.00  0.00    -0.300 A  
HETATM   19  C   UNL     1     -12.067  16.149  72.361  1.00  0.00    -0.630 A  
HETATM   20  C   UNL     1     -13.058  13.969  72.105  1.00  0.00    -0.501 A  
HETATM   21  C   UNL     1     -11.359  15.961  71.171  1.00  0.00    -0.435 A  
HETATM   22  C   UNL     1     -12.916  15.153  72.828  1.00  0.00    -0.522 A  
HETATM   23  C   UNL     1     -12.325  13.754  70.930  1.00  0.00    -0.380 A  
HETATM   24 CL   UNL     1     -12.522  12.202  70.193  1.00  0.00    -0.173 Cl 
ENDBRANCH   8  18
TORSDOF 1
ENDMDL
MODEL       27
REMARK 921   NORMALIZED FREE ENERGY PREDICTED BY IDOCK:   -6.27 KCAL/MOL
REMARK 922        TOTAL FREE ENERGY PREDICTED BY IDOCK:   -7.27 KCAL/MOL
REMARK 923 INTER-LIGAND FREE ENERGY PREDICTED BY IDOCK:   -6.64 KCAL/MOL
REMARK 924 INTRA-LIGAND FREE ENERGY PREDICTED BY IDOCK:   -0.64 KCAL/MOL
REMARK 927      BINDING AFFINITY PREDICTED BY RF-SCORE:    0.00 PKD
ROOT
HETATM    1  C   UNL     1      -8.019   7.660  69.417  1.00  0.00    -0.125 C  
HETATM    2  C   UNL     1      -9.316   8.263  69.804  1.00  0.00    -0.158 A  
HETATM    3  N   UNL     1     -10.288   7.600  70.394  1.00  0.00    -0.211 NA 
HETATM    4  N   UNL     1     -11.394   8.401  70.431  1.00  0.00    -0.220 NA 
HETATM    5  C   UNL     1     -11.080   9.543  69.864  1.00  0.00    -0.216 A  
HETATM    6  C   UNL     1     -11.953  10.727  69.705  1.00  0.00    -0.325 C  
HETATM    7  N   UNL     1     -12.058  11.080  68.300  1.00  0.00    -0.788 NA 
HETATM    8  C   UNL     1     -11.046  11.534  67.645  1.00  0.00    -0.266 C  
HETATM    9  H   UNL     1     -12.951  10.967  67.823  1.00  0.00     0.000 HD 
HETATM   10  C   UNL     1      -8.916  12.803  67.843  1.00  0.00    -0.186 A  
HETATM   11  C   UNL     1      -9.658  11.667  68.219  1.00  0.00    -0.198 A  
HETATM   12  C   UNL     1      -9.034  10.664  68.997  1.00  0.00    -0.157 A  
HETATM   13 CL   UNL     1      -6.658  14.260  67.616  1.00  0.00    -0.190 Cl 
HETATM   14  N   UNL     1      -9.754   9.544  69.496  1.00  0.00    -0.179 NA 
HETATM   15  C   UNL     1      -7.567  12.909  68.169  1.00  0.00    -0.135 A  
HETATM   16  C   UNL     1      -7.679  10.810  69.347  1.00  0.00    -0.107 A  
HETATM   17  C   UNL     1      -6.946  11.919  68.916  1.00  0.00    -0.110 A  
ENDROOT
BRANCH   8  18
HETATM   18  C   UNL     1     -11.270  11.930  66.205  1.00  0.00    -0.392 A  
HETATM   19  C   UNL     1     -12.400  13.405  64.619  1.00  0.00    -0.433 A  
HETATM   20  C   UNL     1     -11.015  11.609  63.808  1.00  0.00    -0.495 A  
HETATM   21  C   UNL     1     -12.084  13.048  65.932  1.00  0.00    -0.503 A  
HETATM   22  C   UNL     1     -11.866  12.685  63.557  1.00  0.00    -0.619 A  
HETATM   23  C   UNL     1     -10.721  11.219  65.122  1.00  0.00    -0.246 A  
HETATM   24 CL   UNL     1      -9.736   9.807  65.285  1.00  0.00    -0.378 Cl 
ENDBRANCH   8  18
TORSDOF 1
ENDMDL
MODEL       28
REMARK 921   NORMALIZED FREE ENERGY PREDICTED BY IDOCK:   -6.24 KCAL/MOL
REMARK 922        TOTAL FREE ENERGY PREDICTED BY IDOCK:   -7.24 KCAL/MOL
REMARK 923 INTER-LIGAND FREE ENERGY PREDICTED BY IDOCK:   -6.60 KCAL/MOL
REMARK 924 INTRA-LIGAND FREE ENERGY PREDICTED BY IDOCK:   -0.64 KCAL/MOL
REMARK 927      BINDING AFFINITY PREDICTED BY RF-SCORE:    0.00 PKD
ROOT
HETATM    1  C   UNL     1      -9.747   9.122  69.614  1.00  0.00    -0.183 C  
HETATM    2  C   UNL     1     -10.071   9.436  68.202  1.00  0.00    -0.181 A  
HETATM    3  N   UNL     1      -9.892   8.597  67.203  1.00  0.00    -0.187 NA 
HETATM    4  N   UNL     1     -10.110   9.270  66.035  1.00  0.00    -0.270 NA 
HETATM    5  C   UNL     1     -10.420  10.510  66.337  1.00  0.00    -0.192 A  
HETATM    6  C   UNL     1     -10.768  11.595  65.394  1.00  0.00    -0.287 C  
HETATM    7  N   UNL     1      -9.865  12.718  65.576  1.00  0.00    -0.419 NA 
HETATM    8  C   UNL     1      -9.881  13.425  66.652  1.00  0.00    -0.278 C  
HETATM    9  H   UNL     1      -9.205  12.952  64.835  1.00  0.00     0.000 HD 
HETATM   10  C   UNL     1     -11.313  14.229  68.520  1.00  0.00    -0.309 A  
HETATM   11  C   UNL     1     -10.752  13.127  67.847  1.00  0.00    -0.249 A  
HETATM   12  C   UNL     1     -10.923  11.831  68.386  1.00  0.00    -0.231 A  
HETATM   13 CL   UNL     1     -12.560  15.430  70.588  1.00  0.00    -0.457 Cl 
HETATM   14  N   UNL     1     -10.471  10.668  67.703  1.00  0.00    -0.212 NA 
HETATM   15  C   UNL     1     -11.968  14.059  69.737  1.00  0.00    -0.334 A  
HETATM   16  C   UNL     1     -11.620  11.678  69.598  1.00  0.00    -0.401 A  
HETATM   17  C   UNL     1     -12.122  12.790  70.279  1.00  0.00    -0.373 A  
ENDROOT
BRANCH   8  18
HETATM   18  C   UNL     1      -8.945  14.608  66.722  1.00  0.00    -0.283 A  
HETATM   19  C   UNL     1      -6.889  15.567  67.628  1.00  0.00    -0.207 A  
HETATM   20  C   UNL     1      -8.340  16.919  66.262  1.00  0.00    -0.331 A  
HETATM   21  C   UNL     1      -7.746  14.478  67.453  1.00  0.00    -0.215 A  
HETATM   22  C   UNL     1      -7.186  16.788  67.033  1.00  0.00    -0.236 A  
HETATM   23  C   UNL     1      -9.227  15.844  66.109  1.00  0.00    -0.349 A  
HETATM   24 CL   UNL     1     -10.668  16.178  65.213  1.00  0.00    -0.416 Cl 
ENDBRANCH   8  18
TORSDOF 1
ENDMDL
MODEL       29
REMARK 921   NORMALIZED FREE ENERGY PREDICTED BY IDOCK:   -6.18 KCAL/MOL
REMARK 922        TOTAL FREE ENERGY PREDICTED BY IDOCK:   -7.18 KCAL/MOL
REMARK 923 INTER-LIGAND FREE ENERGY PREDICTED BY IDOCK:   -7.09 KCAL/MOL
REMARK 924 INTRA-LIGAND FREE ENERGY PREDICTED BY IDOCK:   -0.09 KCAL/MOL
REMARK 927      BINDING AFFINITY PREDICTED BY RF-SCORE:    0.00 PKD
ROOT
HETATM    1  C   UNL     1      -6.871  15.954  67.168  1.00  0.00    -0.199 C  
HETATM    2  C   UNL     1      -8.236  15.893  66.594  1.00  0.00    -0.282 A  
HETATM    3  N   UNL     1      -8.762  16.841  65.847  1.00  0.00    -0.512 NA 
HETATM    4  N   UNL     1     -10.083  16.552  65.654  1.00  0.00    -0.543 NA 
HETATM    5  C   UNL     1     -10.345  15.430  66.285  1.00  0.00    -0.294 A  
HETATM    6  C   UNL     1     -11.639  14.715  66.329  1.00  0.00    -0.342 C  
HETATM    7  N   UNL     1     -12.067  14.550  67.708  1.00  0.00    -0.598 NA 
HETATM    8  C   UNL     1     -11.428  13.783  68.521  1.00  0.00    -0.307 C  
HETATM    9  H   UNL     1     -12.890  15.052  68.038  1.00  0.00     0.000 HD 
HETATM   10  C   UNL     1     -10.000  11.752  68.683  1.00  0.00    -0.181 A  
HETATM   11  C   UNL     1     -10.153  13.056  68.173  1.00  0.00    -0.237 A  
HETATM   12  C   UNL     1      -9.074  13.656  67.483  1.00  0.00    -0.213 A  
HETATM   13 CL   UNL     1      -8.590   9.534  69.288  1.00  0.00    -0.139 Cl 
HETATM   14  N   UNL     1      -9.198  14.926  66.855  1.00  0.00    -0.232 NA 
HETATM   15  C   UNL     1      -8.782  11.086  68.574  1.00  0.00    -0.159 A  
HETATM   16  C   UNL     1      -7.865  12.950  67.352  1.00  0.00    -0.170 A  
HETATM   17  C   UNL     1      -7.716  11.679  67.913  1.00  0.00    -0.126 A  
ENDROOT
BRANCH   8  18
HETATM   18  C   UNL     1     -11.985  13.629  69.916  1.00  0.00    -0.415 A  
HETATM   19  C   UNL     1     -13.145  12.213  71.533  1.00  0.00    -0.357 A  
HETATM   20  C   UNL     1     -12.588  14.483  72.113  1.00  0.00    -0.391 A  
HETATM   21  C   UNL     1     -12.533  12.384  70.290  1.00  0.00    -0.152 A  
HETATM   22  C   UNL     1     -13.173  13.261  72.445  1.00  0.00    -0.539 A  
HETATM   23  C   UNL     1     -12.003  14.679  70.853  1.00  0.00    -0.326 A  
HETATM   24 CL   UNL     1     -11.408  16.272  70.540  1.00  0.00    -0.379 Cl 
ENDBRANCH   8  18
TORSDOF 1
ENDMDL
MODEL       30
REMARK 921   NORMALIZED FREE ENERGY PREDICTED BY IDOCK:   -6.11 KCAL/MOL
REMARK 922        TOTAL FREE ENERGY PREDICTED BY IDOCK:   -7.11 KCAL/MOL
REMARK 923 INTER-LIGAND FREE ENERGY PREDICTED BY IDOCK:   -6.48 KCAL/MOL
REMARK 924 INTRA-LIGAND FREE ENERGY PREDICTED BY IDOCK:   -0.63 KCAL/MOL
REMARK 927      BINDING AFFINITY PREDICTED BY RF-SCORE:    0.00 PKD
ROOT
HETATM    1  C   UNL     1     -12.142  14.202  67.490  1.00  0.00    -0.363 C  
HETATM    2  C   UNL     1     -11.946  13.740  66.096  1.00  0.00    -0.418 A  
HETATM    3  N   UNL     1     -12.820  13.927  65.130  1.00  0.00    -0.748 NA 
HETATM    4  N   UNL     1     -12.413  13.215  64.038  1.00  0.00    -0.651 NA 
HETATM    5  C   UNL     1     -11.294  12.603  64.353  1.00  0.00    -0.344 A  
HETATM    6  C   UNL     1     -10.472  11.742  63.474  1.00  0.00    -0.449 C  
HETATM    7  N   UNL     1     -10.316  10.428  64.073  1.00  0.00    -0.432 NA 
HETATM    8  C   UNL     1      -9.634  10.259  65.152  1.00  0.00    -0.277 C  
HETATM    9  H   UNL     1     -10.756   9.623  63.629  1.00  0.00     0.000 HD 
HETATM   10  C   UNL     1      -7.740  11.139  66.503  1.00  0.00    -0.146 A  
HETATM   11  C   UNL     1      -9.008  11.382  65.942  1.00  0.00    -0.184 A  
HETATM   12  C   UNL     1      -9.676  12.590  66.245  1.00  0.00    -0.254 A  
HETATM   13 CL   UNL     1      -5.672  11.679  68.148  1.00  0.00    -0.046 Cl 
HETATM   14  N   UNL     1     -10.909  12.942  65.630  1.00  0.00    -0.270 NA 
HETATM   15  C   UNL     1      -7.177  12.042  67.401  1.00  0.00    -0.144 A  
HETATM   16  C   UNL     1      -9.072  13.506  67.125  1.00  0.00    -0.232 A  
HETATM   17  C   UNL     1      -7.837  13.222  67.715  1.00  0.00    -0.157 A  
ENDROOT
BRANCH   8  18
HETATM   18  C   UNL     1      -9.479   8.847  65.664  1.00  0.00    -0.230 A  
HETATM   19  C   UNL     1     -10.163   7.147  67.280  1.00  0.00    -0.315 A  
HETATM   20  C   UNL     1      -8.387   6.674  65.723  1.00  0.00    -0.143 A  
HETATM   21  C   UNL     1     -10.323   8.410  66.705  1.00  0.00    -0.357 A  
HETATM   22  C   UNL     1      -9.195   6.279  66.789  1.00  0.00    -0.147 A  
HETATM   23  C   UNL     1      -8.514   7.953  65.163  1.00  0.00    -0.079 A  
HETATM   24 CL   UNL     1      -7.380   8.345  63.917  1.00  0.00    -0.097 Cl 
ENDBRANCH   8  18
TORSDOF 1
ENDMDL
MODEL       31
REMARK 921   NORMALIZED FREE ENERGY PREDICTED BY IDOCK:   -6.11 KCAL/MOL
REMARK 922        TOTAL FREE ENERGY PREDICTED BY IDOCK:   -7.11 KCAL/MOL
REMARK 923 INTER-LIGAND FREE ENERGY PREDICTED BY IDOCK:   -6.66 KCAL/MOL
REMARK 924 INTRA-LIGAND FREE ENERGY PREDICTED BY IDOCK:   -0.44 KCAL/MOL
REMARK 927      BINDING AFFINITY PREDICTED BY RF-SCORE:    0.00 PKD
ROOT
HETATM    1  C   UNL     1     -11.437  12.598  66.313  1.00  0.00    -0.415 C  
HETATM    2  C   UNL     1     -11.349  13.961  65.737  1.00  0.00    -0.307 A  
HETATM    3  N   UNL     1     -11.326  14.212  64.445  1.00  0.00    -0.337 NA 
HETATM    4  N   UNL     1     -11.049  15.538  64.270  1.00  0.00    -0.159 NA 
HETATM    5  C   UNL     1     -10.907  16.078  65.459  1.00  0.00    -0.292 A  
HETATM    6  C   UNL     1     -10.631  17.499  65.763  1.00  0.00    -0.174 C  
HETATM    7  N   UNL     1      -9.416  17.610  66.551  1.00  0.00    -0.277 NA 
HETATM    8  C   UNL     1      -9.356  17.169  67.759  1.00  0.00    -0.245 C  
HETATM    9  H   UNL     1      -8.592  18.046  66.137  1.00  0.00     0.000 HD 
HETATM   10  C   UNL     1     -10.686  16.714  69.811  1.00  0.00    -0.254 A  
HETATM   11  C   UNL     1     -10.478  16.433  68.447  1.00  0.00    -0.298 A  
HETATM   12  C   UNL     1     -11.231  15.405  67.834  1.00  0.00    -0.329 A  
HETATM   13 CL   UNL     1     -11.731  16.245  72.252  1.00  0.00    -0.579 Cl 
HETATM   14  N   UNL     1     -11.145  15.141  66.439  1.00  0.00    -0.335 NA 
HETATM   15  C   UNL     1     -11.567  15.946  70.568  1.00  0.00    -0.381 A  
HETATM   16  C   UNL     1     -12.143  14.667  68.608  1.00  0.00    -0.237 A  
HETATM   17  C   UNL     1     -12.295  14.924  69.974  1.00  0.00    -0.358 A  
ENDROOT
BRANCH   8  18
HETATM   18  C   UNL     1      -8.067  17.385  68.516  1.00  0.00    -0.270 A  
HETATM   19  C   UNL     1      -6.233  16.402  69.796  1.00  0.00    -0.204 A  
HETATM   20  C   UNL     1      -6.362  18.792  69.529  1.00  0.00    -0.277 A  
HETATM   21  C   UNL     1      -7.378  16.258  69.011  1.00  0.00    -0.214 A  
HETATM   22  C   UNL     1      -5.724  17.669  70.056  1.00  0.00    -0.246 A  
HETATM   23  C   UNL     1      -7.534  18.662  68.771  1.00  0.00    -0.295 A  
HETATM   24 CL   UNL     1      -8.274  20.142  68.268  1.00  0.00    -0.180 Cl 
ENDBRANCH   8  18
TORSDOF 1
ENDMDL
MODEL       32
REMARK 921   NORMALIZED FREE ENERGY PREDICTED BY IDOCK:   -6.10 KCAL/MOL
REMARK 922        TOTAL FREE ENERGY PREDICTED BY IDOCK:   -7.10 KCAL/MOL
REMARK 923 INTER-LIGAND FREE ENERGY PREDICTED BY IDOCK:   -6.51 KCAL/MOL
REMARK 924 INTRA-LIGAND FREE ENERGY PREDICTED BY IDOCK:   -0.59 KCAL/MOL
REMARK 927      BINDING AFFINITY PREDICTED BY RF-SCORE:    0.00 PKD
ROOT
HETATM    1  C   UNL     1      -6.761  19.923  69.281  1.00  0.00    -0.361 C  
HETATM    2  C   UNL     1      -7.801  19.619  68.271  1.00  0.00    -0.320 A  
HETATM    3  N   UNL     1      -8.426  20.535  67.561  1.00  0.00    -0.289 NA 
HETATM    4  N   UNL     1      -9.442  19.929  66.878  1.00  0.00    -0.361 NA 
HETATM    5  C   UNL     1      -9.421  18.650  67.178  1.00  0.00    -0.295 A  
HETATM    6  C   UNL     1     -10.315  17.597  66.650  1.00  0.00    -0.333 C  
HETATM    7  N   UNL     1     -10.996  16.930  67.746  1.00  0.00    -0.273 NA 
HETATM    8  C   UNL     1     -10.355  16.195  68.587  1.00  0.00    -0.252 C  
HETATM    9  H   UNL     1     -12.004  17.047  67.852  1.00  0.00     0.000 HD 
HETATM   10  C   UNL     1      -8.368  14.728  68.883  1.00  0.00    -0.163 A  
HETATM   11  C   UNL     1      -8.858  16.014  68.582  1.00  0.00    -0.210 A  
HETATM   12  C   UNL     1      -7.942  17.078  68.420  1.00  0.00    -0.239 A  
HETATM   13 CL   UNL     1      -6.444  12.960  69.550  1.00  0.00    -0.104 Cl 
HETATM   14  N   UNL     1      -8.363  18.375  68.014  1.00  0.00    -0.265 NA 
HETATM   15  C   UNL     1      -7.007  14.517  69.089  1.00  0.00    -0.131 A  
HETATM   16  C   UNL     1      -6.568  16.835  68.596  1.00  0.00    -0.169 A  
HETATM   17  C   UNL     1      -6.107  15.564  68.948  1.00  0.00    -0.099 A  
ENDROOT
BRANCH   8  18
HETATM   18  C   UNL     1     -11.161  15.495  69.655  1.00  0.00    -0.280 A  
HETATM   19  C   UNL     1     -11.968  15.485  71.961  1.00  0.00    -0.518 A  
HETATM   20  C   UNL     1     -12.436  13.612  70.520  1.00  0.00    -0.394 A  
HETATM   21  C   UNL     1     -11.313  16.126  70.907  1.00  0.00    -0.394 A  
HETATM   22  C   UNL     1     -12.529  14.228  71.768  1.00  0.00    -0.396 A  
HETATM   23  C   UNL     1     -11.748  14.230  69.466  1.00  0.00    -0.316 A  
HETATM   24 CL   UNL     1     -11.623  13.309  68.008  1.00  0.00    -0.349 Cl 
ENDBRANCH   8  18
TORSDOF 1
ENDMDL
MODEL       33
REMARK 921   NORMALIZED FREE ENERGY PREDICTED BY IDOCK:   -6.08 KCAL/MOL
REMARK 922        TOTAL FREE ENERGY PREDICTED BY IDOCK:   -7.08 KCAL/MOL
REMARK 923 INTER-LIGAND FREE ENERGY PREDICTED BY IDOCK:   -7.08 KCAL/MOL
REMARK 924 INTRA-LIGAND FREE ENERGY PREDICTED BY IDOCK:    0.00 KCAL/MOL
REMARK 927      BINDING AFFINITY PREDICTED BY RF-SCORE:    0.00 PKD
ROOT
HETATM    1  C   UNL     1     -12.356  12.291  63.912  1.00  0.00    -0.606 C  
HETATM    2  C   UNL     1     -11.074  11.727  64.395  1.00  0.00    -0.334 A  
HETATM    3  N   UNL     1     -10.318  10.912  63.690  1.00  0.00    -0.345 NA 
HETATM    4  N   UNL     1      -9.324  10.440  64.500  1.00  0.00    -0.238 NA 
HETATM    5  C   UNL     1      -9.487  10.976  65.689  1.00  0.00    -0.217 A  
HETATM    6  C   UNL     1      -8.629  10.780  66.878  1.00  0.00    -0.132 C  
HETATM    7  N   UNL     1      -9.423  10.268  67.982  1.00  0.00    -0.145 NA 
HETATM    8  C   UNL     1     -10.328  10.989  68.548  1.00  0.00    -0.190 C  
HETATM    9  H   UNL     1      -9.260   9.319  68.315  1.00  0.00     0.000 HD 
HETATM   10  C   UNL     1     -11.005  13.319  69.094  1.00  0.00    -0.208 A  
HETATM   11  C   UNL     1     -10.715  12.373  68.092  1.00  0.00    -0.243 A  
HETATM   12  C   UNL     1     -10.919  12.721  66.737  1.00  0.00    -0.270 A  
HETATM   13 CL   UNL     1     -11.990  15.657  70.011  1.00  0.00    -0.377 Cl 
HETATM   14  N   UNL     1     -10.548  11.851  65.674  1.00  0.00    -0.259 NA 
HETATM   15  C   UNL     1     -11.554  14.556  68.764  1.00  0.00    -0.312 A  
HETATM   16  C   UNL     1     -11.438  13.990  66.425  1.00  0.00    -0.361 A  
HETATM   17  C   UNL     1     -11.772  14.895  67.436  1.00  0.00    -0.311 A  
ENDROOT
BRANCH   8  18
HETATM   18  C   UNL     1     -11.058  10.390  69.727  1.00  0.00    -0.352 A  
HETATM   19  C   UNL     1     -13.152  10.168  70.965  1.00  0.00    -0.458 A  
HETATM   20  C   UNL     1     -11.142   9.154  71.820  1.00  0.00    -0.437 A  
HETATM   21  C   UNL     1     -12.444  10.619  69.849  1.00  0.00    -0.241 A  
HETATM   22  C   UNL     1     -12.502   9.436  71.951  1.00  0.00    -0.468 A  
HETATM   23  C   UNL     1     -10.413   9.633  70.722  1.00  0.00    -0.305 A  
HETATM   24 CL   UNL     1      -8.717   9.295  70.741  1.00  0.00    -0.275 Cl 
ENDBRANCH   8  18
TORSDOF 1
ENDMDL
MODEL       34
REMARK 921   NORMALIZED FREE ENERGY PREDICTED BY IDOCK:   -6.08 KCAL/MOL
REMARK 922        TOTAL FREE ENERGY PREDICTED BY IDOCK:   -7.07 KCAL/MOL
REMARK 923 INTER-LIGAND FREE ENERGY PREDICTED BY IDOCK:   -6.65 KCAL/MOL
REMARK 924 INTRA-LIGAND FREE ENERGY PREDICTED BY IDOCK:   -0.42 KCAL/MOL
REMARK 927      BINDING AFFINITY PREDICTED BY RF-SCORE:    0.00 PKD
ROOT
HETATM    1  C   UNL     1     -11.080   6.025  71.304  1.00  0.00    -0.337 C  
HETATM    2  C   UNL     1     -11.908   7.252  71.359  1.00  0.00    -0.305 A  
HETATM    3  N   UNL     1     -13.176   7.267  71.714  1.00  0.00    -0.341 NA 
HETATM    4  N   UNL     1     -13.675   8.515  71.470  1.00  0.00    -0.344 NA 
HETATM    5  C   UNL     1     -12.704   9.245  70.970  1.00  0.00    -0.165 A  
HETATM    6  C   UNL     1     -12.772  10.671  70.583  1.00  0.00    -0.359 C  
HETATM    7  N   UNL     1     -12.402  10.823  69.186  1.00  0.00    -0.736 NA 
HETATM    8  C   UNL     1     -11.200  10.600  68.782  1.00  0.00    -0.279 C  
HETATM    9  H   UNL     1     -13.110  11.113  68.512  1.00  0.00     0.000 HD 
HETATM   10  C   UNL     1      -8.806  10.623  69.455  1.00  0.00    -0.037 A  
HETATM   11  C   UNL     1     -10.091  10.089  69.667  1.00  0.00    -0.263 A  
HETATM   12  C   UNL     1     -10.253   9.032  70.592  1.00  0.00    -0.229 A  
HETATM   13 CL   UNL     1      -6.125  10.680  69.742  1.00  0.00    -0.063 Cl 
HETATM   14  N   UNL     1     -11.536   8.519  70.929  1.00  0.00    -0.275 NA 
HETATM   15  C   UNL     1      -7.695  10.074  70.090  1.00  0.00    -0.143 A  
HETATM   16  C   UNL     1      -9.122   8.517  71.251  1.00  0.00    -0.250 A  
HETATM   17  C   UNL     1      -7.847   9.024  70.985  1.00  0.00    -0.174 A  
ENDROOT
BRANCH   8  18
HETATM   18  C   UNL     1     -10.900  10.844  67.322  1.00  0.00    -0.342 A  
HETATM   19  C   UNL     1     -10.008   9.972  65.222  1.00  0.00    -0.368 A  
HETATM   20  C   UNL     1     -10.732  12.265  65.355  1.00  0.00    -0.320 A  
HETATM   21  C   UNL     1     -10.390   9.779  66.551  1.00  0.00    -0.262 A  
HETATM   22  C   UNL     1     -10.179  11.215  64.624  1.00  0.00    -0.376 A  
HETATM   23  C   UNL     1     -11.085  12.093  66.702  1.00  0.00    -0.306 A  
HETATM   24 CL   UNL     1     -11.664  13.506  67.514  1.00  0.00    -0.380 Cl 
ENDBRANCH   8  18
TORSDOF 1
ENDMDL
MODEL       35
REMARK 921   NORMALIZED FREE ENERGY PREDICTED BY IDOCK:   -6.04 KCAL/MOL
REMARK 922        TOTAL FREE ENERGY PREDICTED BY IDOCK:   -7.03 KCAL/MOL
REMARK 923 INTER-LIGAND FREE ENERGY PREDICTED BY IDOCK:   -6.50 KCAL/MOL
REMARK 924 INTRA-LIGAND FREE ENERGY PREDICTED BY IDOCK:   -0.53 KCAL/MOL
REMARK 927      BINDING AFFINITY PREDICTED BY RF-SCORE:    0.00 PKD
ROOT
HETATM    1  C   UNL     1      -7.921   8.952  66.584  1.00  0.00    -0.103 C  
HETATM    2  C   UNL     1      -8.681   9.450  65.414  1.00  0.00    -0.166 A  
HETATM    3  N   UNL     1      -8.462   9.060  64.175  1.00  0.00    -0.184 NA 
HETATM    4  N   UNL     1      -9.197   9.852  63.340  1.00  0.00    -0.265 NA 
HETATM    5  C   UNL     1      -9.856  10.713  64.080  1.00  0.00    -0.338 A  
HETATM    6  C   UNL     1     -10.805  11.747  63.611  1.00  0.00    -0.440 C  
HETATM    7  N   UNL     1     -10.365  13.060  64.052  1.00  0.00    -0.579 NA 
HETATM    8  C   UNL     1     -10.370  13.385  65.298  1.00  0.00    -0.319 C  
HETATM    9  H   UNL     1     -10.045  13.737  63.360  1.00  0.00     0.000 HD 
HETATM   10  C   UNL     1     -11.481  12.983  67.486  1.00  0.00    -0.375 A  
HETATM   11  C   UNL     1     -10.741  12.444  66.417  1.00  0.00    -0.277 A  
HETATM   12  C   UNL     1     -10.281  11.110  66.500  1.00  0.00    -0.231 A  
HETATM   13 CL   UNL     1     -12.522  12.952  69.974  1.00  0.00    -0.158 Cl 
HETATM   14  N   UNL     1      -9.619  10.474  65.414  1.00  0.00    -0.217 NA 
HETATM   15  C   UNL     1     -11.699  12.239  68.643  1.00  0.00    -0.328 A  
HETATM   16  C   UNL     1     -10.545  10.365  67.663  1.00  0.00    -0.304 A  
HETATM   17  C   UNL     1     -11.234  10.935  68.737  1.00  0.00    -0.329 A  
ENDROOT
BRANCH   8  18
HETATM   18  C   UNL     1      -9.952  14.793  65.651  1.00  0.00    -0.390 A  
HETATM   19  C   UNL     1      -8.411  16.247  66.867  1.00  0.00    -0.257 A  
HETATM   20  C   UNL     1     -10.266  17.205  65.665  1.00  0.00    -0.162 A  
HETATM   21  C   UNL     1      -8.792  14.976  66.433  1.00  0.00    -0.238 A  
HETATM   22  C   UNL     1      -9.147  17.362  66.483  1.00  0.00    -0.288 A  
HETATM   23  C   UNL     1     -10.680  15.930  65.254  1.00  0.00    -0.424 A  
HETATM   24 CL   UNL     1     -12.140  15.875  64.329  1.00  0.00    -0.122 Cl 
ENDBRANCH   8  18
TORSDOF 1
ENDMDL
MODEL       36
REMARK 921   NORMALIZED FREE ENERGY PREDICTED BY IDOCK:   -5.97 KCAL/MOL
REMARK 922        TOTAL FREE ENERGY PREDICTED BY IDOCK:   -6.96 KCAL/MOL
REMARK 923 INTER-LIGAND FREE ENERGY PREDICTED BY IDOCK:   -6.39 KCAL/MOL
REMARK 924 INTRA-LIGAND FREE ENERGY PREDICTED BY IDOCK:   -0.58 KCAL/MOL
REMARK 927      BINDING AFFINITY PREDICTED BY RF-SCORE:    0.00 PKD
ROOT
HETATM    1  C   UNL     1     -12.324  14.445  66.545  1.00  0.00    -0.272 C  
HETATM    2  C   UNL     1     -11.928  13.763  65.290  1.00  0.00    -0.374 A  
HETATM    3  N   UNL     1     -12.648  13.775  64.188  1.00  0.00    -0.685 NA 
HETATM    4  N   UNL     1     -12.089  12.900  63.301  1.00  0.00    -0.573 NA 
HETATM    5  C   UNL     1     -11.034  12.367  63.873  1.00  0.00    -0.414 A  
HETATM    6  C   UNL     1     -10.098  11.388  63.279  1.00  0.00    -0.387 C  
HETATM    7  N   UNL     1     -10.043  10.192  64.102  1.00  0.00    -0.463 NA 
HETATM    8  C   UNL     1      -9.529  10.214  65.283  1.00  0.00    -0.248 C  
HETATM    9  H   UNL     1     -10.419   9.318  63.737  1.00  0.00     0.000 HD 
HETATM   10  C   UNL     1      -7.849  11.335  66.734  1.00  0.00    -0.155 A  
HETATM   11  C   UNL     1      -9.019  11.461  65.960  1.00  0.00    -0.203 A  
HETATM   12  C   UNL     1      -9.714  12.692  65.959  1.00  0.00    -0.229 A  
HETATM   13 CL   UNL     1      -6.043  12.172  68.554  1.00  0.00    -0.050 Cl 
HETATM   14  N   UNL     1     -10.840  12.917  65.120  1.00  0.00    -0.289 NA 
HETATM   15  C   UNL     1      -7.418  12.382  67.544  1.00  0.00    -0.150 A  
HETATM   16  C   UNL     1      -9.239  13.749  66.755  1.00  0.00    -0.255 A  
HETATM   17  C   UNL     1      -8.108  13.587  67.559  1.00  0.00    -0.190 A  
ENDROOT
BRANCH   8  18
HETATM   18  C   UNL     1      -9.463   8.907  66.037  1.00  0.00    -0.320 A  
HETATM   19  C   UNL     1      -8.690   6.591  66.093  1.00  0.00    -0.153 A  
HETATM   20  C   UNL     1     -10.076   7.434  67.873  1.00  0.00    -0.220 A  
HETATM   21  C   UNL     1      -8.711   7.849  65.487  1.00  0.00    -0.112 A  
HETATM   22  C   UNL     1      -9.372   6.383  67.286  1.00  0.00    -0.125 A  
HETATM   23  C   UNL     1     -10.136   8.691  67.254  1.00  0.00    -0.244 A  
HETATM   24 CL   UNL     1     -11.127   9.870  68.039  1.00  0.00    -0.272 Cl 
ENDBRANCH   8  18
TORSDOF 1
ENDMDL
MODEL       37
REMARK 921   NORMALIZED FREE ENERGY PREDICTED BY IDOCK:   -5.89 KCAL/MOL
REMARK 922        TOTAL FREE ENERGY PREDICTED BY IDOCK:   -6.88 KCAL/MOL
REMARK 923 INTER-LIGAND FREE ENERGY PREDICTED BY IDOCK:   -6.32 KCAL/MOL
REMARK 924 INTRA-LIGAND FREE ENERGY PREDICTED BY IDOCK:   -0.55 KCAL/MOL
REMARK 927      BINDING AFFINITY PREDICTED BY RF-SCORE:    0.00 PKD
ROOT
HETATM    1  C   UNL     1     -11.729   5.867  71.552  1.00  0.00    -0.058 C  
HETATM    2  C   UNL     1     -12.410   7.183  71.541  1.00  0.00    -0.370 A  
HETATM    3  N   UNL     1     -13.688   7.351  71.811  1.00  0.00    -0.349 NA 
HETATM    4  N   UNL     1     -14.021   8.644  71.523  1.00  0.00    -0.377 NA 
HETATM    5  C   UNL     1     -12.941   9.248  71.084  1.00  0.00    -0.203 A  
HETATM    6  C   UNL     1     -12.815  10.666  70.682  1.00  0.00    -0.320 C  
HETATM    7  N   UNL     1     -12.340  10.752  69.312  1.00  0.00    -0.691 NA 
HETATM    8  C   UNL     1     -11.148  10.384  68.990  1.00  0.00    -0.248 C  
HETATM    9  H   UNL     1     -12.963  11.111  68.589  1.00  0.00     0.000 HD 
HETATM   10  C   UNL     1      -8.817  10.140  69.821  1.00  0.00    -0.152 A  
HETATM   11  C   UNL     1     -10.167   9.762  69.952  1.00  0.00    -0.291 A  
HETATM   12  C   UNL     1     -10.512   8.746  70.872  1.00  0.00    -0.221 A  
HETATM   13 CL   UNL     1      -6.172   9.889  70.286  1.00  0.00    -0.070 Cl 
HETATM   14  N   UNL     1     -11.865   8.391  71.127  1.00  0.00    -0.287 NA 
HETATM   15  C   UNL     1      -7.822   9.476  70.534  1.00  0.00    -0.157 A  
HETATM   16  C   UNL     1      -9.495   8.114  71.609  1.00  0.00    -0.233 A  
HETATM   17  C   UNL     1      -8.155   8.465  71.425  1.00  0.00    -0.162 A  
ENDROOT
BRANCH   8  18
HETATM   18  C   UNL     1     -10.727  10.569  67.552  1.00  0.00    -0.326 A  
HETATM   19  C   UNL     1     -10.451  12.087  65.658  1.00  0.00    -0.293 A  
HETATM   20  C   UNL     1     -10.016   9.734  65.380  1.00  0.00    -0.302 A  
HETATM   21  C   UNL     1     -10.742  11.869  67.006  1.00  0.00    -0.280 A  
HETATM   22  C   UNL     1     -10.089  11.020  64.844  1.00  0.00    -0.359 A  
HETATM   23  C   UNL     1     -10.342   9.498  66.724  1.00  0.00    -0.228 A  
HETATM   24 CL   UNL     1     -10.307   7.844  67.227  1.00  0.00    -0.348 Cl 
ENDBRANCH   8  18
TORSDOF 1
ENDMDL
MODEL       38
REMARK 921   NORMALIZED FREE ENERGY PREDICTED BY IDOCK:   -5.84 KCAL/MOL
REMARK 922        TOTAL FREE ENERGY PREDICTED BY IDOCK:   -6.83 KCAL/MOL
REMARK 923 INTER-LIGAND FREE ENERGY PREDICTED BY IDOCK:   -6.32 KCAL/MOL
REMARK 924 INTRA-LIGAND FREE ENERGY PREDICTED BY IDOCK:   -0.50 KCAL/MOL
REMARK 927      BINDING AFFINITY PREDICTED BY RF-SCORE:    0.00 PKD
ROOT
HETATM    1  C   UNL     1      -7.329  12.858  67.223  1.00  0.00    -0.077 C  
HETATM    2  C   UNL     1      -8.680  13.207  67.721  1.00  0.00    -0.188 A  
HETATM    3  N   UNL     1      -9.049  14.428  68.048  1.00  0.00    -0.181 NA 
HETATM    4  N   UNL     1     -10.277  14.361  68.641  1.00  0.00    -0.242 NA 
HETATM    5  C   UNL     1     -10.642  13.099  68.667  1.00  0.00    -0.239 A  
HETATM    6  C   UNL     1     -11.913  12.550  69.188  1.00  0.00    -0.236 C  
HETATM    7  N   UNL     1     -11.642  11.567  70.222  1.00  0.00    -0.504 NA 
HETATM    8  C   UNL     1     -11.077  10.443  69.948  1.00  0.00    -0.305 C  
HETATM    9  H   UNL     1     -11.903  11.773  71.186  1.00  0.00     0.000 HD 
HETATM   10  C   UNL     1     -10.754   8.723  68.179  1.00  0.00    -0.131 A  
HETATM   11  C   UNL     1     -10.572  10.062  68.578  1.00  0.00    -0.245 A  
HETATM   12  C   UNL     1      -9.829  10.932  67.750  1.00  0.00    -0.175 A  
HETATM   13 CL   UNL     1     -10.308   6.581  66.604  1.00  0.00    -0.245 Cl 
HETATM   14  N   UNL     1      -9.696  12.318  68.043  1.00  0.00    -0.200 NA 
HETATM   15  C   UNL     1     -10.152   8.241  67.020  1.00  0.00    -0.283 A  
HETATM   16  C   UNL     1      -9.261  10.433  66.564  1.00  0.00    -0.184 A  
HETATM   17  C   UNL     1      -9.406   9.088  66.213  1.00  0.00    -0.284 A  
ENDROOT
BRANCH   8  18
HETATM   18  C   UNL     1     -10.892   9.462  71.081  1.00  0.00    -0.427 A  
HETATM   19  C   UNL     1      -9.355   8.110  72.413  1.00  0.00    -0.308 A  
HETATM   20  C   UNL     1     -11.728   7.944  72.788  1.00  0.00    -0.338 A  
HETATM   21  C   UNL     1      -9.582   9.082  71.437  1.00  0.00    -0.356 A  
HETATM   22  C   UNL     1     -10.428   7.540  73.089  1.00  0.00    -0.419 A  
HETATM   23  C   UNL     1     -11.970   8.892  71.783  1.00  0.00    -0.359 A  
HETATM   24 CL   UNL     1     -13.634   9.222  71.446  1.00  0.00    -0.397 Cl 
ENDBRANCH   8  18
TORSDOF 1
ENDMDL
MODEL       39
REMARK 921   NORMALIZED FREE ENERGY PREDICTED BY IDOCK:   -5.84 KCAL/MOL
REMARK 922        TOTAL FREE ENERGY PREDICTED BY IDOCK:   -6.82 KCAL/MOL
REMARK 923 INTER-LIGAND FREE ENERGY PREDICTED BY IDOCK:   -6.17 KCAL/MOL
REMARK 924 INTRA-LIGAND FREE ENERGY PREDICTED BY IDOCK:   -0.65 KCAL/MOL
REMARK 927      BINDING AFFINITY PREDICTED BY RF-SCORE:    0.00 PKD
ROOT
HETATM    1  C   UNL     1      -9.783   9.115  65.808  1.00  0.00    -0.299 C  
HETATM    2  C   UNL     1      -8.724   9.983  66.375  1.00  0.00    -0.129 A  
HETATM    3  N   UNL     1      -7.613   9.529  66.915  1.00  0.00    -0.094 NA 
HETATM    4  N   UNL     1      -6.961  10.576  67.501  1.00  0.00    -0.079 NA 
HETATM    5  C   UNL     1      -7.684  11.657  67.309  1.00  0.00    -0.154 A  
HETATM    6  C   UNL     1      -7.357  13.034  67.739  1.00  0.00    -0.139 C  
HETATM    7  N   UNL     1      -8.420  13.554  68.582  1.00  0.00    -0.337 NA 
HETATM    8  C   UNL     1      -9.591  13.803  68.108  1.00  0.00    -0.216 C  
HETATM    9  H   UNL     1      -8.234  13.726  69.570  1.00  0.00     0.000 HD 
HETATM   10  C   UNL     1     -10.845  14.458  66.061  1.00  0.00    -0.309 A  
HETATM   11  C   UNL     1     -10.008  13.514  66.687  1.00  0.00    -0.282 A  
HETATM   12  C   UNL     1      -9.709  12.306  66.016  1.00  0.00    -0.242 A  
HETATM   13 CL   UNL     1     -12.524  15.306  64.129  1.00  0.00    -0.193 Cl 
HETATM   14  N   UNL     1      -8.790  11.359  66.547  1.00  0.00    -0.183 NA 
HETATM   15  C   UNL     1     -11.430  14.180  64.829  1.00  0.00    -0.383 A  
HETATM   16  C   UNL     1     -10.281  12.062  64.755  1.00  0.00    -0.311 A  
HETATM   17  C   UNL     1     -11.153  12.988  64.174  1.00  0.00    -0.437 A  
ENDROOT
BRANCH   8  18
HETATM   18  C   UNL     1     -10.611  14.399  69.049  1.00  0.00    -0.245 A  
HETATM   19  C   UNL     1     -11.306  16.312  70.400  1.00  0.00    -0.313 A  
HETATM   20  C   UNL     1     -12.583  14.270  70.468  1.00  0.00    -0.418 A  
HETATM   21  C   UNL     1     -10.447  15.738  69.460  1.00  0.00    -0.270 A  
HETATM   22  C   UNL     1     -12.374  15.578  70.904  1.00  0.00    -0.474 A  
HETATM   23  C   UNL     1     -11.705  13.672  69.552  1.00  0.00    -0.322 A  
HETATM   24 CL   UNL     1     -12.025  12.014  69.178  1.00  0.00    -0.347 Cl 
ENDBRANCH   8  18
TORSDOF 1
ENDMDL
MODEL       40
REMARK 921   NORMALIZED FREE ENERGY PREDICTED BY IDOCK:   -5.81 KCAL/MOL
REMARK 922        TOTAL FREE ENERGY PREDICTED BY IDOCK:   -6.79 KCAL/MOL
REMARK 923 INTER-LIGAND FREE ENERGY PREDICTED BY IDOCK:   -6.19 KCAL/MOL
REMARK 924 INTRA-LIGAND FREE ENERGY PREDICTED BY IDOCK:   -0.60 KCAL/MOL
REMARK 927      BINDING AFFINITY PREDICTED BY RF-SCORE:    0.00 PKD
ROOT
HETATM    1  C   UNL     1     -12.098  13.844  67.063  1.00  0.00    -0.451 C  
HETATM    2  C   UNL     1     -10.684  13.509  67.357  1.00  0.00    -0.263 A  
HETATM    3  N   UNL     1      -9.657  14.052  66.737  1.00  0.00    -0.276 NA 
HETATM    4  N   UNL     1      -8.527  13.384  67.113  1.00  0.00    -0.194 NA 
HETATM    5  C   UNL     1      -8.880  12.442  67.959  1.00  0.00    -0.187 A  
HETATM    6  C   UNL     1      -7.987  11.489  68.653  1.00  0.00    -0.135 C  
HETATM    7  N   UNL     1      -8.385  10.126  68.349  1.00  0.00    -0.110 NA 
HETATM    8  C   UNL     1      -9.502   9.643  68.772  1.00  0.00    -0.148 C  
HETATM    9  H   UNL     1      -7.768   9.539  67.789  1.00  0.00     0.000 HD 
HETATM   10  C   UNL     1     -11.203   9.775  70.582  1.00  0.00    -0.402 A  
HETATM   11  C   UNL     1     -10.531  10.437  69.536  1.00  0.00    -0.274 A  
HETATM   12  C   UNL     1     -10.935  11.744  69.177  1.00  0.00    -0.209 A  
HETATM   13 CL   UNL     1     -13.161   9.500  72.416  1.00  0.00    -0.475 Cl 
HETATM   14  N   UNL     1     -10.233  12.506  68.203  1.00  0.00    -0.225 NA 
HETATM   15  C   UNL     1     -12.297  10.366  71.209  1.00  0.00    -0.401 A  
HETATM   16  C   UNL     1     -12.018  12.337  69.850  1.00  0.00    -0.377 A  
HETATM   17  C   UNL     1     -12.707  11.642  70.848  1.00  0.00    -0.351 A  
ENDROOT
BRANCH   8  18
HETATM   18  C   UNL     1      -9.799   8.197  68.456  1.00  0.00    -0.190 A  
HETATM   19  C   UNL     1     -10.944   6.590  67.015  1.00  0.00    -0.466 A  
HETATM   20  C   UNL     1      -9.730   5.815  68.945  1.00  0.00    -0.174 A  
HETATM   21  C   UNL     1     -10.561   7.901  67.306  1.00  0.00    -0.365 A  
HETATM   22  C   UNL     1     -10.529   5.547  67.835  1.00  0.00    -0.244 A  
HETATM   23  C   UNL     1      -9.370   7.131  69.268  1.00  0.00    -0.146 A  
HETATM   24 CL   UNL     1      -8.463   7.326  70.728  1.00  0.00    -0.131 Cl 
ENDBRANCH   8  18
TORSDOF 1
ENDMDL
MODEL       41
REMARK 921   NORMALIZED FREE ENERGY PREDICTED BY IDOCK:   -5.80 KCAL/MOL
REMARK 922        TOTAL FREE ENERGY PREDICTED BY IDOCK:   -6.78 KCAL/MOL
REMARK 923 INTER-LIGAND FREE ENERGY PREDICTED BY IDOCK:   -6.35 KCAL/MOL
REMARK 924 INTRA-LIGAND FREE ENERGY PREDICTED BY IDOCK:   -0.43 KCAL/MOL
REMARK 927      BINDING AFFINITY PREDICTED BY RF-SCORE:    0.00 PKD
ROOT
HETATM    1  C   UNL     1     -10.766   5.998  68.854  1.00  0.00    -0.384 C  
HETATM    2  C   UNL     1     -11.286   6.931  69.880  1.00  0.00    -0.285 A  
HETATM    3  N   UNL     1     -12.271   6.642  70.705  1.00  0.00    -0.316 NA 
HETATM    4  N   UNL     1     -12.617   7.780  71.376  1.00  0.00    -0.327 NA 
HETATM    5  C   UNL     1     -11.837   8.749  70.953  1.00  0.00    -0.230 A  
HETATM    6  C   UNL     1     -11.827  10.152  71.420  1.00  0.00    -0.328 C  
HETATM    7  N   UNL     1     -12.052  11.049  70.299  1.00  0.00    -0.331 NA 
HETATM    8  C   UNL     1     -11.180  11.182  69.361  1.00  0.00    -0.270 C  
HETATM    9  H   UNL     1     -12.919  11.584  70.255  1.00  0.00     0.000 HD 
HETATM   10  C   UNL     1      -8.754  11.066  68.827  1.00  0.00    -0.146 A  
HETATM   11  C   UNL     1      -9.903  10.386  69.274  1.00  0.00    -0.243 A  
HETATM   12  C   UNL     1      -9.835   8.991  69.493  1.00  0.00    -0.180 A  
HETATM   13 CL   UNL     1      -6.226  11.207  67.898  1.00  0.00    -0.053 Cl 
HETATM   14  N   UNL     1     -10.926   8.263  70.043  1.00  0.00    -0.232 NA 
HETATM   15  C   UNL     1      -7.585  10.368  68.535  1.00  0.00    -0.095 A  
HETATM   16  C   UNL     1      -8.632   8.312  69.227  1.00  0.00    -0.138 A  
HETATM   17  C   UNL     1      -7.520   8.996  68.731  1.00  0.00    -0.076 A  
ENDROOT
BRANCH   8  18
HETATM   18  C   UNL     1     -11.479  12.183  68.271  1.00  0.00    -0.360 A  
HETATM   19  C   UNL     1     -11.712  12.628  65.880  1.00  0.00    -0.470 A  
HETATM   20  C   UNL     1     -11.900  14.437  67.458  1.00  0.00    -0.418 A  
HETATM   21  C   UNL     1     -11.532  11.732  66.936  1.00  0.00    -0.364 A  
HETATM   22  C   UNL     1     -11.896  13.980  66.140  1.00  0.00    -0.422 A  
HETATM   23  C   UNL     1     -11.684  13.552  68.524  1.00  0.00    -0.357 A  
HETATM   24 CL   UNL     1     -11.613  14.271  70.095  1.00  0.00    -0.325 Cl 
ENDBRANCH   8  18
TORSDOF 1
ENDMDL
MODEL       42
REMARK 921   NORMALIZED FREE ENERGY PREDICTED BY IDOCK:   -5.80 KCAL/MOL
REMARK 922        TOTAL FREE ENERGY PREDICTED BY IDOCK:   -6.78 KCAL/MOL
REMARK 923 INTER-LIGAND FREE ENERGY PREDICTED BY IDOCK:   -6.19 KCAL/MOL
REMARK 924 INTRA-LIGAND FREE ENERGY PREDICTED BY IDOCK:   -0.59 KCAL/MOL
REMARK 927      BINDING AFFINITY PREDICTED BY RF-SCORE:    0.00 PKD
ROOT
HETATM    1  C   UNL     1     -12.271  14.642  64.540  1.00  0.00    -0.473 C  
HETATM    2  C   UNL     1     -11.582  13.366  64.237  1.00  0.00    -0.402 A  
HETATM    3  N   UNL     1     -11.883  12.592  63.215  1.00  0.00    -0.489 NA 
HETATM    4  N   UNL     1     -11.193  11.421  63.346  1.00  0.00    -0.281 NA 
HETATM    5  C   UNL     1     -10.479  11.496  64.445  1.00  0.00    -0.325 A  
HETATM    6  C   UNL     1      -9.551  10.473  64.975  1.00  0.00    -0.276 C  
HETATM    7  N   UNL     1      -9.948  10.093  66.320  1.00  0.00    -0.229 NA 
HETATM    8  C   UNL     1      -9.860  10.920  67.304  1.00  0.00    -0.175 C  
HETATM    9  H   UNL     1     -10.303   9.153  66.489  1.00  0.00     0.000 HD 
HETATM   10  C   UNL     1      -8.618  12.885  68.187  1.00  0.00    -0.188 A  
HETATM   11  C   UNL     1      -9.430  12.359  67.164  1.00  0.00    -0.198 A  
HETATM   12  C   UNL     1      -9.898  13.219  66.145  1.00  0.00    -0.280 A  
HETATM   13 CL   UNL     1      -7.422  14.883  69.548  1.00  0.00    -0.181 Cl 
HETATM   14  N   UNL     1     -10.635  12.732  65.030  1.00  0.00    -0.298 NA 
HETATM   15  C   UNL     1      -8.335  14.248  68.238  1.00  0.00    -0.165 A  
HETATM   16  C   UNL     1      -9.569  14.586  66.195  1.00  0.00    -0.325 A  
HETATM   17  C   UNL     1      -8.807  15.099  67.249  1.00  0.00    -0.216 A  
ENDROOT
BRANCH   8  18
HETATM   18  C   UNL     1     -10.240  10.413  68.675  1.00  0.00    -0.196 A  
HETATM   19  C   UNL     1      -9.857   8.784  70.455  1.00  0.00    -0.212 A  
HETATM   20  C   UNL     1     -11.651  10.378  70.656  1.00  0.00    -0.440 A  
HETATM   21  C   UNL     1      -9.494   9.354  69.232  1.00  0.00    -0.164 A  
HETATM   22  C   UNL     1     -10.935   9.295  71.167  1.00  0.00    -0.409 A  
HETATM   23  C   UNL     1     -11.319  10.935  69.413  1.00  0.00    -0.280 A  
HETATM   24 CL   UNL     1     -12.353  12.204  68.856  1.00  0.00     0.013 Cl 
ENDBRANCH   8  18
TORSDOF 1
ENDMDL
MODEL       43
REMARK 921   NORMALIZED FREE ENERGY PREDICTED BY IDOCK:   -5.80 KCAL/MOL
REMARK 922        TOTAL FREE ENERGY PREDICTED BY IDOCK:   -6.78 KCAL/MOL
REMARK 923 INTER-LIGAND FREE ENERGY PREDICTED BY IDOCK:   -6.15 KCAL/MOL
REMARK 924 INTRA-LIGAND FREE ENERGY PREDICTED BY IDOCK:   -0.63 KCAL/MOL
REMARK 927      BINDING AFFINITY PREDICTED BY RF-SCORE:    0.00 PKD
ROOT
HETATM    1  C   UNL     1     -10.690  19.101  66.469  1.00  0.00    -0.456 C  
HETATM    2  C   UNL     1      -9.342  18.496  66.580  1.00  0.00    -0.313 A  
HETATM    3  N   UNL     1      -8.260  19.009  66.033  1.00  0.00    -0.464 NA 
HETATM    4  N   UNL     1      -7.243  18.107  66.167  1.00  0.00    -0.271 NA 
HETATM    5  C   UNL     1      -7.718  17.057  66.795  1.00  0.00    -0.239 A  
HETATM    6  C   UNL     1      -6.972  15.842  67.189  1.00  0.00    -0.169 C  
HETATM    7  N   UNL     1      -7.597  14.666  66.607  1.00  0.00    -0.171 NA 
HETATM    8  C   UNL     1      -8.764  14.271  66.983  1.00  0.00    -0.212 C  
HETATM    9  H   UNL     1      -7.102  14.143  65.886  1.00  0.00     0.000 HD 
HETATM   10  C   UNL     1     -10.364  14.225  68.887  1.00  0.00    -0.218 A  
HETATM   11  C   UNL     1      -9.626  15.007  67.978  1.00  0.00    -0.208 A  
HETATM   12  C   UNL     1      -9.821  16.407  67.958  1.00  0.00    -0.238 A  
HETATM   13 CL   UNL     1     -12.282  13.821  70.739  1.00  0.00    -0.432 Cl 
HETATM   14  N   UNL     1      -9.035  17.264  67.139  1.00  0.00    -0.222 NA 
HETATM   15  C   UNL     1     -11.326  14.808  69.707  1.00  0.00    -0.283 A  
HETATM   16  C   UNL     1     -10.772  16.980  68.822  1.00  0.00    -0.313 A  
HETATM   17  C   UNL     1     -11.534  16.180  69.678  1.00  0.00    -0.290 A  
ENDROOT
BRANCH   8  18
HETATM   18  C   UNL     1      -9.303  13.004  66.364  1.00  0.00    -0.189 A  
HETATM   19  C   UNL     1     -10.943  11.964  64.881  1.00  0.00    -0.367 A  
HETATM   20  C   UNL     1      -9.415  10.585  66.132  1.00  0.00    -0.222 A  
HETATM   21  C   UNL     1     -10.344  13.106  65.417  1.00  0.00    -0.313 A  
HETATM   22  C   UNL     1     -10.479  10.704  65.239  1.00  0.00    -0.264 A  
HETATM   23  C   UNL     1      -8.830  11.724  66.705  1.00  0.00    -0.189 A  
HETATM   24 CL   UNL     1      -7.589  11.425  67.872  1.00  0.00    -0.103 Cl 
ENDBRANCH   8  18
TORSDOF 1
ENDMDL
MODEL       44
REMARK 921   NORMALIZED FREE ENERGY PREDICTED BY IDOCK:   -5.76 KCAL/MOL
REMARK 922        TOTAL FREE ENERGY PREDICTED BY IDOCK:   -6.74 KCAL/MOL
REMARK 923 INTER-LIGAND FREE ENERGY PREDICTED BY IDOCK:   -6.10 KCAL/MOL
REMARK 924 INTRA-LIGAND FREE ENERGY PREDICTED BY IDOCK:   -0.64 KCAL/MOL
REMARK 927      BINDING AFFINITY PREDICTED BY RF-SCORE:    0.00 PKD
ROOT
HETATM    1  C   UNL     1     -11.630  11.156  69.511  1.00  0.00    -0.392 C  
HETATM    2  C   UNL     1     -10.249  11.108  68.975  1.00  0.00    -0.176 A  
HETATM    3  N   UNL     1      -9.292  10.358  69.480  1.00  0.00    -0.172 NA 
HETATM    4  N   UNL     1      -8.116  10.699  68.874  1.00  0.00    -0.131 NA 
HETATM    5  C   UNL     1      -8.372  11.652  68.008  1.00  0.00    -0.148 A  
HETATM    6  C   UNL     1      -7.409  12.311  67.099  1.00  0.00    -0.107 C  
HETATM    7  N   UNL     1      -7.411  13.745  67.330  1.00  0.00    -0.345 NA 
HETATM    8  C   UNL     1      -8.435  14.470  67.038  1.00  0.00    -0.196 C  
HETATM    9  H   UNL     1      -6.585  14.186  67.731  1.00  0.00     0.000 HD 
HETATM   10  C   UNL     1     -10.402  14.674  65.529  1.00  0.00    -0.383 A  
HETATM   11  C   UNL     1      -9.740  13.921  66.518  1.00  0.00    -0.303 A  
HETATM   12  C   UNL     1     -10.377  12.779  67.056  1.00  0.00    -0.234 A  
HETATM   13 CL   UNL     1     -12.520  15.335  63.996  1.00  0.00    -0.112 Cl 
HETATM   14  N   UNL     1      -9.722  11.919  67.979  1.00  0.00    -0.186 NA 
HETATM   15  C   UNL     1     -11.696  14.344  65.134  1.00  0.00    -0.372 A  
HETATM   16  C   UNL     1     -11.670  12.443  66.614  1.00  0.00    -0.438 A  
HETATM   17  C   UNL     1     -12.332  13.235  65.672  1.00  0.00    -0.521 A  
ENDROOT
BRANCH   8  18
HETATM   18  C   UNL     1      -8.318  15.959  67.258  1.00  0.00    -0.211 A  
HETATM   19  C   UNL     1      -7.330  18.081  66.558  1.00  0.00    -0.273 A  
HETATM   20  C   UNL     1      -8.729  18.000  68.517  1.00  0.00    -0.304 A  
HETATM   21  C   UNL     1      -7.548  16.717  66.352  1.00  0.00    -0.325 A  
HETATM   22  C   UNL     1      -7.920  18.723  67.641  1.00  0.00    -0.269 A  
HETATM   23  C   UNL     1      -8.925  16.623  68.341  1.00  0.00    -0.223 A  
HETATM   24 CL   UNL     1      -9.867  15.835  69.559  1.00  0.00    -0.275 Cl 
ENDBRANCH   8  18
TORSDOF 1
ENDMDL
MODEL       45
REMARK 921   NORMALIZED FREE ENERGY PREDICTED BY IDOCK:   -5.75 KCAL/MOL
REMARK 922        TOTAL FREE ENERGY PREDICTED BY IDOCK:   -6.73 KCAL/MOL
REMARK 923 INTER-LIGAND FREE ENERGY PREDICTED BY IDOCK:   -6.20 KCAL/MOL
REMARK 924 INTRA-LIGAND FREE ENERGY PREDICTED BY IDOCK:   -0.53 KCAL/MOL
REMARK 927      BINDING AFFINITY PREDICTED BY RF-SCORE:    0.00 PKD
ROOT
HETATM    1  C   UNL     1      -7.154  13.229  67.466  1.00  0.00    -0.156 C  
HETATM    2  C   UNL     1      -8.535  13.551  67.896  1.00  0.00    -0.179 A  
HETATM    3  N   UNL     1      -8.925  14.749  68.279  1.00  0.00    -0.175 NA 
HETATM    4  N   UNL     1     -10.189  14.648  68.785  1.00  0.00    -0.238 NA 
HETATM    5  C   UNL     1     -10.555  13.389  68.703  1.00  0.00    -0.241 A  
HETATM    6  C   UNL     1     -11.858  12.813  69.101  1.00  0.00    -0.301 C  
HETATM    7  N   UNL     1     -11.655  11.763  70.084  1.00  0.00    -0.508 NA 
HETATM    8  C   UNL     1     -11.074  10.656  69.773  1.00  0.00    -0.295 C  
HETATM    9  H   UNL     1     -11.979  11.905  71.040  1.00  0.00     0.000 HD 
HETATM   10  C   UNL     1     -10.636   9.056  67.919  1.00  0.00    -0.256 A  
HETATM   11  C   UNL     1     -10.480  10.364  68.417  1.00  0.00    -0.216 A  
HETATM   12  C   UNL     1      -9.684  11.285  67.699  1.00  0.00    -0.171 A  
HETATM   13 CL   UNL     1     -10.087   7.020  66.238  1.00  0.00    -0.019 Cl 
HETATM   14  N   UNL     1      -9.571  12.647  68.091  1.00  0.00    -0.216 NA 
HETATM   15  C   UNL     1      -9.959   8.649  66.773  1.00  0.00    -0.273 A  
HETATM   16  C   UNL     1      -9.039  10.862  66.522  1.00  0.00    -0.183 A  
HETATM   17  C   UNL     1      -9.161   9.544  66.074  1.00  0.00    -0.248 A  
ENDROOT
BRANCH   8  18
HETATM   18  C   UNL     1     -10.964   9.602  70.848  1.00  0.00    -0.412 A  
HETATM   19  C   UNL     1     -12.100   8.226  72.517  1.00  0.00    -0.400 A  
HETATM   20  C   UNL     1      -9.700   8.146  72.331  1.00  0.00    -0.338 A  
HETATM   21  C   UNL     1     -12.147   9.131  71.455  1.00  0.00    -0.422 A  
HETATM   22  C   UNL     1     -10.877   7.733  72.956  1.00  0.00    -0.451 A  
HETATM   23  C   UNL     1      -9.733   9.083  71.288  1.00  0.00    -0.301 A  
HETATM   24 CL   UNL     1      -8.194   9.580  70.676  1.00  0.00    -0.207 Cl 
ENDBRANCH   8  18
TORSDOF 1
ENDMDL
MODEL       46
REMARK 921   NORMALIZED FREE ENERGY PREDICTED BY IDOCK:   -5.74 KCAL/MOL
REMARK 922        TOTAL FREE ENERGY PREDICTED BY IDOCK:   -6.72 KCAL/MOL
REMARK 923 INTER-LIGAND FREE ENERGY PREDICTED BY IDOCK:   -6.12 KCAL/MOL
REMARK 924 INTRA-LIGAND FREE ENERGY PREDICTED BY IDOCK:   -0.59 KCAL/MOL
REMARK 927      BINDING AFFINITY PREDICTED BY RF-SCORE:    0.00 PKD
ROOT
HETATM    1  C   UNL     1     -10.128   8.469  66.565  1.00  0.00    -0.328 C  
HETATM    2  C   UNL     1      -8.997   9.294  67.051  1.00  0.00    -0.126 A  
HETATM    3  N   UNL     1      -7.942   8.803  67.669  1.00  0.00    -0.106 NA 
HETATM    4  N   UNL     1      -7.199   9.847  68.143  1.00  0.00    -0.078 NA 
HETATM    5  C   UNL     1      -7.810  10.960  67.806  1.00  0.00    -0.109 A  
HETATM    6  C   UNL     1      -7.357  12.341  68.079  1.00  0.00    -0.105 C  
HETATM    7  N   UNL     1      -8.374  13.058  68.827  1.00  0.00    -0.356 NA 
HETATM    8  C   UNL     1      -9.509  13.359  68.298  1.00  0.00    -0.209 C  
HETATM    9  H   UNL     1      -8.186  13.328  69.792  1.00  0.00     0.000 HD 
HETATM   10  C   UNL     1     -10.666  13.880  66.159  1.00  0.00    -0.283 A  
HETATM   11  C   UNL     1      -9.933  12.942  66.912  1.00  0.00    -0.238 A  
HETATM   12  C   UNL     1      -9.745  11.640  66.396  1.00  0.00    -0.214 A  
HETATM   13 CL   UNL     1     -12.229  14.646  64.099  1.00  0.00    -0.450 Cl 
HETATM   14  N   UNL     1      -8.930  10.680  67.057  1.00  0.00    -0.137 NA 
HETATM   15  C   UNL     1     -11.259  13.513  64.953  1.00  0.00    -0.342 A  
HETATM   16  C   UNL     1     -10.322  11.302  65.159  1.00  0.00    -0.353 A  
HETATM   17  C   UNL     1     -11.092  12.230  64.452  1.00  0.00    -0.381 A  
ENDROOT
BRANCH   8  18
HETATM   18  C   UNL     1     -10.478  14.158  69.137  1.00  0.00    -0.143 A  
HETATM   19  C   UNL     1     -12.639  14.252  70.272  1.00  0.00    -0.378 A  
HETATM   20  C   UNL     1     -11.229  16.204  70.218  1.00  0.00    -0.389 A  
HETATM   21  C   UNL     1     -11.666  13.535  69.573  1.00  0.00    -0.382 A  
HETATM   22  C   UNL     1     -12.422  15.587  70.594  1.00  0.00    -0.483 A  
HETATM   23  C   UNL     1     -10.260  15.505  69.484  1.00  0.00    -0.279 A  
HETATM   24 CL   UNL     1      -8.878  16.423  68.997  1.00  0.00    -0.257 Cl 
ENDBRANCH   8  18
TORSDOF 1
ENDMDL
MODEL       47
REMARK 921   NORMALIZED FREE ENERGY PREDICTED BY IDOCK:   -5.73 KCAL/MOL
REMARK 922        TOTAL FREE ENERGY PREDICTED BY IDOCK:   -6.71 KCAL/MOL
REMARK 923 INTER-LIGAND FREE ENERGY PREDICTED BY IDOCK:   -6.14 KCAL/MOL
REMARK 924 INTRA-LIGAND FREE ENERGY PREDICTED BY IDOCK:   -0.57 KCAL/MOL
REMARK 927      BINDING AFFINITY PREDICTED BY RF-SCORE:    0.00 PKD
ROOT
HETATM    1  C   UNL     1      -9.503  12.651  67.676  1.00  0.00    -0.189 C  
HETATM    2  C   UNL     1     -10.677  12.481  68.564  1.00  0.00    -0.239 A  
HETATM    3  N   UNL     1     -11.369  13.482  69.066  1.00  0.00    -0.273 NA 
HETATM    4  N   UNL     1     -12.249  12.979  69.982  1.00  0.00    -0.276 NA 
HETATM    5  C   UNL     1     -12.083  11.677  70.025  1.00  0.00    -0.319 A  
HETATM    6  C   UNL     1     -12.839  10.710  70.850  1.00  0.00    -0.382 C  
HETATM    7  N   UNL     1     -11.925   9.958  71.693  1.00  0.00    -0.388 NA 
HETATM    8  C   UNL     1     -11.083   9.122  71.191  1.00  0.00    -0.323 C  
HETATM    9  H   UNL     1     -11.952  10.094  72.702  1.00  0.00     0.000 HD 
HETATM   10  C   UNL     1     -10.662   7.573  69.291  1.00  0.00    -0.185 A  
HETATM   11  C   UNL     1     -10.894   8.897  69.712  1.00  0.00    -0.207 A  
HETATM   12  C   UNL     1     -10.813   9.944  68.766  1.00  0.00    -0.208 A  
HETATM   13 CL   UNL     1      -9.916   5.690  67.511  1.00  0.00    -0.157 Cl 
HETATM   14  N   UNL     1     -11.138  11.288  69.103  1.00  0.00    -0.235 NA 
HETATM   15  C   UNL     1     -10.288   7.302  67.977  1.00  0.00    -0.197 A  
HETATM   16  C   UNL     1     -10.471   9.643  67.435  1.00  0.00    -0.319 A  
HETATM   17  C   UNL     1     -10.190   8.329  67.050  1.00  0.00    -0.380 A  
ENDROOT
BRANCH   8  18
HETATM   18  C   UNL     1     -10.218   8.343  72.153  1.00  0.00    -0.390 A  
HETATM   19  C   UNL     1     -10.102   6.835  74.071  1.00  0.00    -0.389 A  
HETATM   20  C   UNL     1      -8.074   7.725  73.123  1.00  0.00    -0.183 A  
HETATM   21  C   UNL     1     -10.846   7.506  73.098  1.00  0.00    -0.448 A  
HETATM   22  C   UNL     1      -8.716   6.944  74.084  1.00  0.00    -0.194 A  
HETATM   23  C   UNL     1      -8.814   8.433  72.164  1.00  0.00    -0.217 A  
HETATM   24 CL   UNL     1      -7.895   9.440  71.100  1.00  0.00    -0.046 Cl 
ENDBRANCH   8  18
TORSDOF 1
ENDMDL
MODEL       48
REMARK 921   NORMALIZED FREE ENERGY PREDICTED BY IDOCK:   -5.57 KCAL/MOL
REMARK 922        TOTAL FREE ENERGY PREDICTED BY IDOCK:   -6.54 KCAL/MOL
REMARK 923 INTER-LIGAND FREE ENERGY PREDICTED BY IDOCK:   -5.90 KCAL/MOL
REMARK 924 INTRA-LIGAND FREE ENERGY PREDICTED BY IDOCK:   -0.64 KCAL/MOL
REMARK 927      BINDING AFFINITY PREDICTED BY RF-SCORE:    0.00 PKD
ROOT
HETATM    1  C   UNL     1      -9.795  16.812  66.406  1.00  0.00    -0.312 C  
HETATM    2  C   UNL     1     -10.647  16.107  67.391  1.00  0.00    -0.311 A  
HETATM    3  N   UNL     1     -11.203  16.691  68.433  1.00  0.00    -0.316 NA 
HETATM    4  N   UNL     1     -11.753  15.723  69.224  1.00  0.00    -0.373 NA 
HETATM    5  C   UNL     1     -11.526  14.561  68.655  1.00  0.00    -0.293 A  
HETATM    6  C   UNL     1     -11.964  13.233  69.137  1.00  0.00    -0.296 C  
HETATM    7  N   UNL     1     -10.812  12.366  69.314  1.00  0.00    -0.444 NA 
HETATM    8  C   UNL     1     -10.120  11.956  68.309  1.00  0.00    -0.203 C  
HETATM    9  H   UNL     1     -10.547  12.076  70.255  1.00  0.00     0.000 HD 
HETATM   10  C   UNL     1     -10.211  11.399  65.886  1.00  0.00    -0.292 A  
HETATM   11  C   UNL     1     -10.365  12.382  66.883  1.00  0.00    -0.240 A  
HETATM   12  C   UNL     1     -10.610  13.720  66.498  1.00  0.00    -0.279 A  
HETATM   13 CL   UNL     1      -9.941  10.547  63.342  1.00  0.00    -0.325 Cl 
HETATM   14  N   UNL     1     -10.878  14.739  67.454  1.00  0.00    -0.292 NA 
HETATM   15  C   UNL     1     -10.228  11.747  64.538  1.00  0.00    -0.284 A  
HETATM   16  C   UNL     1     -10.662  14.043  65.130  1.00  0.00    -0.393 A  
HETATM   17  C   UNL     1     -10.451  13.063  64.156  1.00  0.00    -0.395 A  
ENDROOT
BRANCH   8  18
HETATM   18  C   UNL     1      -8.978  11.009  68.590  1.00  0.00    -0.167 A  
HETATM   19  C   UNL     1      -6.563  10.665  68.724  1.00  0.00    -0.053 A  
HETATM   20  C   UNL     1      -8.057   8.805  69.052  1.00  0.00    -0.116 A  
HETATM   21  C   UNL     1      -7.661  11.513  68.563  1.00  0.00    -0.134 A  
HETATM   22  C   UNL     1      -6.760   9.312  68.968  1.00  0.00    -0.051 A  
HETATM   23  C   UNL     1      -9.167   9.640  68.855  1.00  0.00    -0.147 A  
HETATM   24 CL   UNL     1     -10.709   8.859  68.886  1.00  0.00    -0.182 Cl 
ENDBRANCH   8  18
TORSDOF 1
ENDMDL
MODEL       49
REMARK 921   NORMALIZED FREE ENERGY PREDICTED BY IDOCK:   -5.54 KCAL/MOL
REMARK 922        TOTAL FREE ENERGY PREDICTED BY IDOCK:   -6.51 KCAL/MOL
REMARK 923 INTER-LIGAND FREE ENERGY PREDICTED BY IDOCK:   -5.87 KCAL/MOL
REMARK 924 INTRA-LIGAND FREE ENERGY PREDICTED BY IDOCK:   -0.64 KCAL/MOL
REMARK 927      BINDING AFFINITY PREDICTED BY RF-SCORE:    0.00 PKD
ROOT
HETATM    1  C   UNL     1      -7.051   8.061  70.414  1.00  0.00    -0.045 C  
HETATM    2  C   UNL     1      -7.774   7.733  69.163  1.00  0.00    -0.101 A  
HETATM    3  N   UNL     1      -7.285   6.966  68.211  1.00  0.00    -0.088 NA 
HETATM    4  N   UNL     1      -8.122   7.033  67.133  1.00  0.00    -0.116 NA 
HETATM    5  C   UNL     1      -9.111   7.839  67.443  1.00  0.00    -0.126 A  
HETATM    6  C   UNL     1     -10.273   8.189  66.596  1.00  0.00    -0.259 C  
HETATM    7  N   UNL     1     -10.336   9.629  66.414  1.00  0.00    -0.214 NA 
HETATM    8  C   UNL     1     -10.605  10.419  67.395  1.00  0.00    -0.269 C  
HETATM    9  H   UNL     1     -10.165  10.022  65.489  1.00  0.00     0.000 HD 
HETATM   10  C   UNL     1     -11.799  10.606  69.569  1.00  0.00    -0.345 A  
HETATM   11  C   UNL     1     -10.794   9.963  68.820  1.00  0.00    -0.240 A  
HETATM   12  C   UNL     1      -9.946   9.032  69.462  1.00  0.00    -0.191 A  
HETATM   13 CL   UNL     1     -13.084  11.254  71.849  1.00  0.00    -0.583 Cl 
HETATM   14  N   UNL     1      -8.982   8.273  68.743  1.00  0.00    -0.144 NA 
HETATM   15  C   UNL     1     -11.913  10.385  70.939  1.00  0.00    -0.377 A  
HETATM   16  C   UNL     1     -10.104   8.796  70.840  1.00  0.00    -0.276 A  
HETATM   17  C   UNL     1     -11.071   9.486  71.577  1.00  0.00    -0.406 A  
ENDROOT
BRANCH   8  18
HETATM   18  C   UNL     1     -10.708  11.895  67.092  1.00  0.00    -0.280 A  
HETATM   19  C   UNL     1     -11.976  13.708  66.056  1.00  0.00    -0.447 A  
HETATM   20  C   UNL     1      -9.828  14.162  67.047  1.00  0.00    -0.258 A  
HETATM   21  C   UNL     1     -11.866  12.371  66.443  1.00  0.00    -0.421 A  
HETATM   22  C   UNL     1     -10.957  14.604  66.358  1.00  0.00    -0.325 A  
HETATM   23  C   UNL     1      -9.691  12.814  67.408  1.00  0.00    -0.197 A  
HETATM   24 CL   UNL     1      -8.196  12.388  68.167  1.00  0.00    -0.165 Cl 
ENDBRANCH   8  18
TORSDOF 1
ENDMDL
MODEL       50
REMARK 921   NORMALIZED FREE ENERGY PREDICTED BY IDOCK:   -5.54 KCAL/MOL
REMARK 922        TOTAL FREE ENERGY PREDICTED BY IDOCK:   -6.50 KCAL/MOL
REMARK 923 INTER-LIGAND FREE ENERGY PREDICTED BY IDOCK:   -5.86 KCAL/MOL
REMARK 924 INTRA-LIGAND FREE ENERGY PREDICTED BY IDOCK:   -0.64 KCAL/MOL
REMARK 927      BINDING AFFINITY PREDICTED BY RF-SCORE:    0.00 PKD
ROOT
HETATM    1  C   UNL     1     -14.273   8.533  71.868  1.00  0.00    -0.536 C  
HETATM    2  C   UNL     1     -13.048   9.289  71.517  1.00  0.00    -0.363 A  
HETATM    3  N   UNL     1     -13.019  10.590  71.318  1.00  0.00    -0.411 NA 
HETATM    4  N   UNL     1     -11.788  10.923  70.829  1.00  0.00    -0.337 NA 
HETATM    5  C   UNL     1     -11.081   9.819  70.738  1.00  0.00    -0.345 A  
HETATM    6  C   UNL     1      -9.677   9.697  70.288  1.00  0.00    -0.259 C  
HETATM    7  N   UNL     1      -9.597   8.784  69.161  1.00  0.00    -0.161 NA 
HETATM    8  C   UNL     1      -9.836   7.526  69.298  1.00  0.00    -0.170 C  
HETATM    9  H   UNL     1      -9.345   9.147  68.242  1.00  0.00     0.000 HD 
HETATM   10  C   UNL     1      -9.768   5.619  70.894  1.00  0.00    -0.223 A  
HETATM   11  C   UNL     1     -10.295   6.887  70.585  1.00  0.00    -0.220 A  
HETATM   12  C   UNL     1     -11.304   7.433  71.412  1.00  0.00    -0.256 A  
HETATM   13 CL   UNL     1      -9.686   3.292  72.254  1.00  0.00    -0.209 Cl 
HETATM   14  N   UNL     1     -11.804   8.750  71.216  1.00  0.00    -0.293 NA 
HETATM   15  C   UNL     1     -10.279   4.877  71.956  1.00  0.00    -0.199 A  
HETATM   16  C   UNL     1     -11.779   6.683  72.502  1.00  0.00    -0.200 A  
HETATM   17  C   UNL     1     -11.281   5.402  72.759  1.00  0.00    -0.358 A  
ENDROOT
BRANCH   8  18
HETATM   18  C   UNL     1      -9.667   6.648  68.081  1.00  0.00    -0.130 A  
HETATM   19  C   UNL     1     -10.726   5.286  66.352  1.00  0.00    -0.290 A  
HETATM   20  C   UNL     1      -8.324   5.399  66.482  1.00  0.00    -0.109 A  
HETATM   21  C   UNL     1     -10.822   6.174  67.425  1.00  0.00    -0.431 A  
HETATM   22  C   UNL     1      -9.478   4.898  65.880  1.00  0.00    -0.171 A  
HETATM   23  C   UNL     1      -8.408   6.263  67.584  1.00  0.00    -0.117 A  
HETATM   24 CL   UNL     1      -6.900   6.724  68.294  1.00  0.00    -0.074 Cl 
ENDBRANCH   8  18
TORSDOF 1
ENDMDL
MODEL       51
REMARK 921   NORMALIZED FREE ENERGY PREDICTED BY IDOCK:   -5.47 KCAL/MOL
REMARK 922        TOTAL FREE ENERGY PREDICTED BY IDOCK:   -6.43 KCAL/MOL
REMARK 923 INTER-LIGAND FREE ENERGY PREDICTED BY IDOCK:   -5.79 KCAL/MOL
REMARK 924 INTRA-LIGAND FREE ENERGY PREDICTED BY IDOCK:   -0.64 KCAL/MOL
REMARK 927      BINDING AFFINITY PREDICTED BY RF-SCORE:    0.00 PKD
ROOT
HETATM    1  C   UNL     1      -6.447  20.069  70.212  1.00  0.00    -0.300 C  
HETATM    2  C   UNL     1      -6.432  19.904  68.739  1.00  0.00    -0.304 A  
HETATM    3  N   UNL     1      -6.414  20.908  67.888  1.00  0.00    -0.332 NA 
HETATM    4  N   UNL     1      -6.599  20.408  66.631  1.00  0.00    -0.222 NA 
HETATM    5  C   UNL     1      -6.726  19.105  66.732  1.00  0.00    -0.194 A  
HETATM    6  C   UNL     1      -6.912  18.140  65.626  1.00  0.00    -0.177 C  
HETATM    7  N   UNL     1      -8.132  17.380  65.832  1.00  0.00    -0.554 NA 
HETATM    8  C   UNL     1      -8.244  16.540  66.802  1.00  0.00    -0.243 C  
HETATM    9  H   UNL     1      -8.917  17.513  65.195  1.00  0.00     0.000 HD 
HETATM   10  C   UNL     1      -6.987  14.994  68.290  1.00  0.00    -0.118 A  
HETATM   11  C   UNL     1      -7.186  16.318  67.854  1.00  0.00    -0.145 A  
HETATM   12  C   UNL     1      -6.493  17.368  68.499  1.00  0.00    -0.180 A  
HETATM   13 CL   UNL     1      -6.020  13.111  69.961  1.00  0.00    -0.136 Cl 
HETATM   14  N   UNL     1      -6.570  18.712  68.041  1.00  0.00    -0.216 NA 
HETATM   15  C   UNL     1      -6.173  14.724  69.387  1.00  0.00    -0.114 A  
HETATM   16  C   UNL     1      -5.646  17.068  69.582  1.00  0.00    -0.197 A  
HETATM   17  C   UNL     1      -5.504  15.753  70.035  1.00  0.00    -0.142 A  
ENDROOT
BRANCH   8  18
HETATM   18  C   UNL     1      -9.529  15.753  66.897  1.00  0.00    -0.244 A  
HETATM   19  C   UNL     1     -10.974  14.031  65.940  1.00  0.00    -0.286 A  
HETATM   20  C   UNL     1     -11.710  15.279  67.864  1.00  0.00    -0.233 A  
HETATM   21  C   UNL     1      -9.764  14.729  65.957  1.00  0.00    -0.350 A  
HETATM   22  C   UNL     1     -11.947  14.306  66.893  1.00  0.00    -0.467 A  
HETATM   23  C   UNL     1     -10.515  16.011  67.869  1.00  0.00    -0.292 A  
HETATM   24 CL   UNL     1     -10.398  17.254  69.065  1.00  0.00    -0.343 Cl 
ENDBRANCH   8  18
TORSDOF 1
ENDMDL
MODEL       52
REMARK 921   NORMALIZED FREE ENERGY PREDICTED BY IDOCK:   -5.45 KCAL/MOL
REMARK 922        TOTAL FREE ENERGY PREDICTED BY IDOCK:   -6.41 KCAL/MOL
REMARK 923 INTER-LIGAND FREE ENERGY PREDICTED BY IDOCK:   -5.99 KCAL/MOL
REMARK 924 INTRA-LIGAND FREE ENERGY PREDICTED BY IDOCK:   -0.41 KCAL/MOL
REMARK 927      BINDING AFFINITY PREDICTED BY RF-SCORE:    0.00 PKD
ROOT
HETATM    1  C   UNL     1     -10.262   8.577  70.581  1.00  0.00    -0.230 C  
HETATM    2  C   UNL     1     -10.594   9.074  69.226  1.00  0.00    -0.213 A  
HETATM    3  N   UNL     1     -10.352   8.404  68.118  1.00  0.00    -0.211 NA 
HETATM    4  N   UNL     1     -10.603   9.226  67.056  1.00  0.00    -0.227 NA 
HETATM    5  C   UNL     1     -10.996  10.386  67.531  1.00  0.00    -0.295 A  
HETATM    6  C   UNL     1     -11.407  11.574  66.750  1.00  0.00    -0.238 C  
HETATM    7  N   UNL     1     -10.581  12.713  67.110  1.00  0.00    -0.234 NA 
HETATM    8  C   UNL     1     -10.652  13.251  68.278  1.00  0.00    -0.251 C  
HETATM    9  H   UNL     1      -9.931  13.094  66.424  1.00  0.00     0.000 HD 
HETATM   10  C   UNL     1     -12.149  13.680  70.217  1.00  0.00    -0.427 A  
HETATM   11  C   UNL     1     -11.512  12.726  69.400  1.00  0.00    -0.321 A  
HETATM   12  C   UNL     1     -11.602  11.357  69.741  1.00  0.00    -0.332 A  
HETATM   13 CL   UNL     1     -13.490  14.482  72.415  1.00  0.00    -0.492 Cl 
HETATM   14  N   UNL     1     -11.070  10.338  68.904  1.00  0.00    -0.238 NA 
HETATM   15  C   UNL     1     -12.802  13.291  71.384  1.00  0.00    -0.322 A  
HETATM   16  C   UNL     1     -12.298  10.984  70.905  1.00  0.00    -0.503 A  
HETATM   17  C   UNL     1     -12.877  11.950  71.732  1.00  0.00    -0.389 A  
ENDROOT
BRANCH   8  18
HETATM   18  C   UNL     1      -9.796  14.469  68.537  1.00  0.00    -0.231 A  
HETATM   19  C   UNL     1      -9.591  16.902  68.470  1.00  0.00    -0.262 A  
HETATM   20  C   UNL     1      -7.700  15.558  69.114  1.00  0.00    -0.210 A  
HETATM   21  C   UNL     1     -10.362  15.745  68.336  1.00  0.00    -0.233 A  
HETATM   22  C   UNL     1      -8.260  16.809  68.859  1.00  0.00    -0.224 A  
HETATM   23  C   UNL     1      -8.453  14.387  68.947  1.00  0.00    -0.069 A  
HETATM   24 CL   UNL     1      -7.602  12.903  69.200  1.00  0.00     0.159 Cl 
ENDBRANCH   8  18
TORSDOF 1
ENDMDL
MODEL       53
REMARK 921   NORMALIZED FREE ENERGY PREDICTED BY IDOCK:   -5.41 KCAL/MOL
REMARK 922        TOTAL FREE ENERGY PREDICTED BY IDOCK:   -6.37 KCAL/MOL
REMARK 923 INTER-LIGAND FREE ENERGY PREDICTED BY IDOCK:   -5.76 KCAL/MOL
REMARK 924 INTRA-LIGAND FREE ENERGY PREDICTED BY IDOCK:   -0.60 KCAL/MOL
REMARK 927      BINDING AFFINITY PREDICTED BY RF-SCORE:    0.00 PKD
ROOT
HETATM    1  C   UNL     1     -10.746   6.817  73.508  1.00  0.00    -0.319 C  
HETATM    2  C   UNL     1      -9.491   7.514  73.140  1.00  0.00    -0.219 A  
HETATM    3  N   UNL     1      -8.629   7.986  74.017  1.00  0.00    -0.264 NA 
HETATM    4  N   UNL     1      -7.698   8.727  73.346  1.00  0.00    -0.386 NA 
HETATM    5  C   UNL     1      -8.003   8.695  72.069  1.00  0.00    -0.054 A  
HETATM    6  C   UNL     1      -7.258   9.329  70.959  1.00  0.00    -0.072 C  
HETATM    7  N   UNL     1      -8.130  10.234  70.231  1.00  0.00    -0.406 NA 
HETATM    8  C   UNL     1      -9.121   9.797  69.535  1.00  0.00    -0.216 C  
HETATM    9  H   UNL     1      -7.954  11.238  70.273  1.00  0.00     0.000 HD 
HETATM   10  C   UNL     1      -9.965   7.865  68.214  1.00  0.00    -0.204 A  
HETATM   11  C   UNL     1      -9.530   8.347  69.464  1.00  0.00    -0.166 A  
HETATM   12  C   UNL     1      -9.617   7.503  70.595  1.00  0.00    -0.171 A  
HETATM   13 CL   UNL     1     -11.150   6.073  66.584  1.00  0.00    -0.261 Cl 
HETATM   14  N   UNL     1      -9.100   7.890  71.862  1.00  0.00    -0.137 NA 
HETATM   15  C   UNL     1     -10.539   6.602  68.101  1.00  0.00    -0.241 A  
HETATM   16  C   UNL     1     -10.166   6.216  70.451  1.00  0.00    -0.256 A  
HETATM   17  C   UNL     1     -10.642   5.777  69.213  1.00  0.00    -0.376 A  
ENDROOT
BRANCH   8  18
HETATM   18  C   UNL     1      -9.933  10.811  68.765  1.00  0.00    -0.201 A  
HETATM   19  C   UNL     1     -10.089  12.293  66.830  1.00  0.00    -0.224 A  
HETATM   20  C   UNL     1     -11.835  12.302  68.489  1.00  0.00    -0.359 A  
HETATM   21  C   UNL     1      -9.427  11.288  67.538  1.00  0.00    -0.177 A  
HETATM   22  C   UNL     1     -11.293  12.801  67.305  1.00  0.00    -0.364 A  
HETATM   23  C   UNL     1     -11.161  11.319  69.228  1.00  0.00    -0.255 A  
HETATM   24 CL   UNL     1     -11.897  10.868  70.726  1.00  0.00    -0.437 Cl 
ENDBRANCH   8  18
TORSDOF 1
ENDMDL
MODEL       54
REMARK 921   NORMALIZED FREE ENERGY PREDICTED BY IDOCK:   -5.40 KCAL/MOL
REMARK 922        TOTAL FREE ENERGY PREDICTED BY IDOCK:   -6.36 KCAL/MOL
REMARK 923 INTER-LIGAND FREE ENERGY PREDICTED BY IDOCK:   -5.73 KCAL/MOL
REMARK 924 INTRA-LIGAND FREE ENERGY PREDICTED BY IDOCK:   -0.64 KCAL/MOL
REMARK 927      BINDING AFFINITY PREDICTED BY RF-SCORE:    0.00 PKD
ROOT
HETATM    1  C   UNL     1     -11.246  12.075  66.804  1.00  0.00    -0.376 C  
HETATM    2  C   UNL     1      -9.930  11.871  67.454  1.00  0.00    -0.190 A  
HETATM    3  N   UNL     1      -8.785  12.258  66.933  1.00  0.00    -0.201 NA 
HETATM    4  N   UNL     1      -7.772  11.746  67.694  1.00  0.00    -0.128 NA 
HETATM    5  C   UNL     1      -8.314  11.054  68.670  1.00  0.00    -0.153 A  
HETATM    6  C   UNL     1      -7.606  10.346  69.759  1.00  0.00    -0.133 C  
HETATM    7  N   UNL     1      -7.972   8.941  69.756  1.00  0.00    -0.095 NA 
HETATM    8  C   UNL     1      -9.164   8.557  70.058  1.00  0.00    -0.155 C  
HETATM    9  H   UNL     1      -7.270   8.243  69.509  1.00  0.00     0.000 HD 
HETATM   10  C   UNL     1     -11.191   9.119  71.385  1.00  0.00    -0.419 A  
HETATM   11  C   UNL     1     -10.304   9.497  70.359  1.00  0.00    -0.334 A  
HETATM   12  C   UNL     1     -10.591  10.648  69.591  1.00  0.00    -0.217 A  
HETATM   13 CL   UNL     1     -13.485   9.287  72.793  1.00  0.00    -0.355 Cl 
HETATM   14  N   UNL     1      -9.686  11.142  68.611  1.00  0.00    -0.196 NA 
HETATM   15  C   UNL     1     -12.372   9.825  71.599  1.00  0.00    -0.408 A  
HETATM   16  C   UNL     1     -11.771  11.369  69.848  1.00  0.00    -0.424 A  
HETATM   17  C   UNL     1     -12.666  10.946  70.835  1.00  0.00    -0.464 A  
ENDROOT
BRANCH   8  18
HETATM   18  C   UNL     1      -9.430   7.071  70.086  1.00  0.00    -0.162 A  
HETATM   19  C   UNL     1      -9.083   4.929  71.209  1.00  0.00    -0.179 A  
HETATM   20  C   UNL     1     -10.284   5.007  69.123  1.00  0.00    -0.227 A  
HETATM   21  C   UNL     1      -8.946   6.319  71.176  1.00  0.00    -0.146 A  
HETATM   22  C   UNL     1      -9.751   4.273  70.182  1.00  0.00    -0.282 A  
HETATM   23  C   UNL     1     -10.121   6.398  69.061  1.00  0.00    -0.165 A  
HETATM   24 CL   UNL     1     -10.743   7.166  67.641  1.00  0.00    -0.317 Cl 
ENDBRANCH   8  18
TORSDOF 1
ENDMDL
MODEL       55
REMARK 921   NORMALIZED FREE ENERGY PREDICTED BY IDOCK:   -5.38 KCAL/MOL
REMARK 922        TOTAL FREE ENERGY PREDICTED BY IDOCK:   -6.33 KCAL/MOL
REMARK 923 INTER-LIGAND FREE ENERGY PREDICTED BY IDOCK:   -5.69 KCAL/MOL
REMARK 924 INTRA-LIGAND FREE ENERGY PREDICTED BY IDOCK:   -0.64 KCAL/MOL
REMARK 927      BINDING AFFINITY PREDICTED BY RF-SCORE:    0.00 PKD
ROOT
HETATM    1  C   UNL     1     -10.272   5.719  73.024  1.00  0.00    -0.209 C  
HETATM    2  C   UNL     1     -10.437   5.593  71.556  1.00  0.00    -0.239 A  
HETATM    3  N   UNL     1     -10.159   4.499  70.877  1.00  0.00    -0.192 NA 
HETATM    4  N   UNL     1     -10.239   4.790  69.545  1.00  0.00    -0.191 NA 
HETATM    5  C   UNL     1     -10.566   6.056  69.429  1.00  0.00    -0.298 A  
HETATM    6  C   UNL     1     -10.797   6.805  68.174  1.00  0.00    -0.228 C  
HETATM    7  N   UNL     1      -9.906   7.950  68.110  1.00  0.00    -0.163 NA 
HETATM    8  C   UNL     1     -10.031   8.944  68.920  1.00  0.00    -0.190 C  
HETATM    9  H   UNL     1      -9.166   7.968  67.409  1.00  0.00     0.000 HD 
HETATM   10  C   UNL     1     -11.650  10.236  70.297  1.00  0.00    -0.396 A  
HETATM   11  C   UNL     1     -11.032   8.996  70.047  1.00  0.00    -0.230 A  
HETATM   12  C   UNL     1     -11.275   7.915  70.926  1.00  0.00    -0.270 A  
HETATM   13 CL   UNL     1     -13.102  11.970  71.767  1.00  0.00    -0.530 Cl 
HETATM   14  N   UNL     1     -10.765   6.612  70.673  1.00  0.00    -0.230 NA 
HETATM   15  C   UNL     1     -12.436  10.421  71.432  1.00  0.00    -0.415 A  
HETATM   16  C   UNL     1     -12.103   8.114  72.045  1.00  0.00    -0.388 A  
HETATM   17  C   UNL     1     -12.663   9.367  72.306  1.00  0.00    -0.416 A  
ENDROOT
BRANCH   8  18
HETATM   18  C   UNL     1      -9.096  10.115  68.734  1.00  0.00    -0.153 A  
HETATM   19  C   UNL     1      -7.131  11.335  69.521  1.00  0.00    -0.058 A  
HETATM   20  C   UNL     1      -8.424  12.204  67.685  1.00  0.00    -0.163 A  
HETATM   21  C   UNL     1      -7.977  10.226  69.586  1.00  0.00    -0.164 A  
HETATM   22  C   UNL     1      -7.354  12.324  68.571  1.00  0.00    -0.105 A  
HETATM   23  C   UNL     1      -9.302  11.114  67.765  1.00  0.00    -0.164 A  
HETATM   24 CL   UNL     1     -10.642  11.146  66.672  1.00  0.00    -0.301 Cl 
ENDBRANCH   8  18
TORSDOF 1
ENDMDL
MODEL       56
REMARK 921   NORMALIZED FREE ENERGY PREDICTED BY IDOCK:   -5.34 KCAL/MOL
REMARK 922        TOTAL FREE ENERGY PREDICTED BY IDOCK:   -6.29 KCAL/MOL
REMARK 923 INTER-LIGAND FREE ENERGY PREDICTED BY IDOCK:   -5.66 KCAL/MOL
REMARK 924 INTRA-LIGAND FREE ENERGY PREDICTED BY IDOCK:   -0.63 KCAL/MOL
REMARK 927      BINDING AFFINITY PREDICTED BY RF-SCORE:    0.00 PKD
ROOT
HETATM    1  C   UNL     1      -7.962   7.885  70.453  1.00  0.00    -0.097 C  
HETATM    2  C   UNL     1      -8.592   7.899  69.112  1.00  0.00    -0.138 A  
HETATM    3  N   UNL     1      -8.163   7.186  68.091  1.00  0.00    -0.123 NA 
HETATM    4  N   UNL     1      -8.844   7.582  66.975  1.00  0.00    -0.125 NA 
HETATM    5  C   UNL     1      -9.680   8.530  67.330  1.00  0.00    -0.170 A  
HETATM    6  C   UNL     1     -10.646   9.237  66.461  1.00  0.00    -0.047 C  
HETATM    7  N   UNL     1     -10.400  10.667  66.507  1.00  0.00    -0.240 NA 
HETATM    8  C   UNL     1     -10.612  11.351  67.577  1.00  0.00    -0.213 C  
HETATM    9  H   UNL     1     -10.051  11.140  65.673  1.00  0.00     0.000 HD 
HETATM   10  C   UNL     1     -11.979  11.484  69.651  1.00  0.00    -0.407 A  
HETATM   11  C   UNL     1     -11.047  10.752  68.891  1.00  0.00    -0.307 A  
HETATM   12  C   UNL     1     -10.479   9.580  69.442  1.00  0.00    -0.217 A  
HETATM   13 CL   UNL     1     -13.355  12.067  71.896  1.00  0.00    -0.508 Cl 
HETATM   14  N   UNL     1      -9.613   8.740  68.689  1.00  0.00    -0.152 NA 
HETATM   15  C   UNL     1     -12.288  11.103  70.954  1.00  0.00    -0.399 A  
HETATM   16  C   UNL     1     -10.834   9.193  70.746  1.00  0.00    -0.331 A  
HETATM   17  C   UNL     1     -11.719   9.963  71.505  1.00  0.00    -0.414 A  
ENDROOT
BRANCH   8  18
HETATM   18  C   UNL     1     -10.383  12.842  67.508  1.00  0.00    -0.223 A  
HETATM   19  C   UNL     1      -9.037  14.761  68.195  1.00  0.00    -0.180 A  
HETATM   20  C   UNL     1     -11.021  15.103  66.874  1.00  0.00    -0.323 A  
HETATM   21  C   UNL     1      -9.249  13.381  68.148  1.00  0.00    -0.215 A  
HETATM   22  C   UNL     1      -9.923  15.622  67.559  1.00  0.00    -0.231 A  
HETATM   23  C   UNL     1     -11.265  13.722  66.852  1.00  0.00    -0.313 A  
HETATM   24 CL   UNL     1     -12.717  13.227  66.054  1.00  0.00    -0.282 Cl 
ENDBRANCH   8  18
TORSDOF 1
ENDMDL
MODEL       57
REMARK 921   NORMALIZED FREE ENERGY PREDICTED BY IDOCK:   -5.33 KCAL/MOL
REMARK 922        TOTAL FREE ENERGY PREDICTED BY IDOCK:   -6.28 KCAL/MOL
REMARK 923 INTER-LIGAND FREE ENERGY PREDICTED BY IDOCK:   -5.89 KCAL/MOL
REMARK 924 INTRA-LIGAND FREE ENERGY PREDICTED BY IDOCK:   -0.39 KCAL/MOL
REMARK 927      BINDING AFFINITY PREDICTED BY RF-SCORE:    0.00 PKD
ROOT
HETATM    1  C   UNL     1      -8.604  14.783  68.043  1.00  0.00    -0.166 C  
HETATM    2  C   UNL     1      -9.369  13.790  67.253  1.00  0.00    -0.239 A  
HETATM    3  N   UNL     1     -10.116  14.097  66.213  1.00  0.00    -0.290 NA 
HETATM    4  N   UNL     1     -10.821  12.985  65.848  1.00  0.00    -0.270 NA 
HETATM    5  C   UNL     1     -10.494  12.014  66.670  1.00  0.00    -0.215 A  
HETATM    6  C   UNL     1     -10.983  10.619  66.640  1.00  0.00    -0.074 C  
HETATM    7  N   UNL     1     -11.603  10.283  67.910  1.00  0.00    -0.670 NA 
HETATM    8  C   UNL     1     -10.909  10.190  68.991  1.00  0.00    -0.224 C  
HETATM    9  H   UNL     1     -12.608  10.118  67.946  1.00  0.00     0.000 HD 
HETATM   10  C   UNL     1      -8.659   9.659  69.908  1.00  0.00    -0.218 A  
HETATM   11  C   UNL     1      -9.434  10.492  69.078  1.00  0.00    -0.211 A  
HETATM   12  C   UNL     1      -8.831  11.622  68.481  1.00  0.00    -0.131 A  
HETATM   13 CL   UNL     1      -6.438   9.000  71.288  1.00  0.00    -0.079 Cl 
HETATM   14  N   UNL     1      -9.529  12.444  67.553  1.00  0.00    -0.182 NA 
HETATM   15  C   UNL     1      -7.335   9.979  70.196  1.00  0.00    -0.163 A  
HETATM   16  C   UNL     1      -7.481  11.906  68.756  1.00  0.00    -0.100 A  
HETATM   17  C   UNL     1      -6.744  11.098  69.626  1.00  0.00    -0.134 A  
ENDROOT
BRANCH   8  18
HETATM   18  C   UNL     1     -11.634   9.777  70.250  1.00  0.00    -0.283 A  
HETATM   19  C   UNL     1     -12.354   7.963  71.719  1.00  0.00    -0.352 A  
HETATM   20  C   UNL     1     -13.037  10.225  72.186  1.00  0.00    -0.444 A  
HETATM   21  C   UNL     1     -11.624   8.416  70.618  1.00  0.00    -0.205 A  
HETATM   22  C   UNL     1     -13.061   8.867  72.503  1.00  0.00    -0.426 A  
HETATM   23  C   UNL     1     -12.339  10.686  71.061  1.00  0.00    -0.403 A  
HETATM   24 CL   UNL     1     -12.480  12.377  70.729  1.00  0.00    -0.410 Cl 
ENDBRANCH   8  18
TORSDOF 1
ENDMDL
MODEL       58
REMARK 921   NORMALIZED FREE ENERGY PREDICTED BY IDOCK:   -5.30 KCAL/MOL
REMARK 922        TOTAL FREE ENERGY PREDICTED BY IDOCK:   -6.25 KCAL/MOL
REMARK 923 INTER-LIGAND FREE ENERGY PREDICTED BY IDOCK:   -5.61 KCAL/MOL
REMARK 924 INTRA-LIGAND FREE ENERGY PREDICTED BY IDOCK:   -0.64 KCAL/MOL
REMARK 927      BINDING AFFINITY PREDICTED BY RF-SCORE:    0.00 PKD
ROOT
HETATM    1  C   UNL     1      -9.951   6.115  73.011  1.00  0.00    -0.185 C  
HETATM    2  C   UNL     1     -10.304   5.887  71.590  1.00  0.00    -0.219 A  
HETATM    3  N   UNL     1     -10.038   4.775  70.937  1.00  0.00    -0.219 NA 
HETATM    4  N   UNL     1     -10.321   4.976  69.616  1.00  0.00    -0.246 NA 
HETATM    5  C   UNL     1     -10.757   6.208  69.481  1.00  0.00    -0.320 A  
HETATM    6  C   UNL     1     -11.212   6.860  68.234  1.00  0.00     0.015 C  
HETATM    7  N   UNL     1     -10.428   8.057  67.986  1.00  0.00    -0.325 NA 
HETATM    8  C   UNL     1     -10.518   9.089  68.752  1.00  0.00    -0.206 C  
HETATM    9  H   UNL     1      -9.794   8.082  67.188  1.00  0.00     0.000 HD 
HETATM   10  C   UNL     1     -12.028  10.349  70.274  1.00  0.00    -0.387 A  
HETATM   11  C   UNL     1     -11.356   9.142  70.004  1.00  0.00    -0.108 A  
HETATM   12  C   UNL     1     -11.395   8.103  70.963  1.00  0.00    -0.269 A  
HETATM   13 CL   UNL     1     -13.394  12.068  71.840  1.00  0.00    -0.508 Cl 
HETATM   14  N   UNL     1     -10.826   6.825  70.709  1.00  0.00    -0.239 NA 
HETATM   15  C   UNL     1     -12.664  10.550  71.496  1.00  0.00    -0.452 A  
HETATM   16  C   UNL     1     -12.075   8.314  72.176  1.00  0.00    -0.425 A  
HETATM   17  C   UNL     1     -12.689   9.540  72.448  1.00  0.00    -0.313 A  
ENDROOT
BRANCH   8  18
HETATM   18  C   UNL     1      -9.708  10.307  68.377  1.00  0.00    -0.165 A  
HETATM   19  C   UNL     1      -9.381  12.178  66.841  1.00  0.00    -0.203 A  
HETATM   20  C   UNL     1      -7.796  11.792  68.612  1.00  0.00    -0.117 A  
HETATM   21  C   UNL     1     -10.140  11.095  67.289  1.00  0.00    -0.218 A  
HETATM   22  C   UNL     1      -8.209  12.527  67.501  1.00  0.00    -0.175 A  
HETATM   23  C   UNL     1      -8.529  10.679  69.049  1.00  0.00    -0.145 A  
HETATM   24 CL   UNL     1      -7.847   9.801  70.373  1.00  0.00    -0.182 Cl 
ENDBRANCH   8  18
TORSDOF 1
ENDMDL
MODEL       59
REMARK 921   NORMALIZED FREE ENERGY PREDICTED BY IDOCK:   -5.29 KCAL/MOL
REMARK 922        TOTAL FREE ENERGY PREDICTED BY IDOCK:   -6.25 KCAL/MOL
REMARK 923 INTER-LIGAND FREE ENERGY PREDICTED BY IDOCK:   -5.60 KCAL/MOL
REMARK 924 INTRA-LIGAND FREE ENERGY PREDICTED BY IDOCK:   -0.65 KCAL/MOL
REMARK 927      BINDING AFFINITY PREDICTED BY RF-SCORE:    0.00 PKD
ROOT
HETATM    1  C   UNL     1     -12.510  14.271  64.883  1.00  0.00    -0.403 C  
HETATM    2  C   UNL     1     -11.278  14.923  65.385  1.00  0.00    -0.359 A  
HETATM    3  N   UNL     1     -10.784  16.039  64.892  1.00  0.00    -0.631 NA 
HETATM    4  N   UNL     1      -9.556  16.249  65.451  1.00  0.00    -0.401 NA 
HETATM    5  C   UNL     1      -9.318  15.258  66.280  1.00  0.00    -0.310 A  
HETATM    6  C   UNL     1      -8.123  15.080  67.134  1.00  0.00    -0.214 C  
HETATM    7  N   UNL     1      -7.489  13.807  66.839  1.00  0.00    -0.273 NA 
HETATM    8  C   UNL     1      -8.063  12.690  67.124  1.00  0.00    -0.141 C  
HETATM    9  H   UNL     1      -6.570  13.798  66.397  1.00  0.00     0.000 HD 
HETATM   10  C   UNL     1      -9.660  11.575  68.670  1.00  0.00    -0.159 A  
HETATM   11  C   UNL     1      -9.451  12.574  67.700  1.00  0.00    -0.188 A  
HETATM   12  C   UNL     1     -10.557  13.320  67.230  1.00  0.00    -0.247 A  
HETATM   13 CL   UNL     1     -11.186   9.985  70.224  1.00  0.00    -0.349 Cl 
HETATM   14  N   UNL     1     -10.400  14.410  66.331  1.00  0.00    -0.281 NA 
HETATM   15  C   UNL     1     -10.946  11.273  69.112  1.00  0.00    -0.240 A  
HETATM   16  C   UNL     1     -11.842  13.023  67.719  1.00  0.00    -0.395 A  
HETATM   17  C   UNL     1     -12.036  11.991  68.640  1.00  0.00    -0.290 A  
ENDROOT
BRANCH   8  18
HETATM   18  C   UNL     1      -7.297  11.421  66.833  1.00  0.00    -0.147 A  
HETATM   19  C   UNL     1      -5.379   9.999  67.353  1.00  0.00    -0.041 A  
HETATM   20  C   UNL     1      -6.847   9.412  65.536  1.00  0.00    -0.078 A  
HETATM   21  C   UNL     1      -6.178  11.110  67.634  1.00  0.00    -0.053 A  
HETATM   22  C   UNL     1      -5.713   9.151  66.305  1.00  0.00    -0.053 A  
HETATM   23  C   UNL     1      -7.636  10.545  65.785  1.00  0.00    -0.142 A  
HETATM   24 CL   UNL     1      -8.951  10.800  64.692  1.00  0.00    -0.206 Cl 
ENDBRANCH   8  18
TORSDOF 1
ENDMDL
MODEL       60
REMARK 921   NORMALIZED FREE ENERGY PREDICTED BY IDOCK:   -5.27 KCAL/MOL
REMARK 922        TOTAL FREE ENERGY PREDICTED BY IDOCK:   -6.22 KCAL/MOL
REMARK 923 INTER-LIGAND FREE ENERGY PREDICTED BY IDOCK:   -6.12 KCAL/MOL
REMARK 924 INTRA-LIGAND FREE ENERGY PREDICTED BY IDOCK:   -0.09 KCAL/MOL
REMARK 927      BINDING AFFINITY PREDICTED BY RF-SCORE:    0.00 PKD
ROOT
HETATM    1  C   UNL     1     -12.221  11.789  63.674  1.00  0.00    -0.489 C  
HETATM    2  C   UNL     1     -10.806  11.447  63.950  1.00  0.00    -0.393 A  
HETATM    3  N   UNL     1      -9.976  10.970  63.047  1.00  0.00    -0.321 NA 
HETATM    4  N   UNL     1      -8.826  10.589  63.679  1.00  0.00    -0.193 NA 
HETATM    5  C   UNL     1      -8.970  10.840  64.960  1.00  0.00    -0.194 A  
HETATM    6  C   UNL     1      -7.971  10.621  66.028  1.00  0.00    -0.159 C  
HETATM    7  N   UNL     1      -8.521   9.746  67.049  1.00  0.00    -0.117 NA 
HETATM    8  C   UNL     1      -9.490  10.126  67.807  1.00  0.00    -0.144 C  
HETATM    9  H   UNL     1      -8.131   8.812  67.168  1.00  0.00     0.000 HD 
HETATM   10  C   UNL     1     -10.575  12.099  68.863  1.00  0.00    -0.179 A  
HETATM   11  C   UNL     1     -10.202  11.449  67.672  1.00  0.00    -0.204 A  
HETATM   12  C   UNL     1     -10.615  11.991  66.433  1.00  0.00    -0.243 A  
HETATM   13 CL   UNL     1     -11.920  13.941  70.302  1.00  0.00    -0.394 Cl 
HETATM   14  N   UNL     1     -10.186  11.442  65.193  1.00  0.00    -0.263 NA 
HETATM   15  C   UNL     1     -11.399  13.221  68.831  1.00  0.00    -0.288 A  
HETATM   16  C   UNL     1     -11.416  13.147  66.422  1.00  0.00    -0.374 A  
HETATM   17  C   UNL     1     -11.822  13.746  67.618  1.00  0.00    -0.413 A  
ENDROOT
BRANCH   8  18
HETATM   18  C   UNL     1      -9.952   9.168  68.879  1.00  0.00    -0.189 A  
HETATM   19  C   UNL     1     -10.022   8.601  71.254  1.00  0.00    -0.315 A  
HETATM   20  C   UNL     1     -10.955   7.083  69.633  1.00  0.00    -0.268 A  
HETATM   21  C   UNL     1      -9.701   9.492  70.228  1.00  0.00    -0.314 A  
HETATM   22  C   UNL     1     -10.649   7.397  70.957  1.00  0.00    -0.234 A  
HETATM   23  C   UNL     1     -10.603   7.953  68.591  1.00  0.00    -0.111 A  
HETATM   24 CL   UNL     1     -10.950   7.391  66.993  1.00  0.00    -0.326 Cl 
ENDBRANCH   8  18
TORSDOF 1
ENDMDL
MODEL       61
REMARK 921   NORMALIZED FREE ENERGY PREDICTED BY IDOCK:   -5.26 KCAL/MOL
REMARK 922        TOTAL FREE ENERGY PREDICTED BY IDOCK:   -6.21 KCAL/MOL
REMARK 923 INTER-LIGAND FREE ENERGY PREDICTED BY IDOCK:   -5.56 KCAL/MOL
REMARK 924 INTRA-LIGAND FREE ENERGY PREDICTED BY IDOCK:   -0.64 KCAL/MOL
REMARK 927      BINDING AFFINITY PREDICTED BY RF-SCORE:    0.00 PKD
ROOT
HETATM    1  C   UNL     1     -10.692   7.596  73.161  1.00  0.00    -0.445 C  
HETATM    2  C   UNL     1     -10.887   6.930  71.851  1.00  0.00    -0.229 A  
HETATM    3  N   UNL     1     -10.878   5.624  71.683  1.00  0.00    -0.252 NA 
HETATM    4  N   UNL     1     -10.892   5.365  70.342  1.00  0.00    -0.207 NA 
HETATM    5  C   UNL     1     -10.912   6.516  69.710  1.00  0.00    -0.338 A  
HETATM    6  C   UNL     1     -10.965   6.728  68.247  1.00  0.00    -0.197 C  
HETATM    7  N   UNL     1      -9.829   7.527  67.821  1.00  0.00    -0.148 NA 
HETATM    8  C   UNL     1      -9.714   8.764  68.162  1.00  0.00    -0.158 C  
HETATM    9  H   UNL     1      -9.109   7.100  67.240  1.00  0.00     0.000 HD 
HETATM   10  C   UNL     1     -10.978  10.818  68.770  1.00  0.00    -0.295 A  
HETATM   11  C   UNL     1     -10.669   9.480  69.083  1.00  0.00    -0.228 A  
HETATM   12  C   UNL     1     -11.157   8.925  70.288  1.00  0.00    -0.228 A  
HETATM   13 CL   UNL     1     -11.975  13.266  69.305  1.00  0.00    -0.365 Cl 
HETATM   14  N   UNL     1     -10.970   7.553  70.613  1.00  0.00    -0.245 NA 
HETATM   15  C   UNL     1     -11.694  11.609  69.665  1.00  0.00    -0.350 A  
HETATM   16  C   UNL     1     -11.911   9.731  71.160  1.00  0.00    -0.466 A  
HETATM   17  C   UNL     1     -12.159  11.073  70.857  1.00  0.00    -0.444 A  
ENDROOT
BRANCH   8  18
HETATM   18  C   UNL     1      -8.530   9.528  67.620  1.00  0.00    -0.122 A  
HETATM   19  C   UNL     1      -6.345  10.532  68.051  1.00  0.00    -0.058 A  
HETATM   20  C   UNL     1      -7.378  10.794  65.891  1.00  0.00    -0.094 A  
HETATM   21  C   UNL     1      -7.426   9.754  68.468  1.00  0.00    -0.079 A  
HETATM   22  C   UNL     1      -6.320  11.052  66.762  1.00  0.00    -0.114 A  
HETATM   23  C   UNL     1      -8.486  10.045  66.311  1.00  0.00    -0.130 A  
HETATM   24 CL   UNL     1      -9.769   9.889  65.162  1.00  0.00    -0.374 Cl 
ENDBRANCH   8  18
TORSDOF 1
ENDMDL
MODEL       62
REMARK 921   NORMALIZED FREE ENERGY PREDICTED BY IDOCK:   -5.26 KCAL/MOL
REMARK 922        TOTAL FREE ENERGY PREDICTED BY IDOCK:   -6.20 KCAL/MOL
REMARK 923 INTER-LIGAND FREE ENERGY PREDICTED BY IDOCK:   -6.34 KCAL/MOL
REMARK 924 INTRA-LIGAND FREE ENERGY PREDICTED BY IDOCK:    0.13 KCAL/MOL
REMARK 927      BINDING AFFINITY PREDICTED BY RF-SCORE:    0.00 PKD
ROOT
HETATM    1  C   UNL     1     -11.608   7.170  70.691  1.00  0.00    -0.354 C  
HETATM    2  C   UNL     1     -12.083   8.500  71.141  1.00  0.00    -0.252 A  
HETATM    3  N   UNL     1     -13.149   8.684  71.892  1.00  0.00    -0.353 NA 
HETATM    4  N   UNL     1     -13.403  10.024  71.955  1.00  0.00    -0.439 NA 
HETATM    5  C   UNL     1     -12.488  10.641  71.242  1.00  0.00    -0.410 A  
HETATM    6  C   UNL     1     -12.345  12.100  71.048  1.00  0.00    -0.230 C  
HETATM    7  N   UNL     1     -12.386  12.417  69.631  1.00  0.00    -0.066 NA 
HETATM    8  C   UNL     1     -11.443  12.052  68.833  1.00  0.00    -0.301 C  
HETATM    9  H   UNL     1     -13.179  12.940  69.260  1.00  0.00     0.000 HD 
HETATM   10  C   UNL     1      -9.017  11.527  68.681  1.00  0.00    -0.115 A  
HETATM   11  C   UNL     1     -10.265  11.206  69.248  1.00  0.00    -0.110 A  
HETATM   12  C   UNL     1     -10.377  10.054  70.060  1.00  0.00    -0.272 A  
HETATM   13 CL   UNL     1      -6.433  11.048  68.076  1.00  0.00    -0.057 Cl 
HETATM   14  N   UNL     1     -11.581   9.732  70.745  1.00  0.00    -0.314 NA 
HETATM   15  C   UNL     1      -7.921  10.686  68.857  1.00  0.00    -0.132 A  
HETATM   16  C   UNL     1      -9.248   9.240  70.255  1.00  0.00    -0.273 A  
HETATM   17  C   UNL     1      -8.031   9.545  69.639  1.00  0.00    -0.120 A  
ENDROOT
BRANCH   8  18
HETATM   18  C   UNL     1     -11.547  12.481  67.389  1.00  0.00    -0.434 A  
HETATM   19  C   UNL     1     -12.220  14.198  65.787  1.00  0.00    -0.458 A  
HETATM   20  C   UNL     1     -11.393  12.080  64.995  1.00  0.00    -0.365 A  
HETATM   21  C   UNL     1     -12.016  13.780  67.104  1.00  0.00    -0.442 A  
HETATM   22  C   UNL     1     -11.909  13.349  64.733  1.00  0.00    -0.415 A  
HETATM   23  C   UNL     1     -11.219  11.635  66.314  1.00  0.00    -0.271 A  
HETATM   24 CL   UNL     1     -10.668  10.006  66.491  1.00  0.00    -0.156 Cl 
ENDBRANCH   8  18
TORSDOF 1
ENDMDL
MODEL       63
REMARK 921   NORMALIZED FREE ENERGY PREDICTED BY IDOCK:   -5.25 KCAL/MOL
REMARK 922        TOTAL FREE ENERGY PREDICTED BY IDOCK:   -6.20 KCAL/MOL
REMARK 923 INTER-LIGAND FREE ENERGY PREDICTED BY IDOCK:   -6.10 KCAL/MOL
REMARK 924 INTRA-LIGAND FREE ENERGY PREDICTED BY IDOCK:   -0.10 KCAL/MOL
REMARK 927      BINDING AFFINITY PREDICTED BY RF-SCORE:    0.00 PKD
ROOT
HETATM    1  C   UNL     1      -6.158  10.988  68.002  1.00  0.00    -0.049 C  
HETATM    2  C   UNL     1      -7.421  10.606  67.329  1.00  0.00    -0.099 A  
HETATM    3  N   UNL     1      -7.647  10.772  66.042  1.00  0.00    -0.148 NA 
HETATM    4  N   UNL     1      -8.962  10.496  65.799  1.00  0.00    -0.173 NA 
HETATM    5  C   UNL     1      -9.521  10.165  66.940  1.00  0.00    -0.169 A  
HETATM    6  C   UNL     1     -10.926   9.756  67.158  1.00  0.00    -0.033 C  
HETATM    7  N   UNL     1     -11.554  10.636  68.129  1.00  0.00    -0.666 NA 
HETATM    8  C   UNL     1     -11.190  10.640  69.364  1.00  0.00    -0.270 C  
HETATM    9  H   UNL     1     -12.297  11.263  67.825  1.00  0.00     0.000 HD 
HETATM   10  C   UNL     1     -10.227   9.253  71.191  1.00  0.00    -0.387 A  
HETATM   11  C   UNL     1     -10.051   9.819  69.913  1.00  0.00    -0.288 A  
HETATM   12  C   UNL     1      -8.794   9.700  69.275  1.00  0.00    -0.164 A  
HETATM   13 CL   UNL     1      -9.376   8.049  73.449  1.00  0.00    -0.341 Cl 
HETATM   14  N   UNL     1      -8.581  10.157  67.946  1.00  0.00    -0.118 NA 
HETATM   15  C   UNL     1      -9.162   8.646  71.851  1.00  0.00    -0.275 A  
HETATM   16  C   UNL     1      -7.743   9.050  69.946  1.00  0.00    -0.076 A  
HETATM   17  C   UNL     1      -7.922   8.544  71.236  1.00  0.00    -0.158 A  
ENDROOT
BRANCH   8  18
HETATM   18  C   UNL     1     -11.944  11.546  70.308  1.00  0.00    -0.455 A  
HETATM   19  C   UNL     1     -13.573  11.750  72.117  1.00  0.00    -0.158 A  
HETATM   20  C   UNL     1     -12.636  13.732  71.120  1.00  0.00    -0.452 A  
HETATM   21  C   UNL     1     -12.783  10.961  71.280  1.00  0.00    -0.542 A  
HETATM   22  C   UNL     1     -13.500  13.136  72.037  1.00  0.00    -0.598 A  
HETATM   23  C   UNL     1     -11.865  12.949  70.248  1.00  0.00    -0.213 A  
HETATM   24 CL   UNL     1     -10.916  13.821  69.095  1.00  0.00    -0.268 Cl 
ENDBRANCH   8  18
TORSDOF 1
ENDMDL
MODEL       64
REMARK 921   NORMALIZED FREE ENERGY PREDICTED BY IDOCK:   -5.23 KCAL/MOL
REMARK 922        TOTAL FREE ENERGY PREDICTED BY IDOCK:   -6.17 KCAL/MOL
REMARK 923 INTER-LIGAND FREE ENERGY PREDICTED BY IDOCK:   -6.64 KCAL/MOL
REMARK 924 INTRA-LIGAND FREE ENERGY PREDICTED BY IDOCK:    0.46 KCAL/MOL
REMARK 927      BINDING AFFINITY PREDICTED BY RF-SCORE:    0.00 PKD
ROOT
HETATM    1  C   UNL     1      -7.024  16.102  66.737  1.00  0.00    -0.107 C  
HETATM    2  C   UNL     1      -8.151  16.732  67.463  1.00  0.00    -0.172 A  
HETATM    3  N   UNL     1      -8.028  17.799  68.225  1.00  0.00    -0.272 NA 
HETATM    4  N   UNL     1      -9.208  17.992  68.886  1.00  0.00    -0.197 NA 
HETATM    5  C   UNL     1     -10.035  17.041  68.516  1.00  0.00    -0.293 A  
HETATM    6  C   UNL     1     -11.439  16.865  68.948  1.00  0.00     0.270 C  
HETATM    7  N   UNL     1     -11.611  15.554  69.549  1.00  0.00    -0.325 NA 
HETATM    8  C   UNL     1     -11.519  14.477  68.849  1.00  0.00    -0.300 C  
HETATM    9  H   UNL     1     -11.809  15.485  70.547  1.00  0.00     0.000 HD 
HETATM   10  C   UNL     1     -11.821  13.514  66.576  1.00  0.00    -0.441 A  
HETATM   11  C   UNL     1     -11.149  14.449  67.387  1.00  0.00    -0.317 A  
HETATM   12  C   UNL     1     -10.094  15.209  66.833  1.00  0.00    -0.255 A  
HETATM   13 CL   UNL     1     -12.183  12.074  64.324  1.00  0.00    -0.426 Cl 
HETATM   14  N   UNL     1      -9.444  16.240  67.566  1.00  0.00    -0.226 NA 
HETATM   15  C   UNL     1     -11.410  13.288  65.265  1.00  0.00    -0.295 A  
HETATM   16  C   UNL     1      -9.719  14.990  65.495  1.00  0.00    -0.294 A  
HETATM   17  C   UNL     1     -10.362  14.019  64.722  1.00  0.00    -0.407 A  
ENDROOT
BRANCH   8  18
HETATM   18  C   UNL     1     -11.774  13.165  69.552  1.00  0.00    -0.382 A  
HETATM   19  C   UNL     1     -11.499  10.738  69.561  1.00  0.00    -0.365 A  
HETATM   20  C   UNL     1     -12.802  11.802  71.284  1.00  0.00    -0.409 A  
HETATM   21  C   UNL     1     -11.220  11.989  69.006  1.00  0.00    -0.313 A  
HETATM   22  C   UNL     1     -12.290  10.644  70.700  1.00  0.00    -0.462 A  
HETATM   23  C   UNL     1     -12.559  13.060  70.715  1.00  0.00    -0.241 A  
HETATM   24 CL   UNL     1     -13.339  14.398  71.485  1.00  0.00    -0.407 Cl 
ENDBRANCH   8  18
TORSDOF 1
ENDMDL
MODEL       65
REMARK 921   NORMALIZED FREE ENERGY PREDICTED BY IDOCK:   -5.22 KCAL/MOL
REMARK 922        TOTAL FREE ENERGY PREDICTED BY IDOCK:   -6.17 KCAL/MOL
REMARK 923 INTER-LIGAND FREE ENERGY PREDICTED BY IDOCK:   -5.53 KCAL/MOL
REMARK 924 INTRA-LIGAND FREE ENERGY PREDICTED BY IDOCK:   -0.64 KCAL/MOL
REMARK 927      BINDING AFFINITY PREDICTED BY RF-SCORE:    0.00 PKD
ROOT
HETATM    1  C   UNL     1     -10.903   6.067  66.840  1.00  0.00    -0.396 C  
HETATM    2  C   UNL     1     -10.623   7.100  67.865  1.00  0.00    -0.208 A  
HETATM    3  N   UNL     1     -11.034   7.026  69.114  1.00  0.00    -0.195 NA 
HETATM    4  N   UNL     1     -10.771   8.220  69.723  1.00  0.00    -0.238 NA 
HETATM    5  C   UNL     1     -10.201   9.006  68.838  1.00  0.00    -0.208 A  
HETATM    6  C   UNL     1      -9.712  10.385  69.056  1.00  0.00    -0.206 C  
HETATM    7  N   UNL     1     -10.361  11.293  68.126  1.00  0.00    -0.180 NA 
HETATM    8  C   UNL     1     -10.131  11.235  66.860  1.00  0.00    -0.212 C  
HETATM    9  H   UNL     1     -11.013  11.991  68.483  1.00  0.00     0.000 HD 
HETATM   10  C   UNL     1      -8.440  10.626  65.141  1.00  0.00    -0.146 A  
HETATM   11  C   UNL     1      -9.254  10.196  66.207  1.00  0.00    -0.191 A  
HETATM   12  C   UNL     1      -9.305   8.820  66.523  1.00  0.00    -0.203 A  
HETATM   13 CL   UNL     1      -6.838  10.242  63.005  1.00  0.00    -0.139 Cl 
HETATM   14  N   UNL     1     -10.024   8.334  67.650  1.00  0.00    -0.177 NA 
HETATM   15  C   UNL     1      -7.748   9.703  64.360  1.00  0.00    -0.128 A  
HETATM   16  C   UNL     1      -8.568   7.909  65.745  1.00  0.00    -0.167 A  
HETATM   17  C   UNL     1      -7.809   8.348  64.656  1.00  0.00    -0.127 A  
ENDROOT
BRANCH   8  18
HETATM   18  C   UNL     1     -10.806  12.261  65.982  1.00  0.00    -0.310 A  
HETATM   19  C   UNL     1     -12.511  12.739  64.299  1.00  0.00    -0.461 A  
HETATM   20  C   UNL     1     -11.012  14.483  65.014  1.00  0.00    -0.408 A  
HETATM   21  C   UNL     1     -11.907  11.857  65.198  1.00  0.00    -0.187 A  
HETATM   22  C   UNL     1     -12.064  14.052  64.207  1.00  0.00    -0.476 A  
HETATM   23  C   UNL     1     -10.373  13.597  65.893  1.00  0.00    -0.301 A  
HETATM   24 CL   UNL     1      -9.020  14.239  66.757  1.00  0.00    -0.267 Cl 
ENDBRANCH   8  18
TORSDOF 1
ENDMDL
MODEL       66
REMARK 921   NORMALIZED FREE ENERGY PREDICTED BY IDOCK:   -5.22 KCAL/MOL
REMARK 922        TOTAL FREE ENERGY PREDICTED BY IDOCK:   -6.17 KCAL/MOL
REMARK 923 INTER-LIGAND FREE ENERGY PREDICTED BY IDOCK:   -5.53 KCAL/MOL
REMARK 924 INTRA-LIGAND FREE ENERGY PREDICTED BY IDOCK:   -0.64 KCAL/MOL
REMARK 927      BINDING AFFINITY PREDICTED BY RF-SCORE:    0.00 PKD
ROOT
HETATM    1  C   UNL     1      -6.512   7.790  67.544  1.00  0.00    -0.055 C  
HETATM    2  C   UNL     1      -7.744   6.968  67.601  1.00  0.00    -0.112 A  
HETATM    3  N   UNL     1      -8.252   6.333  66.566  1.00  0.00    -0.110 NA 
HETATM    4  N   UNL     1      -9.475   5.842  66.922  1.00  0.00    -0.128 NA 
HETATM    5  C   UNL     1      -9.697   6.183  68.171  1.00  0.00    -0.120 A  
HETATM    6  C   UNL     1     -10.881   5.843  68.990  1.00  0.00    -0.313 C  
HETATM    7  N   UNL     1     -11.508   7.058  69.481  1.00  0.00    -0.543 NA 
HETATM    8  C   UNL     1     -10.923   7.813  70.344  1.00  0.00    -0.249 C  
HETATM    9  H   UNL     1     -12.432   7.317  69.135  1.00  0.00     0.000 HD 
HETATM   10  C   UNL     1      -9.301   7.846  72.229  1.00  0.00    -0.238 A  
HETATM   11  C   UNL     1      -9.527   7.579  70.866  1.00  0.00    -0.165 A  
HETATM   12  C   UNL     1      -8.433   7.234  70.040  1.00  0.00    -0.139 A  
HETATM   13 CL   UNL     1      -7.746   8.267  74.393  1.00  0.00    -0.281 Cl 
HETATM   14  N   UNL     1      -8.607   6.851  68.682  1.00  0.00    -0.124 NA 
HETATM   15  C   UNL     1      -8.008   7.842  72.748  1.00  0.00    -0.133 A  
HETATM   16  C   UNL     1      -7.140   7.199  70.594  1.00  0.00    -0.066 A  
HETATM   17  C   UNL     1      -6.929   7.522  71.937  1.00  0.00    -0.062 A  
ENDROOT
BRANCH   8  18
HETATM   18  C   UNL     1     -11.682   9.022  70.840  1.00  0.00    -0.327 A  
HETATM   19  C   UNL     1     -13.517   9.897  72.193  1.00  0.00    -0.454 A  
HETATM   20  C   UNL     1     -12.193  11.400  70.855  1.00  0.00    -0.447 A  
HETATM   21  C   UNL     1     -12.723   8.829  71.771  1.00  0.00    -0.408 A  
HETATM   22  C   UNL     1     -13.253  11.183  71.735  1.00  0.00    -0.486 A  
HETATM   23  C   UNL     1     -11.412  10.330  70.396  1.00  0.00    -0.335 A  
HETATM   24 CL   UNL     1     -10.199  10.730  69.231  1.00  0.00    -0.235 Cl 
ENDBRANCH   8  18
TORSDOF 1
ENDMDL
MODEL       67
REMARK 921   NORMALIZED FREE ENERGY PREDICTED BY IDOCK:   -5.16 KCAL/MOL
REMARK 922        TOTAL FREE ENERGY PREDICTED BY IDOCK:   -6.11 KCAL/MOL
REMARK 923 INTER-LIGAND FREE ENERGY PREDICTED BY IDOCK:   -5.47 KCAL/MOL
REMARK 924 INTRA-LIGAND FREE ENERGY PREDICTED BY IDOCK:   -0.64 KCAL/MOL
REMARK 927      BINDING AFFINITY PREDICTED BY RF-SCORE:    0.00 PKD
ROOT
HETATM    1  C   UNL     1     -10.632   8.637  69.370  1.00  0.00    -0.207 C  
HETATM    2  C   UNL     1      -9.329   9.328  69.514  1.00  0.00    -0.173 A  
HETATM    3  N   UNL     1      -8.460   9.067  70.469  1.00  0.00    -0.179 NA 
HETATM    4  N   UNL     1      -7.471  10.007  70.418  1.00  0.00    -0.268 NA 
HETATM    5  C   UNL     1      -7.749  10.830  69.433  1.00  0.00    -0.102 A  
HETATM    6  C   UNL     1      -6.943  11.986  68.983  1.00  0.00    -0.094 C  
HETATM    7  N   UNL     1      -7.742  13.197  69.036  1.00  0.00    -0.331 NA 
HETATM    8  C   UNL     1      -8.742  13.377  68.243  1.00  0.00    -0.172 C  
HETATM    9  H   UNL     1      -7.507  13.921  69.714  1.00  0.00     0.000 HD 
HETATM   10  C   UNL     1      -9.670  12.818  66.004  1.00  0.00    -0.226 A  
HETATM   11  C   UNL     1      -9.235  12.347  67.258  1.00  0.00    -0.187 A  
HETATM   12  C   UNL     1      -9.398  10.979  67.574  1.00  0.00    -0.159 A  
HETATM   13 CL   UNL     1     -10.924  12.587  63.628  1.00  0.00    -0.492 Cl 
HETATM   14  N   UNL     1      -8.888  10.419  68.778  1.00  0.00    -0.148 NA 
HETATM   15  C   UNL     1     -10.316  11.967  65.112  1.00  0.00    -0.276 A  
HETATM   16  C   UNL     1     -10.020  10.129  66.641  1.00  0.00    -0.272 A  
HETATM   17  C   UNL     1     -10.494  10.627  65.425  1.00  0.00    -0.254 A  
ENDROOT
BRANCH   8  18
HETATM   18  C   UNL     1      -9.474  14.695  68.333  1.00  0.00    -0.209 A  
HETATM   19  C   UNL     1      -9.409  17.119  68.039  1.00  0.00    -0.254 A  
HETATM   20  C   UNL     1     -11.373  16.077  68.963  1.00  0.00    -0.363 A  
HETATM   21  C   UNL     1      -8.816  15.862  67.894  1.00  0.00    -0.179 A  
HETATM   22  C   UNL     1     -10.687  17.227  68.574  1.00  0.00    -0.305 A  
HETATM   23  C   UNL     1     -10.774  14.814  68.857  1.00  0.00    -0.252 A  
HETATM   24 CL   UNL     1     -11.700  13.489  69.472  1.00  0.00    -0.362 Cl 
ENDBRANCH   8  18
TORSDOF 1
ENDMDL
MODEL       68
REMARK 921   NORMALIZED FREE ENERGY PREDICTED BY IDOCK:   -5.16 KCAL/MOL
REMARK 922        TOTAL FREE ENERGY PREDICTED BY IDOCK:   -6.10 KCAL/MOL
REMARK 923 INTER-LIGAND FREE ENERGY PREDICTED BY IDOCK:   -5.46 KCAL/MOL
REMARK 924 INTRA-LIGAND FREE ENERGY PREDICTED BY IDOCK:   -0.65 KCAL/MOL
REMARK 927      BINDING AFFINITY PREDICTED BY RF-SCORE:    0.00 PKD
ROOT
HETATM    1  C   UNL     1      -9.974   8.939  66.211  1.00  0.00    -0.337 C  
HETATM    2  C   UNL     1      -8.820   9.003  67.139  1.00  0.00    -0.119 A  
HETATM    3  N   UNL     1      -7.573   8.786  66.775  1.00  0.00    -0.089 NA 
HETATM    4  N   UNL     1      -6.801   8.735  67.901  1.00  0.00    -0.069 NA 
HETATM    5  C   UNL     1      -7.588   8.922  68.936  1.00  0.00    -0.087 A  
HETATM    6  C   UNL     1      -7.188   8.979  70.359  1.00  0.00    -0.069 C  
HETATM    7  N   UNL     1      -7.912   7.974  71.118  1.00  0.00    -0.089 NA 
HETATM    8  C   UNL     1      -9.184   8.060  71.301  1.00  0.00    -0.150 C  
HETATM    9  H   UNL     1      -7.403   7.185  71.513  1.00  0.00     0.000 HD 
HETATM   10  C   UNL     1     -11.094   9.640  71.502  1.00  0.00    -0.335 A  
HETATM   11  C   UNL     1     -10.055   9.133  70.698  1.00  0.00    -0.307 A  
HETATM   12  C   UNL     1      -9.960   9.551  69.351  1.00  0.00    -0.191 A  
HETATM   13 CL   UNL     1     -13.372  11.017  71.938  1.00  0.00    -0.494 Cl 
HETATM   14  N   UNL     1      -8.877   9.158  68.517  1.00  0.00    -0.129 NA 
HETATM   15  C   UNL     1     -12.059  10.488  70.963  1.00  0.00    -0.387 A  
HETATM   16  C   UNL     1     -10.924  10.438  68.838  1.00  0.00    -0.289 A  
HETATM   17  C   UNL     1     -11.979  10.887  69.636  1.00  0.00    -0.414 A  
ENDROOT
BRANCH   8  18
HETATM   18  C   UNL     1      -9.837   6.999  72.155  1.00  0.00    -0.168 A  
HETATM   19  C   UNL     1     -10.100   6.001  74.369  1.00  0.00    -0.316 A  
HETATM   20  C   UNL     1     -11.185   4.998  72.467  1.00  0.00    -0.183 A  
HETATM   21  C   UNL     1      -9.598   7.010  73.545  1.00  0.00    -0.243 A  
HETATM   22  C   UNL     1     -10.893   4.995  73.831  1.00  0.00    -0.336 A  
HETATM   23  C   UNL     1     -10.656   5.986  71.623  1.00  0.00    -0.236 A  
HETATM   24 CL   UNL     1     -11.016   5.809  69.941  1.00  0.00    -0.420 Cl 
ENDBRANCH   8  18
TORSDOF 1
ENDMDL
MODEL       69
REMARK 921   NORMALIZED FREE ENERGY PREDICTED BY IDOCK:   -5.16 KCAL/MOL
REMARK 922        TOTAL FREE ENERGY PREDICTED BY IDOCK:   -6.10 KCAL/MOL
REMARK 923 INTER-LIGAND FREE ENERGY PREDICTED BY IDOCK:   -6.94 KCAL/MOL
REMARK 924 INTRA-LIGAND FREE ENERGY PREDICTED BY IDOCK:    0.84 KCAL/MOL
REMARK 927      BINDING AFFINITY PREDICTED BY RF-SCORE:    0.00 PKD
ROOT
HETATM    1  C   UNL     1     -12.333  12.469  63.771  1.00  0.00    -0.595 C  
HETATM    2  C   UNL     1     -11.253  12.028  64.685  1.00  0.00    -0.326 A  
HETATM    3  N   UNL     1     -10.836  10.783  64.782  1.00  0.00    -0.110 NA 
HETATM    4  N   UNL     1      -9.979  10.698  65.842  1.00  0.00    -0.243 NA 
HETATM    5  C   UNL     1      -9.884  11.894  66.377  1.00  0.00    -0.213 A  
HETATM    6  C   UNL     1      -9.045  12.290  67.529  1.00  0.00    -0.182 C  
HETATM    7  N   UNL     1      -9.875  12.865  68.573  1.00  0.00    -0.357 NA 
HETATM    8  C   UNL     1     -10.472  13.994  68.409  1.00  0.00    -0.253 C  
HETATM    9  H   UNL     1      -9.988  12.363  69.453  1.00  0.00     0.000 HD 
HETATM   10  C   UNL     1     -10.362  16.186  67.239  1.00  0.00    -0.287 A  
HETATM   11  C   UNL     1     -10.448  14.786  67.126  1.00  0.00    -0.265 A  
HETATM   12  C   UNL     1     -10.633  14.209  65.848  1.00  0.00    -0.298 A  
HETATM   13 CL   UNL     1     -10.514  18.710  66.301  1.00  0.00    -0.470 Cl 
HETATM   14  N   UNL     1     -10.624  12.800  65.652  1.00  0.00    -0.270 NA 
HETATM   15  C   UNL     1     -10.527  17.000  66.122  1.00  0.00    -0.271 A  
HETATM   16  C   UNL     1     -10.759  15.049  64.727  1.00  0.00    -0.354 A  
HETATM   17  C   UNL     1     -10.726  16.439  64.869  1.00  0.00    -0.213 A  
ENDROOT
BRANCH   8  18
HETATM   18  C   UNL     1     -11.264  14.538  69.575  1.00  0.00    -0.300 A  
HETATM   19  C   UNL     1     -13.183  14.289  71.066  1.00  0.00    -0.367 A  
HETATM   20  C   UNL     1     -11.782  16.241  71.232  1.00  0.00    -0.396 A  
HETATM   21  C   UNL     1     -12.360  13.791  70.053  1.00  0.00    -0.364 A  
HETATM   22  C   UNL     1     -12.894  15.514  71.656  1.00  0.00    -0.518 A  
HETATM   23  C   UNL     1     -10.971  15.769  70.191  1.00  0.00    -0.352 A  
HETATM   24 CL   UNL     1      -9.688  16.821  69.701  1.00  0.00     0.061 Cl 
ENDBRANCH   8  18
TORSDOF 1
ENDMDL
MODEL       70
REMARK 921   NORMALIZED FREE ENERGY PREDICTED BY IDOCK:   -5.16 KCAL/MOL
REMARK 922        TOTAL FREE ENERGY PREDICTED BY IDOCK:   -6.10 KCAL/MOL
REMARK 923 INTER-LIGAND FREE ENERGY PREDICTED BY IDOCK:   -5.65 KCAL/MOL
REMARK 924 INTRA-LIGAND FREE ENERGY PREDICTED BY IDOCK:   -0.45 KCAL/MOL
REMARK 927      BINDING AFFINITY PREDICTED BY RF-SCORE:    0.00 PKD
ROOT
HETATM    1  C   UNL     1      -8.169  19.220  66.387  1.00  0.00    -0.329 C  
HETATM    2  C   UNL     1      -7.240  18.124  66.751  1.00  0.00    -0.206 A  
HETATM    3  N   UNL     1      -5.963  18.108  66.432  1.00  0.00    -0.158 NA 
HETATM    4  N   UNL     1      -5.457  16.880  66.751  1.00  0.00    -0.286 NA 
HETATM    5  C   UNL     1      -6.433  16.164  67.262  1.00  0.00    -0.181 A  
HETATM    6  C   UNL     1      -6.345  14.781  67.780  1.00  0.00    -0.153 C  
HETATM    7  N   UNL     1      -7.286  13.928  67.075  1.00  0.00    -0.342 NA 
HETATM    8  C   UNL     1      -8.558  14.075  67.212  1.00  0.00    -0.216 C  
HETATM    9  H   UNL     1      -6.931  13.198  66.458  1.00  0.00     0.000 HD 
HETATM   10  C   UNL     1     -10.349  14.824  68.767  1.00  0.00    -0.248 A  
HETATM   11  C   UNL     1      -9.200  15.168  68.028  1.00  0.00    -0.185 A  
HETATM   12  C   UNL     1      -8.788  16.520  67.986  1.00  0.00    -0.197 A  
HETATM   13 CL   UNL     1     -12.563  15.376  70.205  1.00  0.00    -0.375 Cl 
HETATM   14  N   UNL     1      -7.581  16.917  67.346  1.00  0.00    -0.155 NA 
HETATM   15  C   UNL     1     -11.112  15.808  69.390  1.00  0.00    -0.314 A  
HETATM   16  C   UNL     1      -9.553  17.492  68.655  1.00  0.00    -0.303 A  
HETATM   17  C   UNL     1     -10.720  17.138  69.337  1.00  0.00    -0.086 A  
ENDROOT
BRANCH   8  18
HETATM   18  C   UNL     1      -9.453  13.100  66.485  1.00  0.00    -0.246 A  
HETATM   19  C   UNL     1      -9.982  10.773  65.963  1.00  0.00    -0.295 A  
HETATM   20  C   UNL     1     -11.229  12.548  64.916  1.00  0.00    -0.344 A  
HETATM   21  C   UNL     1      -9.246  11.719  66.680  1.00  0.00    -0.201 A  
HETATM   22  C   UNL     1     -10.974  11.187  65.081  1.00  0.00    -0.156 A  
HETATM   23  C   UNL     1     -10.471  13.508  65.603  1.00  0.00    -0.293 A  
HETATM   24 CL   UNL     1     -10.828  15.157  65.225  1.00  0.00    -0.383 Cl 
ENDBRANCH   8  18
TORSDOF 1
ENDMDL
MODEL       71
REMARK 921   NORMALIZED FREE ENERGY PREDICTED BY IDOCK:   -5.15 KCAL/MOL
REMARK 922        TOTAL FREE ENERGY PREDICTED BY IDOCK:   -6.09 KCAL/MOL
REMARK 923 INTER-LIGAND FREE ENERGY PREDICTED BY IDOCK:   -5.56 KCAL/MOL
REMARK 924 INTRA-LIGAND FREE ENERGY PREDICTED BY IDOCK:   -0.54 KCAL/MOL
REMARK 927      BINDING AFFINITY PREDICTED BY RF-SCORE:    0.00 PKD
ROOT
HETATM    1  C   UNL     1     -10.393   3.489  73.212  1.00  0.00    -0.243 C  
HETATM    2  C   UNL     1      -9.379   4.564  73.330  1.00  0.00    -0.115 A  
HETATM    3  N   UNL     1      -8.594   4.720  74.375  1.00  0.00    -0.109 NA 
HETATM    4  N   UNL     1      -7.927   5.904  74.237  1.00  0.00    -0.104 NA 
HETATM    5  C   UNL     1      -8.315   6.454  73.109  1.00  0.00    -0.115 A  
HETATM    6  C   UNL     1      -7.837   7.728  72.529  1.00  0.00    -0.108 C  
HETATM    7  N   UNL     1      -8.958   8.627  72.318  1.00  0.00    -0.358 NA 
HETATM    8  C   UNL     1      -9.863   8.375  71.436  1.00  0.00    -0.197 C  
HETATM    9  H   UNL     1      -9.030   9.475  72.878  1.00  0.00     0.000 HD 
HETATM   10  C   UNL     1     -10.309   7.250  69.264  1.00  0.00    -0.208 A  
HETATM   11  C   UNL     1      -9.909   7.116  70.607  1.00  0.00    -0.184 A  
HETATM   12  C   UNL     1      -9.698   5.823  71.138  1.00  0.00    -0.169 A  
HETATM   13 CL   UNL     1     -11.143   6.311  66.877  1.00  0.00    -0.414 Cl 
HETATM   14  N   UNL     1      -9.194   5.623  72.453  1.00  0.00    -0.144 NA 
HETATM   15  C   UNL     1     -10.563   6.124  68.484  1.00  0.00    -0.271 A  
HETATM   16  C   UNL     1      -9.925   4.700  70.321  1.00  0.00    -0.309 A  
HETATM   17  C   UNL     1     -10.374   4.852  69.007  1.00  0.00    -0.087 A  
ENDROOT
BRANCH   8  18
HETATM   18  C   UNL     1     -10.955   9.400  71.248  1.00  0.00    -0.440 A  
HETATM   19  C   UNL     1     -13.208  10.149  71.825  1.00  0.00    -0.542 A  
HETATM   20  C   UNL     1     -11.942  11.337  70.155  1.00  0.00    -0.452 A  
HETATM   21  C   UNL     1     -12.129   9.285  72.022  1.00  0.00    -0.406 A  
HETATM   22  C   UNL     1     -13.116  11.174  70.891  1.00  0.00    -0.148 A  
HETATM   23  C   UNL     1     -10.866  10.453  70.319  1.00  0.00    -0.242 A  
HETATM   24 CL   UNL     1      -9.515  10.710  69.269  1.00  0.00    -0.190 Cl 
ENDBRANCH   8  18
TORSDOF 1
ENDMDL
MODEL       72
REMARK 921   NORMALIZED FREE ENERGY PREDICTED BY IDOCK:   -5.12 KCAL/MOL
REMARK 922        TOTAL FREE ENERGY PREDICTED BY IDOCK:   -6.06 KCAL/MOL
REMARK 923 INTER-LIGAND FREE ENERGY PREDICTED BY IDOCK:   -5.43 KCAL/MOL
REMARK 924 INTRA-LIGAND FREE ENERGY PREDICTED BY IDOCK:   -0.64 KCAL/MOL
REMARK 927      BINDING AFFINITY PREDICTED BY RF-SCORE:    0.00 PKD
ROOT
HETATM    1  C   UNL     1     -10.032  14.188  65.625  1.00  0.00    -0.331 C  
HETATM    2  C   UNL     1     -10.930  13.719  66.707  1.00  0.00    -0.304 A  
HETATM    3  N   UNL     1     -11.754  14.504  67.369  1.00  0.00    -0.388 NA 
HETATM    4  N   UNL     1     -12.280  13.793  68.410  1.00  0.00    -0.268 NA 
HETATM    5  C   UNL     1     -11.771  12.583  68.367  1.00  0.00    -0.328 A  
HETATM    6  C   UNL     1     -12.075  11.457  69.278  1.00  0.00    -0.289 C  
HETATM    7  N   UNL     1     -10.853  10.984  69.905  1.00  0.00    -0.463 NA 
HETATM    8  C   UNL     1      -9.931  10.399  69.223  1.00  0.00    -0.228 C  
HETATM    9  H   UNL     1     -10.724  11.119  70.908  1.00  0.00     0.000 HD 
HETATM   10  C   UNL     1      -9.482   9.001  67.216  1.00  0.00    -0.189 A  
HETATM   11  C   UNL     1      -9.972  10.218  67.726  1.00  0.00    -0.203 A  
HETATM   12  C   UNL     1     -10.351  11.240  66.826  1.00  0.00    -0.238 A  
HETATM   13 CL   UNL     1      -8.615   7.368  65.253  1.00  0.00    -0.070 Cl 
HETATM   14  N   UNL     1     -10.949  12.451  67.272  1.00  0.00    -0.249 NA 
HETATM   15  C   UNL     1      -9.305   8.826  65.846  1.00  0.00    -0.218 A  
HETATM   16  C   UNL     1     -10.199  11.028  65.444  1.00  0.00    -0.333 A  
HETATM   17  C   UNL     1      -9.659   9.833  64.959  1.00  0.00    -0.333 A  
ENDROOT
BRANCH   8  18
HETATM   18  C   UNL     1      -8.725   9.890  69.976  1.00  0.00    -0.188 A  
HETATM   19  C   UNL     1      -7.836   8.364  71.665  1.00  0.00    -0.151 A  
HETATM   20  C   UNL     1      -6.378   9.967  70.612  1.00  0.00    -0.104 A  
HETATM   21  C   UNL     1      -8.895   8.816  70.874  1.00  0.00    -0.243 A  
HETATM   22  C   UNL     1      -6.578   8.940  71.534  1.00  0.00    -0.080 A  
HETATM   23  C   UNL     1      -7.443  10.453  69.839  1.00  0.00    -0.125 A  
HETATM   24 CL   UNL     1      -7.075  11.795  68.813  1.00  0.00    -0.105 Cl 
ENDBRANCH   8  18
TORSDOF 1
ENDMDL
MODEL       73
REMARK 921   NORMALIZED FREE ENERGY PREDICTED BY IDOCK:   -5.03 KCAL/MOL
REMARK 922        TOTAL FREE ENERGY PREDICTED BY IDOCK:   -5.96 KCAL/MOL
REMARK 923 INTER-LIGAND FREE ENERGY PREDICTED BY IDOCK:   -5.55 KCAL/MOL
REMARK 924 INTRA-LIGAND FREE ENERGY PREDICTED BY IDOCK:   -0.42 KCAL/MOL
REMARK 927      BINDING AFFINITY PREDICTED BY RF-SCORE:    0.00 PKD
ROOT
HETATM    1  C   UNL     1      -7.718   7.035  66.532  1.00  0.00    -0.104 C  
HETATM    2  C   UNL     1      -7.350   7.425  67.913  1.00  0.00    -0.093 A  
HETATM    3  N   UNL     1      -6.394   6.845  68.610  1.00  0.00    -0.030 NA 
HETATM    4  N   UNL     1      -6.453   7.315  69.891  1.00  0.00    -0.035 NA 
HETATM    5  C   UNL     1      -7.443   8.176  69.958  1.00  0.00    -0.065 A  
HETATM    6  C   UNL     1      -7.861   8.961  71.140  1.00  0.00    -0.140 C  
HETATM    7  N   UNL     1      -9.255   8.690  71.446  1.00  0.00    -0.212 NA 
HETATM    8  C   UNL     1     -10.201   9.066  70.656  1.00  0.00    -0.229 C  
HETATM    9  H   UNL     1      -9.490   8.192  72.304  1.00  0.00     0.000 HD 
HETATM   10  C   UNL     1     -10.864  10.765  68.965  1.00  0.00    -0.278 A  
HETATM   11  C   UNL     1      -9.974   9.734  69.323  1.00  0.00    -0.201 A  
HETATM   12  C   UNL     1      -9.011   9.299  68.384  1.00  0.00    -0.129 A  
HETATM   13 CL   UNL     1     -12.007  12.490  67.236  1.00  0.00    -0.374 Cl 
HETATM   14  N   UNL     1      -8.018   8.337  68.718  1.00  0.00    -0.112 NA 
HETATM   15  C   UNL     1     -10.848  11.302  67.680  1.00  0.00    -0.238 A  
HETATM   16  C   UNL     1      -8.988   9.881  67.105  1.00  0.00    -0.150 A  
HETATM   17  C   UNL     1      -9.915  10.864  66.749  1.00  0.00    -0.245 A  
ENDROOT
BRANCH   8  18
HETATM   18  C   UNL     1     -11.621   8.792  71.091  1.00  0.00    -0.344 A  
HETATM   19  C   UNL     1     -13.600   9.569  72.293  1.00  0.00    -0.494 A  
HETATM   20  C   UNL     1     -13.573   7.361  71.333  1.00  0.00    -0.410 A  
HETATM   21  C   UNL     1     -12.319   9.800  71.787  1.00  0.00    -0.470 A  
HETATM   22  C   UNL     1     -14.227   8.350  72.067  1.00  0.00    -0.528 A  
HETATM   23  C   UNL     1     -12.272   7.568  70.852  1.00  0.00    -0.194 A  
HETATM   24 CL   UNL     1     -11.544   6.220  70.048  1.00  0.00    -0.470 Cl 
ENDBRANCH   8  18
TORSDOF 1
ENDMDL
MODEL       74
REMARK 921   NORMALIZED FREE ENERGY PREDICTED BY IDOCK:   -5.01 KCAL/MOL
REMARK 922        TOTAL FREE ENERGY PREDICTED BY IDOCK:   -5.94 KCAL/MOL
REMARK 923 INTER-LIGAND FREE ENERGY PREDICTED BY IDOCK:   -5.30 KCAL/MOL
REMARK 924 INTRA-LIGAND FREE ENERGY PREDICTED BY IDOCK:   -0.64 KCAL/MOL
REMARK 927      BINDING AFFINITY PREDICTED BY RF-SCORE:    0.00 PKD
ROOT
HETATM    1  C   UNL     1      -7.851   6.587  67.319  1.00  0.00    -0.105 C  
HETATM    2  C   UNL     1      -8.973   7.026  68.182  1.00  0.00    -0.127 A  
HETATM    3  N   UNL     1      -9.887   6.212  68.669  1.00  0.00    -0.134 NA 
HETATM    4  N   UNL     1     -10.866   6.966  69.251  1.00  0.00    -0.241 NA 
HETATM    5  C   UNL     1     -10.536   8.230  69.112  1.00  0.00    -0.206 A  
HETATM    6  C   UNL     1     -11.281   9.405  69.614  1.00  0.00    -0.074 C  
HETATM    7  N   UNL     1     -11.606  10.293  68.512  1.00  0.00    -0.606 NA 
HETATM    8  C   UNL     1     -10.690  10.939  67.877  1.00  0.00    -0.231 C  
HETATM    9  H   UNL     1     -12.580  10.408  68.235  1.00  0.00     0.000 HD 
HETATM   10  C   UNL     1      -8.429  11.956  68.076  1.00  0.00    -0.162 A  
HETATM   11  C   UNL     1      -9.212  10.788  68.140  1.00  0.00    -0.151 A  
HETATM   12  C   UNL     1      -8.573   9.539  68.317  1.00  0.00    -0.120 A  
HETATM   13 CL   UNL     1      -6.101  13.311  67.938  1.00  0.00    -0.128 Cl 
HETATM   14  N   UNL     1      -9.311   8.336  68.493  1.00  0.00    -0.139 NA 
HETATM   15  C   UNL     1      -7.039  11.881  68.115  1.00  0.00    -0.081 A  
HETATM   16  C   UNL     1      -7.170   9.490  68.391  1.00  0.00    -0.075 A  
HETATM   17  C   UNL     1      -6.407  10.655  68.270  1.00  0.00    -0.054 A  
ENDROOT
BRANCH   8  18
HETATM   18  C   UNL     1     -11.133  11.884  66.786  1.00  0.00    -0.359 A  
HETATM   19  C   UNL     1     -11.262  12.364  64.394  1.00  0.00    -0.384 A  
HETATM   20  C   UNL     1     -12.031  13.998  65.987  1.00  0.00    -0.434 A  
HETATM   21  C   UNL     1     -10.956  11.493  65.443  1.00  0.00    -0.288 A  
HETATM   22  C   UNL     1     -11.799  13.616  64.666  1.00  0.00    -0.427 A  
HETATM   23  C   UNL     1     -11.694  13.147  67.049  1.00  0.00    -0.377 A  
HETATM   24 CL   UNL     1     -11.941  13.790  68.635  1.00  0.00    -0.400 Cl 
ENDBRANCH   8  18
TORSDOF 1
ENDMDL
MODEL       75
REMARK 921   NORMALIZED FREE ENERGY PREDICTED BY IDOCK:   -5.00 KCAL/MOL
REMARK 922        TOTAL FREE ENERGY PREDICTED BY IDOCK:   -5.94 KCAL/MOL
REMARK 923 INTER-LIGAND FREE ENERGY PREDICTED BY IDOCK:   -5.62 KCAL/MOL
REMARK 924 INTRA-LIGAND FREE ENERGY PREDICTED BY IDOCK:   -0.32 KCAL/MOL
REMARK 927      BINDING AFFINITY PREDICTED BY RF-SCORE:    0.00 PKD
ROOT
HETATM    1  C   UNL     1      -8.492   9.068  63.954  1.00  0.00    -0.171 C  
HETATM    2  C   UNL     1      -7.764   9.849  64.981  1.00  0.00    -0.133 A  
HETATM    3  N   UNL     1      -6.519   9.612  65.338  1.00  0.00    -0.076 NA 
HETATM    4  N   UNL     1      -6.232  10.383  66.429  1.00  0.00    -0.079 NA 
HETATM    5  C   UNL     1      -7.306  11.080  66.722  1.00  0.00    -0.139 A  
HETATM    6  C   UNL     1      -7.453  12.074  67.808  1.00  0.00    -0.121 C  
HETATM    7  N   UNL     1      -8.548  11.693  68.682  1.00  0.00    -0.298 NA 
HETATM    8  C   UNL     1      -9.770  11.713  68.276  1.00  0.00    -0.197 C  
HETATM    9  H   UNL     1      -8.345  11.405  69.639  1.00  0.00     0.000 HD 
HETATM   10  C   UNL     1     -11.358  12.805  66.703  1.00  0.00    -0.364 A  
HETATM   11  C   UNL     1     -10.186  12.041  66.863  1.00  0.00    -0.230 A  
HETATM   12  C   UNL     1      -9.540  11.522  65.718  1.00  0.00    -0.235 A  
HETATM   13 CL   UNL     1     -13.400  13.843  65.281  1.00  0.00    -0.042 Cl 
HETATM   14  N   UNL     1      -8.299  10.832  65.803  1.00  0.00    -0.166 NA 
HETATM   15  C   UNL     1     -11.917  12.989  65.441  1.00  0.00    -0.414 A  
HETATM   16  C   UNL     1     -10.103  11.752  64.449  1.00  0.00    -0.319 A  
HETATM   17  C   UNL     1     -11.297  12.466  64.316  1.00  0.00    -0.420 A  
ENDROOT
BRANCH   8  18
HETATM   18  C   UNL     1     -10.843  11.359  69.277  1.00  0.00    -0.242 A  
HETATM   19  C   UNL     1     -12.489  12.139  70.905  1.00  0.00    -0.374 A  
HETATM   20  C   UNL     1     -12.122   9.777  70.610  1.00  0.00    -0.311 A  
HETATM   21  C   UNL     1     -11.551  12.404  69.905  1.00  0.00    -0.260 A  
HETATM   22  C   UNL     1     -12.774  10.825  71.259  1.00  0.00    -0.546 A  
HETATM   23  C   UNL     1     -11.153  10.032  69.630  1.00  0.00    -0.259 A  
HETATM   24 CL   UNL     1     -10.353   8.642  68.983  1.00  0.00    -0.222 Cl 
ENDBRANCH   8  18
TORSDOF 1
ENDMDL
MODEL       76
REMARK 921   NORMALIZED FREE ENERGY PREDICTED BY IDOCK:   -4.96 KCAL/MOL
REMARK 922        TOTAL FREE ENERGY PREDICTED BY IDOCK:   -5.90 KCAL/MOL
REMARK 923 INTER-LIGAND FREE ENERGY PREDICTED BY IDOCK:   -5.31 KCAL/MOL
REMARK 924 INTRA-LIGAND FREE ENERGY PREDICTED BY IDOCK:   -0.59 KCAL/MOL
REMARK 927      BINDING AFFINITY PREDICTED BY RF-SCORE:    0.00 PKD
ROOT
HETATM    1  C   UNL     1      -7.603  19.933  69.671  1.00  0.00     0.164 C  
HETATM    2  C   UNL     1      -7.888  19.302  68.361  1.00  0.00    -0.341 A  
HETATM    3  N   UNL     1      -8.303  19.963  67.301  1.00  0.00    -0.310 NA 
HETATM    4  N   UNL     1      -8.647  19.058  66.338  1.00  0.00    -0.317 NA 
HETATM    5  C   UNL     1      -8.436  17.856  66.823  1.00  0.00    -0.249 A  
HETATM    6  C   UNL     1      -8.637  16.567  66.126  1.00  0.00    -0.299 C  
HETATM    7  N   UNL     1      -9.562  15.737  66.877  1.00  0.00    -0.224 NA 
HETATM    8  C   UNL     1      -9.247  15.253  68.028  1.00  0.00    -0.188 C  
HETATM    9  H   UNL     1     -10.480  15.532  66.484  1.00  0.00     0.000 HD 
HETATM   10  C   UNL     1      -7.353  14.491  69.449  1.00  0.00    -0.098 A  
HETATM   11  C   UNL     1      -7.954  15.552  68.746  1.00  0.00    -0.163 A  
HETATM   12  C   UNL     1      -7.400  16.848  68.850  1.00  0.00    -0.236 A  
HETATM   13 CL   UNL     1      -5.612  13.428  71.214  1.00  0.00    -0.201 Cl 
HETATM   14  N   UNL     1      -7.896  17.941  68.086  1.00  0.00    -0.257 NA 
HETATM   15  C   UNL     1      -6.269  14.722  70.292  1.00  0.00    -0.167 A  
HETATM   16  C   UNL     1      -6.282  17.052  69.678  1.00  0.00    -0.232 A  
HETATM   17  C   UNL     1      -5.733  15.997  70.411  1.00  0.00    -0.104 A  
ENDROOT
BRANCH   8  18
HETATM   18  C   UNL     1     -10.252  14.352  68.704  1.00  0.00    -0.245 A  
HETATM   19  C   UNL     1     -11.292  12.145  68.831  1.00  0.00    -0.335 A  
HETATM   20  C   UNL     1     -12.089  13.926  70.242  1.00  0.00    -0.423 A  
HETATM   21  C   UNL     1     -10.320  13.000  68.307  1.00  0.00    -0.256 A  
HETATM   22  C   UNL     1     -12.176  12.607  69.798  1.00  0.00    -0.209 A  
HETATM   23  C   UNL     1     -11.141  14.805  69.696  1.00  0.00    -0.272 A  
HETATM   24 CL   UNL     1     -11.213  16.436  70.266  1.00  0.00    -0.343 Cl 
ENDBRANCH   8  18
TORSDOF 1
ENDMDL
MODEL       77
REMARK 921   NORMALIZED FREE ENERGY PREDICTED BY IDOCK:   -4.93 KCAL/MOL
REMARK 922        TOTAL FREE ENERGY PREDICTED BY IDOCK:   -5.86 KCAL/MOL
REMARK 923 INTER-LIGAND FREE ENERGY PREDICTED BY IDOCK:   -5.34 KCAL/MOL
REMARK 924 INTRA-LIGAND FREE ENERGY PREDICTED BY IDOCK:   -0.52 KCAL/MOL
REMARK 927      BINDING AFFINITY PREDICTED BY RF-SCORE:    0.00 PKD
ROOT
HETATM    1  C   UNL     1      -9.127  14.122  68.198  1.00  0.00    -0.193 C  
HETATM    2  C   UNL     1      -9.515  12.982  67.334  1.00  0.00    -0.210 A  
HETATM    3  N   UNL     1     -10.194  13.107  66.213  1.00  0.00    -0.287 NA 
HETATM    4  N   UNL     1     -10.541  11.859  65.780  1.00  0.00    -0.258 NA 
HETATM    5  C   UNL     1     -10.067  10.989  66.642  1.00  0.00    -0.220 A  
HETATM    6  C   UNL     1     -10.170   9.515  66.567  1.00  0.00    -0.237 C  
HETATM    7  N   UNL     1     -10.820   9.003  67.761  1.00  0.00    -0.482 NA 
HETATM    8  C   UNL     1     -10.251   9.069  68.915  1.00  0.00    -0.208 C  
HETATM    9  H   UNL     1     -11.745   8.582  67.684  1.00  0.00     0.000 HD 
HETATM   10  C   UNL     1      -8.057   9.119  70.085  1.00  0.00    -0.145 A  
HETATM   11  C   UNL     1      -8.924   9.741  69.166  1.00  0.00    -0.161 A  
HETATM   12  C   UNL     1      -8.573  11.002  68.633  1.00  0.00    -0.157 A  
HETATM   13 CL   UNL     1      -5.910   9.029  71.714  1.00  0.00    -0.062 Cl 
HETATM   14  N   UNL     1      -9.351  11.634  67.624  1.00  0.00    -0.174 NA 
HETATM   15  C   UNL     1      -6.902   9.765  70.520  1.00  0.00    -0.127 A  
HETATM   16  C   UNL     1      -7.383  11.620  69.057  1.00  0.00    -0.074 A  
HETATM   17  C   UNL     1      -6.563  11.011  70.012  1.00  0.00    -0.134 A  
ENDROOT
BRANCH   8  18
HETATM   18  C   UNL     1     -10.979   8.455  70.086  1.00  0.00    -0.216 A  
HETATM   19  C   UNL     1     -11.981   8.769  72.292  1.00  0.00    -0.415 A  
HETATM   20  C   UNL     1     -11.882   6.566  71.325  1.00  0.00    -0.385 A  
HETATM   21  C   UNL     1     -11.386   9.295  71.143  1.00  0.00    -0.412 A  
HETATM   22  C   UNL     1     -12.228   7.405  72.384  1.00  0.00    -0.134 A  
HETATM   23  C   UNL     1     -11.251   7.078  70.182  1.00  0.00    -0.284 A  
HETATM   24 CL   UNL     1     -10.786   5.910  68.993  1.00  0.00    -0.362 Cl 
ENDBRANCH   8  18
TORSDOF 1
ENDMDL
MODEL       78
REMARK 921   NORMALIZED FREE ENERGY PREDICTED BY IDOCK:   -4.93 KCAL/MOL
REMARK 922        TOTAL FREE ENERGY PREDICTED BY IDOCK:   -5.86 KCAL/MOL
REMARK 923 INTER-LIGAND FREE ENERGY PREDICTED BY IDOCK:   -5.38 KCAL/MOL
REMARK 924 INTRA-LIGAND FREE ENERGY PREDICTED BY IDOCK:   -0.48 KCAL/MOL
REMARK 927      BINDING AFFINITY PREDICTED BY RF-SCORE:    0.00 PKD
ROOT
HETATM    1  C   UNL     1      -5.684  10.204  68.330  1.00  0.00    -0.041 C  
HETATM    2  C   UNL     1      -6.261   9.453  67.190  1.00  0.00    -0.065 A  
HETATM    3  N   UNL     1      -5.540   8.834  66.278  1.00  0.00    -0.038 NA 
HETATM    4  N   UNL     1      -6.376   8.416  65.282  1.00  0.00    -0.052 NA 
HETATM    5  C   UNL     1      -7.596   8.785  65.600  1.00  0.00    -0.086 A  
HETATM    6  C   UNL     1      -8.833   8.522  64.833  1.00  0.00     0.016 C  
HETATM    7  N   UNL     1      -9.494   9.776  64.514  1.00  0.00    -0.409 NA 
HETATM    8  C   UNL     1     -10.022  10.509  65.432  1.00  0.00    -0.289 C  
HETATM    9  H   UNL     1      -9.541  10.082  63.543  1.00  0.00     0.000 HD 
HETATM   10  C   UNL     1     -11.091  10.476  67.678  1.00  0.00    -0.375 A  
HETATM   11  C   UNL     1      -9.945  10.204  66.907  1.00  0.00    -0.259 A  
HETATM   12  C   UNL     1      -8.761   9.788  67.558  1.00  0.00    -0.125 A  
HETATM   13 CL   UNL     1     -12.429  10.837  69.991  1.00  0.00    -0.363 Cl 
HETATM   14  N   UNL     1      -7.601   9.398  66.832  1.00  0.00    -0.091 NA 
HETATM   15  C   UNL     1     -11.045  10.406  69.068  1.00  0.00    -0.248 A  
HETATM   16  C   UNL     1      -8.747   9.688  68.961  1.00  0.00    -0.142 A  
HETATM   17  C   UNL     1      -9.879  10.016  69.712  1.00  0.00    -0.270 A  
ENDROOT
BRANCH   8  18
HETATM   18  C   UNL     1     -10.739  11.764  64.995  1.00  0.00    -0.344 A  
HETATM   19  C   UNL     1     -12.407  12.788  63.533  1.00  0.00    -0.559 A  
HETATM   20  C   UNL     1     -11.077  14.173  64.985  1.00  0.00    -0.372 A  
HETATM   21  C   UNL     1     -11.773  11.652  64.042  1.00  0.00    -0.339 A  
HETATM   22  C   UNL     1     -12.059  14.048  64.004  1.00  0.00    -0.413 A  
HETATM   23  C   UNL     1     -10.407  13.043  65.477  1.00  0.00    -0.294 A  
HETATM   24 CL   UNL     1      -9.143  13.355  66.615  1.00  0.00    -0.218 Cl 
ENDBRANCH   8  18
TORSDOF 1
ENDMDL
MODEL       79
REMARK 921   NORMALIZED FREE ENERGY PREDICTED BY IDOCK:   -4.85 KCAL/MOL
REMARK 922        TOTAL FREE ENERGY PREDICTED BY IDOCK:   -5.77 KCAL/MOL
REMARK 923 INTER-LIGAND FREE ENERGY PREDICTED BY IDOCK:   -5.22 KCAL/MOL
REMARK 924 INTRA-LIGAND FREE ENERGY PREDICTED BY IDOCK:   -0.56 KCAL/MOL
REMARK 927      BINDING AFFINITY PREDICTED BY RF-SCORE:    0.00 PKD
ROOT
HETATM    1  C   UNL     1      -9.582  10.532  68.209  1.00  0.00    -0.164 C  
HETATM    2  C   UNL     1     -10.630  10.369  69.243  1.00  0.00    -0.232 A  
HETATM    3  N   UNL     1     -11.314  11.369  69.759  1.00  0.00    -0.273 NA 
HETATM    4  N   UNL     1     -12.048  10.891  70.807  1.00  0.00    -0.350 NA 
HETATM    5  C   UNL     1     -11.804   9.605  70.914  1.00  0.00    -0.323 A  
HETATM    6  C   UNL     1     -12.400   8.664  71.888  1.00  0.00    -0.354 C  
HETATM    7  N   UNL     1     -11.352   8.021  72.660  1.00  0.00    -0.397 NA 
HETATM    8  C   UNL     1     -10.528   7.193  72.116  1.00  0.00    -0.206 C  
HETATM    9  H   UNL     1     -11.266   8.228  73.655  1.00  0.00     0.000 HD 
HETATM   10  C   UNL     1     -10.248   5.534  70.284  1.00  0.00    -0.326 A  
HETATM   11  C   UNL     1     -10.504   6.871  70.642  1.00  0.00    -0.233 A  
HETATM   12  C   UNL     1     -10.596   7.850  69.627  1.00  0.00    -0.234 A  
HETATM   13 CL   UNL     1      -9.612   3.565  68.554  1.00  0.00    -0.202 Cl 
HETATM   14  N   UNL     1     -10.955   9.197  69.912  1.00  0.00    -0.229 NA 
HETATM   15  C   UNL     1     -10.018   5.186  68.956  1.00  0.00    -0.195 A  
HETATM   16  C   UNL     1     -10.398   7.470  68.287  1.00  0.00    -0.233 A  
HETATM   17  C   UNL     1     -10.090   6.148  67.957  1.00  0.00    -0.178 A  
ENDROOT
BRANCH   8  18
HETATM   18  C   UNL     1      -9.512   6.530  73.014  1.00  0.00    -0.152 A  
HETATM   19  C   UNL     1      -7.245   6.531  73.924  1.00  0.00    -0.084 A  
HETATM   20  C   UNL     1      -8.745   4.721  74.448  1.00  0.00    -0.112 A  
HETATM   21  C   UNL     1      -8.255   7.146  73.181  1.00  0.00    -0.127 A  
HETATM   22  C   UNL     1      -7.490   5.319  74.558  1.00  0.00    -0.085 A  
HETATM   23  C   UNL     1      -9.754   5.311  73.674  1.00  0.00    -0.144 A  
HETATM   24 CL   UNL     1     -11.225   4.410  73.543  1.00  0.00    -0.385 Cl 
ENDBRANCH   8  18
TORSDOF 1
ENDMDL
MODEL       80
REMARK 921   NORMALIZED FREE ENERGY PREDICTED BY IDOCK:   -4.79 KCAL/MOL
REMARK 922        TOTAL FREE ENERGY PREDICTED BY IDOCK:   -5.71 KCAL/MOL
REMARK 923 INTER-LIGAND FREE ENERGY PREDICTED BY IDOCK:   -5.08 KCAL/MOL
REMARK 924 INTRA-LIGAND FREE ENERGY PREDICTED BY IDOCK:   -0.64 KCAL/MOL
REMARK 927      BINDING AFFINITY PREDICTED BY RF-SCORE:    0.00 PKD
ROOT
HETATM    1  C   UNL     1     -10.709  16.981  66.946  1.00  0.00    -0.125 C  
HETATM    2  C   UNL     1      -9.352  16.483  67.272  1.00  0.00    -0.222 A  
HETATM    3  N   UNL     1      -8.248  17.170  67.065  1.00  0.00    -0.197 NA 
HETATM    4  N   UNL     1      -7.182  16.348  67.296  1.00  0.00    -0.156 NA 
HETATM    5  C   UNL     1      -7.650  15.171  67.642  1.00  0.00    -0.174 A  
HETATM    6  C   UNL     1      -6.864  13.975  68.017  1.00  0.00    -0.145 C  
HETATM    7  N   UNL     1      -7.207  12.864  67.147  1.00  0.00    -0.361 NA 
HETATM    8  C   UNL     1      -8.371  12.314  67.187  1.00  0.00    -0.183 C  
HETATM    9  H   UNL     1      -6.511  12.512  66.490  1.00  0.00     0.000 HD 
HETATM   10  C   UNL     1     -10.319  11.816  68.650  1.00  0.00    -0.228 A  
HETATM   11  C   UNL     1      -9.505  12.798  68.055  1.00  0.00    -0.213 A  
HETATM   12  C   UNL     1      -9.858  14.161  68.192  1.00  0.00    -0.229 A  
HETATM   13 CL   UNL     1     -12.523  10.948  69.940  1.00  0.00    -0.349 Cl 
HETATM   14  N   UNL     1      -9.024  15.205  67.705  1.00  0.00    -0.177 NA 
HETATM   15  C   UNL     1     -11.496  12.171  69.305  1.00  0.00    -0.302 A  
HETATM   16  C   UNL     1     -11.031  14.499  68.890  1.00  0.00    -0.268 A  
HETATM   17  C   UNL     1     -11.855  13.506  69.426  1.00  0.00    -0.389 A  
ENDROOT
BRANCH   8  18
HETATM   18  C   UNL     1      -8.611  11.126  66.286  1.00  0.00    -0.180 A  
HETATM   19  C   UNL     1      -8.026   8.830  65.694  1.00  0.00    -0.103 A  
HETATM   20  C   UNL     1      -9.617  10.044  64.354  1.00  0.00    -0.325 A  
HETATM   21  C   UNL     1      -7.913   9.929  66.547  1.00  0.00    -0.110 A  
HETATM   22  C   UNL     1      -8.877   8.887  64.597  1.00  0.00    -0.098 A  
HETATM   23  C   UNL     1      -9.484  11.167  65.183  1.00  0.00    -0.226 A  
HETATM   24 CL   UNL     1     -10.383  12.565  64.706  1.00  0.00    -0.320 Cl 
ENDBRANCH   8  18
TORSDOF 1
ENDMDL
MODEL       81
REMARK 921   NORMALIZED FREE ENERGY PREDICTED BY IDOCK:   -4.72 KCAL/MOL
REMARK 922        TOTAL FREE ENERGY PREDICTED BY IDOCK:   -5.64 KCAL/MOL
REMARK 923 INTER-LIGAND FREE ENERGY PREDICTED BY IDOCK:   -5.14 KCAL/MOL
REMARK 924 INTRA-LIGAND FREE ENERGY PREDICTED BY IDOCK:   -0.50 KCAL/MOL
REMARK 927      BINDING AFFINITY PREDICTED BY RF-SCORE:    0.00 PKD
ROOT
HETATM    1  C   UNL     1     -12.460  11.027  70.431  1.00  0.00    -0.397 C  
HETATM    2  C   UNL     1     -11.111  10.452  70.218  1.00  0.00    -0.307 A  
HETATM    3  N   UNL     1     -10.592   9.500  70.965  1.00  0.00    -0.319 NA 
HETATM    4  N   UNL     1      -9.280   9.348  70.616  1.00  0.00    -0.254 NA 
HETATM    5  C   UNL     1      -9.018  10.208  69.658  1.00  0.00    -0.169 A  
HETATM    6  C   UNL     1      -7.733  10.383  68.947  1.00  0.00    -0.111 C  
HETATM    7  N   UNL     1      -7.272  11.754  69.085  1.00  0.00    -0.261 NA 
HETATM    8  C   UNL     1      -7.901  12.732  68.531  1.00  0.00    -0.099 C  
HETATM    9  H   UNL     1      -6.434  11.945  69.632  1.00  0.00     0.000 HD 
HETATM   10  C   UNL     1      -9.351  13.375  66.616  1.00  0.00    -0.248 A  
HETATM   11  C   UNL     1      -9.194  12.583  67.770  1.00  0.00    -0.198 A  
HETATM   12  C   UNL     1     -10.281  11.800  68.221  1.00  0.00    -0.205 A  
HETATM   13 CL   UNL     1     -10.775  14.491  64.616  1.00  0.00    -0.393 Cl 
HETATM   14  N   UNL     1     -10.156  10.901  69.316  1.00  0.00    -0.183 NA 
HETATM   15  C   UNL     1     -10.581  13.444  65.965  1.00  0.00    -0.287 A  
HETATM   16  C   UNL     1     -11.503  11.856  67.526  1.00  0.00    -0.396 A  
HETATM   17  C   UNL     1     -11.656  12.691  66.415  1.00  0.00    -0.441 A  
ENDROOT
BRANCH   8  18
HETATM   18  C   UNL     1      -7.310  14.113  68.682  1.00  0.00    -0.126 A  
HETATM   19  C   UNL     1      -5.355  15.561  68.459  1.00  0.00    -0.099 A  
HETATM   20  C   UNL     1      -7.388  16.433  69.410  1.00  0.00    -0.150 A  
HETATM   21  C   UNL     1      -5.982  14.329  68.259  1.00  0.00    -0.120 A  
HETATM   22  C   UNL     1      -6.057  16.613  69.035  1.00  0.00    -0.162 A  
HETATM   23  C   UNL     1      -8.018  15.191  69.248  1.00  0.00    -0.213 A  
HETATM   24 CL   UNL     1      -9.635  15.083  69.849  1.00  0.00     0.000 Cl 
ENDBRANCH   8  18
TORSDOF 1
ENDMDL
MODEL       82
REMARK 921   NORMALIZED FREE ENERGY PREDICTED BY IDOCK:   -4.67 KCAL/MOL
REMARK 922        TOTAL FREE ENERGY PREDICTED BY IDOCK:   -5.58 KCAL/MOL
REMARK 923 INTER-LIGAND FREE ENERGY PREDICTED BY IDOCK:   -4.97 KCAL/MOL
REMARK 924 INTRA-LIGAND FREE ENERGY PREDICTED BY IDOCK:   -0.61 KCAL/MOL
REMARK 927      BINDING AFFINITY PREDICTED BY RF-SCORE:    0.00 PKD
ROOT
HETATM    1  C   UNL     1      -7.706   3.469  72.277  1.00  0.00    -0.059 C  
HETATM    2  C   UNL     1      -7.240   4.870  72.408  1.00  0.00    -0.082 A  
HETATM    3  N   UNL     1      -6.377   5.276  73.315  1.00  0.00    -0.054 NA 
HETATM    4  N   UNL     1      -6.321   6.640  73.275  1.00  0.00    -0.063 NA 
HETATM    5  C   UNL     1      -7.152   7.048  72.343  1.00  0.00    -0.065 A  
HETATM    6  C   UNL     1      -7.402   8.444  71.922  1.00  0.00    -0.097 C  
HETATM    7  N   UNL     1      -8.812   8.759  72.065  1.00  0.00    -0.370 NA 
HETATM    8  C   UNL     1      -9.703   8.202  71.320  1.00  0.00    -0.164 C  
HETATM    9  H   UNL     1      -9.103   9.436  72.769  1.00  0.00     0.000 HD 
HETATM   10  C   UNL     1     -10.120   7.179  69.092  1.00  0.00    -0.183 A  
HETATM   11  C   UNL     1      -9.404   7.129  70.303  1.00  0.00    -0.155 A  
HETATM   12  C   UNL     1      -8.554   6.028  70.556  1.00  0.00    -0.137 A  
HETATM   13 CL   UNL     1     -11.007   6.165  66.755  1.00  0.00    -0.384 Cl 
HETATM   14  N   UNL     1      -7.725   5.969  71.711  1.00  0.00    -0.100 NA 
HETATM   15  C   UNL     1     -10.049   6.127  68.182  1.00  0.00    -0.157 A  
HETATM   16  C   UNL     1      -8.468   4.995  69.606  1.00  0.00    -0.092 A  
HETATM   17  C   UNL     1      -9.229   5.036  68.434  1.00  0.00    -0.150 A  
ENDROOT
BRANCH   8  18
HETATM   18  C   UNL     1     -11.137   8.640  71.503  1.00  0.00    -0.358 A  
HETATM   19  C   UNL     1     -12.766  10.459  71.438  1.00  0.00    -0.551 A  
HETATM   20  C   UNL     1     -13.443   8.271  72.183  1.00  0.00    -0.301 A  
HETATM   21  C   UNL     1     -11.478   9.975  71.201  1.00  0.00    -0.432 A  
HETATM   22  C   UNL     1     -13.749   9.608  71.929  1.00  0.00    -0.376 A  
HETATM   23  C   UNL     1     -12.144   7.783  71.983  1.00  0.00    -0.311 A  
HETATM   24 CL   UNL     1     -11.883   6.134  72.435  1.00  0.00    -0.328 Cl 
ENDBRANCH   8  18
TORSDOF 1
ENDMDL
MODEL       83
REMARK 921   NORMALIZED FREE ENERGY PREDICTED BY IDOCK:   -4.62 KCAL/MOL
REMARK 922        TOTAL FREE ENERGY PREDICTED BY IDOCK:   -5.53 KCAL/MOL
REMARK 923 INTER-LIGAND FREE ENERGY PREDICTED BY IDOCK:   -4.98 KCAL/MOL
REMARK 924 INTRA-LIGAND FREE ENERGY PREDICTED BY IDOCK:   -0.55 KCAL/MOL
REMARK 927      BINDING AFFINITY PREDICTED BY RF-SCORE:    0.00 PKD
ROOT
HETATM    1  C   UNL     1     -12.682  13.656  72.301  1.00  0.00    -0.237 C  
HETATM    2  C   UNL     1     -12.673  12.489  71.388  1.00  0.00    -0.243 A  
HETATM    3  N   UNL     1     -13.127  11.297  71.714  1.00  0.00    -0.468 NA 
HETATM    4  N   UNL     1     -12.793  10.423  70.720  1.00  0.00    -0.373 NA 
HETATM    5  C   UNL     1     -12.140  11.094  69.798  1.00  0.00    -0.344 A  
HETATM    6  C   UNL     1     -11.609  10.567  68.522  1.00  0.00    -0.148 C  
HETATM    7  N   UNL     1     -10.178  10.808  68.444  1.00  0.00    -0.168 NA 
HETATM    8  C   UNL     1      -9.703  12.000  68.340  1.00  0.00    -0.199 C  
HETATM    9  H   UNL     1      -9.538  10.015  68.472  1.00  0.00     0.000 HD 
HETATM   10  C   UNL     1     -10.170  14.295  67.503  1.00  0.00    -0.240 A  
HETATM   11  C   UNL     1     -10.544  13.252  68.372  1.00  0.00    -0.263 A  
HETATM   12  C   UNL     1     -11.586  13.469  69.302  1.00  0.00    -0.316 A  
HETATM   13 CL   UNL     1     -10.228  16.835  66.597  1.00  0.00    -0.301 Cl 
HETATM   14  N   UNL     1     -12.081  12.427  70.134  1.00  0.00    -0.328 NA 
HETATM   15  C   UNL     1     -10.768  15.549  67.603  1.00  0.00    -0.302 A  
HETATM   16  C   UNL     1     -12.202  14.733  69.359  1.00  0.00    -0.251 A  
HETATM   17  C   UNL     1     -11.779  15.772  68.526  1.00  0.00    -0.328 A  
ENDROOT
BRANCH   8  18
HETATM   18  C   UNL     1      -8.206  12.143  68.204  1.00  0.00    -0.164 A  
HETATM   19  C   UNL     1      -6.123  13.034  69.119  1.00  0.00    -0.095 A  
HETATM   20  C   UNL     1      -6.108  11.895  66.997  1.00  0.00    -0.149 A  
HETATM   21  C   UNL     1      -7.494  12.791  69.234  1.00  0.00     0.311 A  
HETATM   22  C   UNL     1      -5.430  12.586  68.001  1.00  0.00    -0.082 A  
HETATM   23  C   UNL     1      -7.491  11.678  67.084  1.00  0.00    -0.146 A  
HETATM   24 CL   UNL     1      -8.218  10.899  65.722  1.00  0.00    -0.146 Cl 
ENDBRANCH   8  18
TORSDOF 1
ENDMDL
MODEL       84
REMARK 921   NORMALIZED FREE ENERGY PREDICTED BY IDOCK:   -4.60 KCAL/MOL
REMARK 922        TOTAL FREE ENERGY PREDICTED BY IDOCK:   -5.52 KCAL/MOL
REMARK 923 INTER-LIGAND FREE ENERGY PREDICTED BY IDOCK:   -4.91 KCAL/MOL
REMARK 924 INTRA-LIGAND FREE ENERGY PREDICTED BY IDOCK:   -0.60 KCAL/MOL
REMARK 927      BINDING AFFINITY PREDICTED BY RF-SCORE:    0.00 PKD
ROOT
HETATM    1  C   UNL     1     -12.153  13.094  70.152  1.00  0.00    -0.392 C  
HETATM    2  C   UNL     1     -11.904  11.633  70.128  1.00  0.00    -0.344 A  
HETATM    3  N   UNL     1     -12.018  10.851  71.181  1.00  0.00    -0.279 NA 
HETATM    4  N   UNL     1     -11.534   9.617  70.853  1.00  0.00    -0.323 NA 
HETATM    5  C   UNL     1     -11.133   9.662  69.603  1.00  0.00    -0.193 A  
HETATM    6  C   UNL     1     -10.566   8.550  68.810  1.00  0.00    -0.133 C  
HETATM    7  N   UNL     1      -9.251   8.917  68.312  1.00  0.00    -0.140 NA 
HETATM    8  C   UNL     1      -9.102   9.841  67.428  1.00  0.00    -0.134 C  
HETATM    9  H   UNL     1      -8.429   8.431  68.670  1.00  0.00     0.000 HD 
HETATM   10  C   UNL     1     -10.190  11.001  65.515  1.00  0.00    -0.327 A  
HETATM   11  C   UNL     1     -10.231  10.683  66.886  1.00  0.00    -0.272 A  
HETATM   12  C   UNL     1     -11.234  11.260  67.698  1.00  0.00    -0.292 A  
HETATM   13 CL   UNL     1     -10.949  12.371  63.320  1.00  0.00    -0.431 Cl 
HETATM   14  N   UNL     1     -11.394  10.901  69.064  1.00  0.00    -0.257 NA 
HETATM   15  C   UNL     1     -11.080  11.926  64.975  1.00  0.00    -0.305 A  
HETATM   16  C   UNL     1     -12.146  12.163  67.123  1.00  0.00     0.054 A  
HETATM   17  C   UNL     1     -12.055  12.509  65.772  1.00  0.00    -0.443 A  
ENDROOT
BRANCH   8  18
HETATM   18  C   UNL     1      -7.702  10.108  66.929  1.00  0.00    -0.103 A  
HETATM   19  C   UNL     1      -5.690  11.487  67.058  1.00  0.00    -0.119 A  
HETATM   20  C   UNL     1      -5.835   9.732  65.416  1.00  0.00    -0.069 A  
HETATM   21  C   UNL     1      -6.953  11.135  67.539  1.00  0.00    -0.088 A  
HETATM   22  C   UNL     1      -5.131  10.786  65.996  1.00  0.00    -0.102 A  
HETATM   23  C   UNL     1      -7.120   9.393  65.866  1.00  0.00    -0.091 A  
HETATM   24 CL   UNL     1      -7.917   8.134  64.989  1.00  0.00    -0.131 Cl 
ENDBRANCH   8  18
TORSDOF 1
ENDMDL
MODEL       85
REMARK 921   NORMALIZED FREE ENERGY PREDICTED BY IDOCK:   -4.60 KCAL/MOL
REMARK 922        TOTAL FREE ENERGY PREDICTED BY IDOCK:   -5.51 KCAL/MOL
REMARK 923 INTER-LIGAND FREE ENERGY PREDICTED BY IDOCK:   -4.87 KCAL/MOL
REMARK 924 INTRA-LIGAND FREE ENERGY PREDICTED BY IDOCK:   -0.64 KCAL/MOL
REMARK 927      BINDING AFFINITY PREDICTED BY RF-SCORE:    0.00 PKD
ROOT
HETATM    1  C   UNL     1      -7.268   4.841  69.072  1.00  0.00    -0.053 C  
HETATM    2  C   UNL     1      -8.555   5.193  69.716  1.00  0.00    -0.096 A  
HETATM    3  N   UNL     1      -9.505   4.321  69.984  1.00  0.00    -0.165 NA 
HETATM    4  N   UNL     1     -10.613   5.006  70.393  1.00  0.00    -0.164 NA 
HETATM    5  C   UNL     1     -10.324   6.287  70.371  1.00  0.00    -0.208 A  
HETATM    6  C   UNL     1     -11.208   7.406  70.765  1.00  0.00    -0.271 C  
HETATM    7  N   UNL     1     -11.358   8.332  69.656  1.00  0.00    -0.437 NA 
HETATM    8  C   UNL     1     -10.370   9.043  69.237  1.00  0.00    -0.219 C  
HETATM    9  H   UNL     1     -12.266   8.420  69.199  1.00  0.00     0.000 HD 
HETATM   10  C   UNL     1      -8.242  10.140  69.912  1.00  0.00    -0.128 A  
HETATM   11  C   UNL     1      -8.965   8.940  69.776  1.00  0.00    -0.149 A  
HETATM   12  C   UNL     1      -8.312   7.711  70.024  1.00  0.00    -0.134 A  
HETATM   13 CL   UNL     1      -6.000  11.593  70.282  1.00  0.00    -0.160 Cl 
HETATM   14  N   UNL     1      -9.010   6.472  70.006  1.00  0.00    -0.143 NA 
HETATM   15  C   UNL     1      -6.883  10.120  70.217  1.00  0.00    -0.148 A  
HETATM   16  C   UNL     1      -6.948   7.715  70.368  1.00  0.00    -0.047 A  
HETATM   17  C   UNL     1      -6.234   8.914  70.444  1.00  0.00    -0.040 A  
ENDROOT
BRANCH   8  18
HETATM   18  C   UNL     1     -10.640  10.021  68.118  1.00  0.00    -0.268 A  
HETATM   19  C   UNL     1     -10.356  10.594  65.761  1.00  0.00    -0.287 A  
HETATM   20  C   UNL     1     -11.446  12.144  67.247  1.00  0.00    -0.413 A  
HETATM   21  C   UNL     1     -10.215   9.689  66.815  1.00  0.00    -0.308 A  
HETATM   22  C   UNL     1     -10.971  11.821  65.976  1.00  0.00    -0.355 A  
HETATM   23  C   UNL     1     -11.278  11.259  68.321  1.00  0.00    -0.267 A  
HETATM   24 CL   UNL     1     -11.823  11.831  69.860  1.00  0.00    -0.407 Cl 
ENDBRANCH   8  18
TORSDOF 1
ENDMDL
MODEL       86
REMARK 921   NORMALIZED FREE ENERGY PREDICTED BY IDOCK:   -4.52 KCAL/MOL
REMARK 922        TOTAL FREE ENERGY PREDICTED BY IDOCK:   -5.42 KCAL/MOL
REMARK 923 INTER-LIGAND FREE ENERGY PREDICTED BY IDOCK:   -4.92 KCAL/MOL
REMARK 924 INTRA-LIGAND FREE ENERGY PREDICTED BY IDOCK:   -0.50 KCAL/MOL
REMARK 927      BINDING AFFINITY PREDICTED BY RF-SCORE:    0.00 PKD
ROOT
HETATM    1  C   UNL     1     -11.429   8.120  71.217  1.00  0.00    -0.299 C  
HETATM    2  C   UNL     1     -10.020   8.446  70.893  1.00  0.00    -0.191 A  
HETATM    3  N   UNL     1      -9.226   9.139  71.683  1.00  0.00    -0.330 NA 
HETATM    4  N   UNL     1      -8.076   9.415  71.000  1.00  0.00    -0.318 NA 
HETATM    5  C   UNL     1      -8.183   8.885  69.803  1.00  0.00    -0.119 A  
HETATM    6  C   UNL     1      -7.168   8.904  68.727  1.00  0.00    -0.075 C  
HETATM    7  N   UNL     1      -7.723   9.514  67.532  1.00  0.00    -0.095 NA 
HETATM    8  C   UNL     1      -8.663   8.943  66.861  1.00  0.00    -0.119 C  
HETATM    9  H   UNL     1      -7.361  10.414  67.218  1.00  0.00     0.000 HD 
HETATM   10  C   UNL     1      -9.658   6.748  66.245  1.00  0.00    -0.087 A  
HETATM   11  C   UNL     1      -9.333   7.656  67.272  1.00  0.00    -0.174 A  
HETATM   12  C   UNL     1      -9.756   7.382  68.593  1.00  0.00    -0.152 A  
HETATM   13 CL   UNL     1     -10.910   4.589  65.224  1.00  0.00    -0.217 Cl 
HETATM   14  N   UNL     1      -9.373   8.203  69.689  1.00  0.00    -0.159 NA 
HETATM   15  C   UNL     1     -10.445   5.631  66.510  1.00  0.00    -0.249 A  
HETATM   16  C   UNL     1     -10.518   6.227  68.844  1.00  0.00    -0.280 A  
HETATM   17  C   UNL     1     -10.878   5.368  67.802  1.00  0.00     0.032 A  
ENDROOT
BRANCH   8  18
HETATM   18  C   UNL     1      -9.132   9.627  65.599  1.00  0.00    -0.236 A  
HETATM   19  C   UNL     1      -8.793  10.017  63.211  1.00  0.00    -0.246 A  
HETATM   20  C   UNL     1     -10.539  11.194  64.381  1.00  0.00    -0.411 A  
HETATM   21  C   UNL     1      -8.463   9.345  64.390  1.00  0.00    -0.196 A  
HETATM   22  C   UNL     1      -9.831  10.941  63.206  1.00  0.00    -0.409 A  
HETATM   23  C   UNL     1     -10.192  10.552  65.579  1.00  0.00    -0.256 A  
HETATM   24 CL   UNL     1     -11.087  11.036  66.977  1.00  0.00    -0.339 Cl 
ENDBRANCH   8  18
TORSDOF 1
ENDMDL
MODEL       87
REMARK 921   NORMALIZED FREE ENERGY PREDICTED BY IDOCK:   -4.50 KCAL/MOL
REMARK 922        TOTAL FREE ENERGY PREDICTED BY IDOCK:   -5.41 KCAL/MOL
REMARK 923 INTER-LIGAND FREE ENERGY PREDICTED BY IDOCK:   -4.93 KCAL/MOL
REMARK 924 INTRA-LIGAND FREE ENERGY PREDICTED BY IDOCK:   -0.48 KCAL/MOL
REMARK 927      BINDING AFFINITY PREDICTED BY RF-SCORE:    0.00 PKD
ROOT
HETATM    1  C   UNL     1     -10.714   7.707  72.171  1.00  0.00    -0.289 C  
HETATM    2  C   UNL     1     -10.797   7.598  70.695  1.00  0.00    -0.237 A  
HETATM    3  N   UNL     1     -10.564   6.487  70.027  1.00  0.00    -0.213 NA 
HETATM    4  N   UNL     1     -10.539   6.785  68.695  1.00  0.00    -0.211 NA 
HETATM    5  C   UNL     1     -10.759   8.074  68.568  1.00  0.00    -0.018 A  
HETATM    6  C   UNL     1     -10.853   8.841  67.306  1.00  0.00    -0.007 C  
HETATM    7  N   UNL     1      -9.874   9.913  67.304  1.00  0.00    -0.174 NA 
HETATM    8  C   UNL     1      -9.971  10.913  68.111  1.00  0.00    -0.174 C  
HETATM    9  H   UNL     1      -9.093   9.874  66.650  1.00  0.00     0.000 HD 
HETATM   10  C   UNL     1     -11.567  12.323  69.396  1.00  0.00    -0.378 A  
HETATM   11  C   UNL     1     -11.032  11.039  69.176  1.00  0.00    -0.289 A  
HETATM   12  C   UNL     1     -11.412   9.979  70.030  1.00  0.00    -0.248 A  
HETATM   13 CL   UNL     1     -12.967  14.162  70.785  1.00  0.00    -0.371 Cl 
HETATM   14  N   UNL     1     -10.991   8.641  69.800  1.00  0.00    -0.181 NA 
HETATM   15  C   UNL     1     -12.404  12.567  70.481  1.00  0.00    -0.262 A  
HETATM   16  C   UNL     1     -12.289  10.240  71.099  1.00  0.00    -0.501 A  
HETATM   17  C   UNL     1     -12.766  11.532  71.333  1.00  0.00    -0.469 A  
ENDROOT
BRANCH   8  18
HETATM   18  C   UNL     1      -8.938  12.007  67.992  1.00  0.00    -0.187 A  
HETATM   19  C   UNL     1      -8.231  14.071  66.891  1.00  0.00     0.029 A  
HETATM   20  C   UNL     1      -6.783  13.015  68.501  1.00  0.00    -0.092 A  
HETATM   21  C   UNL     1      -9.190  13.080  67.111  1.00  0.00    -0.226 A  
HETATM   22  C   UNL     1      -7.028  14.039  67.585  1.00  0.00    -0.198 A  
HETATM   23  C   UNL     1      -7.723  11.994  68.702  1.00  0.00    -0.099 A  
HETATM   24 CL   UNL     1      -7.246  10.736  69.788  1.00  0.00    -0.139 Cl 
ENDBRANCH   8  18
TORSDOF 1
ENDMDL
MODEL       88
REMARK 921   NORMALIZED FREE ENERGY PREDICTED BY IDOCK:   -4.50 KCAL/MOL
REMARK 922        TOTAL FREE ENERGY PREDICTED BY IDOCK:   -5.41 KCAL/MOL
REMARK 923 INTER-LIGAND FREE ENERGY PREDICTED BY IDOCK:   -4.76 KCAL/MOL
REMARK 924 INTRA-LIGAND FREE ENERGY PREDICTED BY IDOCK:   -0.65 KCAL/MOL
REMARK 927      BINDING AFFINITY PREDICTED BY RF-SCORE:    0.00 PKD
ROOT
HETATM    1  C   UNL     1      -7.798   3.480  69.765  1.00  0.00    -0.053 C  
HETATM    2  C   UNL     1      -8.665   3.751  68.594  1.00  0.00    -0.101 A  
HETATM    3  N   UNL     1      -8.570   3.113  67.446  1.00  0.00    -0.103 NA 
HETATM    4  N   UNL     1      -9.377   3.738  66.540  1.00  0.00    -0.179 NA 
HETATM    5  C   UNL     1      -9.956   4.749  67.147  1.00  0.00    -0.190 A  
HETATM    6  C   UNL     1     -10.939   5.691  66.568  1.00  0.00    -0.062 C  
HETATM    7  N   UNL     1     -10.449   7.053  66.689  1.00  0.00    -0.495 NA 
HETATM    8  C   UNL     1     -10.331   7.624  67.837  1.00  0.00    -0.212 C  
HETATM    9  H   UNL     1     -10.194   7.568  65.847  1.00  0.00     0.000 HD 
HETATM   10  C   UNL     1     -11.227   7.702  70.156  1.00  0.00    -0.193 A  
HETATM   11  C   UNL     1     -10.598   6.939  69.154  1.00  0.00    -0.245 A  
HETATM   12  C   UNL     1     -10.140   5.638  69.465  1.00  0.00    -0.225 A  
HETATM   13 CL   UNL     1     -12.022   8.202  72.684  1.00  0.00    -0.414 Cl 
HETATM   14  N   UNL     1      -9.591   4.778  68.474  1.00  0.00    -0.148 NA 
HETATM   15  C   UNL     1     -11.337   7.214  71.456  1.00  0.00    -0.255 A  
HETATM   16  C   UNL     1     -10.295   5.150  70.775  1.00  0.00    -0.294 A  
HETATM   17  C   UNL     1     -10.873   5.944  71.769  1.00  0.00    -0.316 A  
ENDROOT
BRANCH   8  18
HETATM   18  C   UNL     1      -9.871   9.062  67.855  1.00  0.00    -0.207 A  
HETATM   19  C   UNL     1     -10.355  11.393  67.307  1.00  0.00    -0.230 A  
HETATM   20  C   UNL     1      -8.208  10.799  68.222  1.00  0.00    -0.124 A  
HETATM   21  C   UNL     1     -10.758  10.060  67.399  1.00  0.00    -0.336 A  
HETATM   22  C   UNL     1      -9.080  11.763  67.718  1.00  0.00    -0.178 A  
HETATM   23  C   UNL     1      -8.589   9.451  68.285  1.00  0.00    -0.120 A  
HETATM   24 CL   UNL     1      -7.373   8.351  68.836  1.00  0.00    -0.087 Cl 
ENDBRANCH   8  18
TORSDOF 1
ENDMDL
MODEL       89
REMARK 921   NORMALIZED FREE ENERGY PREDICTED BY IDOCK:   -4.46 KCAL/MOL
REMARK 922        TOTAL FREE ENERGY PREDICTED BY IDOCK:   -5.36 KCAL/MOL
REMARK 923 INTER-LIGAND FREE ENERGY PREDICTED BY IDOCK:   -5.08 KCAL/MOL
REMARK 924 INTRA-LIGAND FREE ENERGY PREDICTED BY IDOCK:   -0.28 KCAL/MOL
REMARK 927      BINDING AFFINITY PREDICTED BY RF-SCORE:    0.00 PKD
ROOT
HETATM    1  C   UNL     1      -9.406   3.254  68.774  1.00  0.00    -0.235 C  
HETATM    2  C   UNL     1      -8.703   4.085  69.780  1.00  0.00    -0.075 A  
HETATM    3  N   UNL     1      -8.080   3.594  70.831  1.00  0.00    -0.064 NA 
HETATM    4  N   UNL     1      -7.716   4.634  71.639  1.00  0.00    -0.092 NA 
HETATM    5  C   UNL     1      -8.121   5.746  71.068  1.00  0.00    -0.120 A  
HETATM    6  C   UNL     1      -7.921   7.125  71.564  1.00  0.00    -0.102 C  
HETATM    7  N   UNL     1      -9.205   7.787  71.720  1.00  0.00    -0.137 NA 
HETATM    8  C   UNL     1      -9.935   8.083  70.701  1.00  0.00    -0.189 C  
HETATM    9  H   UNL     1      -9.535   8.021  72.655  1.00  0.00     0.000 HD 
HETATM   10  C   UNL     1      -9.888   8.664  68.283  1.00  0.00    -0.186 A  
HETATM   11  C   UNL     1      -9.592   7.714  69.279  1.00  0.00    -0.159 A  
HETATM   12  C   UNL     1      -9.119   6.438  68.895  1.00  0.00    -0.129 A  
HETATM   13 CL   UNL     1     -10.242   9.478  65.736  1.00  0.00    -0.243 Cl 
HETATM   14  N   UNL     1      -8.705   5.471  69.853  1.00  0.00    -0.122 NA 
HETATM   15  C   UNL     1      -9.784   8.333  66.934  1.00  0.00    -0.225 A  
HETATM   16  C   UNL     1      -8.986   6.138  67.528  1.00  0.00    -0.111 A  
HETATM   17  C   UNL     1      -9.337   7.076  66.553  1.00  0.00    -0.201 A  
ENDROOT
BRANCH   8  18
HETATM   18  C   UNL     1     -11.225   8.824  70.960  1.00  0.00    -0.329 A  
HETATM   19  C   UNL     1     -12.400  10.965  71.028  1.00  0.00    -0.498 A  
HETATM   20  C   UNL     1     -13.530   8.955  71.726  1.00  0.00    -0.447 A  
HETATM   21  C   UNL     1     -11.264  10.213  70.719  1.00  0.00    -0.414 A  
HETATM   22  C   UNL     1     -13.533  10.336  71.532  1.00  0.00    -0.336 A  
HETATM   23  C   UNL     1     -12.383   8.196  71.454  1.00  0.00    -0.298 A  
HETATM   24 CL   UNL     1     -12.487   6.512  71.837  1.00  0.00    -0.367 Cl 
ENDBRANCH   8  18
TORSDOF 1
ENDMDL
MODEL       90
REMARK 921   NORMALIZED FREE ENERGY PREDICTED BY IDOCK:   -4.46 KCAL/MOL
REMARK 922        TOTAL FREE ENERGY PREDICTED BY IDOCK:   -5.36 KCAL/MOL
REMARK 923 INTER-LIGAND FREE ENERGY PREDICTED BY IDOCK:   -4.87 KCAL/MOL
REMARK 924 INTRA-LIGAND FREE ENERGY PREDICTED BY IDOCK:   -0.49 KCAL/MOL
REMARK 927      BINDING AFFINITY PREDICTED BY RF-SCORE:    0.00 PKD
ROOT
HETATM    1  C   UNL     1      -6.370   8.956  68.494  1.00  0.00    -0.054 C  
HETATM    2  C   UNL     1      -7.039   9.321  67.224  1.00  0.00    -0.082 A  
HETATM    3  N   UNL     1      -6.515   9.121  66.033  1.00  0.00    -0.067 NA 
HETATM    4  N   UNL     1      -7.302   9.743  65.107  1.00  0.00    -0.116 NA 
HETATM    5  C   UNL     1      -8.298  10.314  65.746  1.00  0.00    -0.152 A  
HETATM    6  C   UNL     1      -9.418  11.075  65.150  1.00  0.00    -0.228 C  
HETATM    7  N   UNL     1      -9.462  12.414  65.713  1.00  0.00    -0.422 NA 
HETATM    8  C   UNL     1      -9.767  12.613  66.948  1.00  0.00    -0.234 C  
HETATM    9  H   UNL     1      -9.246  13.212  65.117  1.00  0.00     0.000 HD 
HETATM   10  C   UNL     1     -11.054  11.720  68.880  1.00  0.00    -0.297 A  
HETATM   11  C   UNL     1     -10.023  11.510  67.944  1.00  0.00    -0.193 A  
HETATM   12  C   UNL     1      -9.212  10.358  68.061  1.00  0.00    -0.140 A  
HETATM   13 CL   UNL     1     -12.434  11.175  71.132  1.00  0.00    -0.499 Cl 
HETATM   14  N   UNL     1      -8.223  10.034  67.091  1.00  0.00    -0.117 NA 
HETATM   15  C   UNL     1     -11.232  10.845  69.949  1.00  0.00    -0.282 A  
HETATM   16  C   UNL     1      -9.433   9.468  69.127  1.00  0.00    -0.163 A  
HETATM   17  C   UNL     1     -10.426   9.723  70.077  1.00  0.00    -0.314 A  
ENDROOT
BRANCH   8  18
HETATM   18  C   UNL     1      -9.845  14.044  67.424  1.00  0.00    -0.240 A  
HETATM   19  C   UNL     1     -11.177  16.080  67.639  1.00  0.00    -0.183 A  
HETATM   20  C   UNL     1      -8.871  16.079  68.333  1.00  0.00    -0.188 A  
HETATM   21  C   UNL     1     -11.071  14.729  67.302  1.00  0.00    -0.334 A  
HETATM   22  C   UNL     1     -10.077  16.755  68.155  1.00  0.00    -0.282 A  
HETATM   23  C   UNL     1      -8.742  14.732  67.963  1.00  0.00    -0.168 A  
HETATM   24 CL   UNL     1      -7.164  14.050  68.144  1.00  0.00    -0.113 Cl 
ENDBRANCH   8  18
TORSDOF 1
ENDMDL
MODEL       91
REMARK 921   NORMALIZED FREE ENERGY PREDICTED BY IDOCK:   -4.41 KCAL/MOL
REMARK 922        TOTAL FREE ENERGY PREDICTED BY IDOCK:   -5.31 KCAL/MOL
REMARK 923 INTER-LIGAND FREE ENERGY PREDICTED BY IDOCK:   -4.70 KCAL/MOL
REMARK 924 INTRA-LIGAND FREE ENERGY PREDICTED BY IDOCK:   -0.62 KCAL/MOL
REMARK 927      BINDING AFFINITY PREDICTED BY RF-SCORE:    0.00 PKD
ROOT
HETATM    1  C   UNL     1      -5.826  10.328  70.055  1.00  0.00    -0.057 C  
HETATM    2  C   UNL     1      -7.287  10.087  70.116  1.00  0.00    -0.163 A  
HETATM    3  N   UNL     1      -7.841   9.096  70.782  1.00  0.00    -0.140 NA 
HETATM    4  N   UNL     1      -9.170   9.058  70.468  1.00  0.00    -0.200 NA 
HETATM    5  C   UNL     1      -9.409  10.028  69.615  1.00  0.00    -0.220 A  
HETATM    6  C   UNL     1     -10.715  10.390  69.023  1.00  0.00    -0.228 C  
HETATM    7  N   UNL     1     -10.632  10.339  67.573  1.00  0.00    -0.248 NA 
HETATM    8  C   UNL     1      -9.913  11.179  66.912  1.00  0.00    -0.198 C  
HETATM    9  H   UNL     1     -11.154   9.624  67.069  1.00  0.00     0.000 HD 
HETATM   10  C   UNL     1      -8.980  13.485  66.921  1.00  0.00    -0.219 A  
HETATM   11  C   UNL     1      -9.035  12.226  67.550  1.00  0.00    -0.180 A  
HETATM   12  C   UNL     1      -8.185  11.969  68.650  1.00  0.00    -0.052 A  
HETATM   13 CL   UNL     1      -7.939  15.934  66.482  1.00  0.00    -0.281 Cl 
HETATM   14  N   UNL     1      -8.264  10.759  69.394  1.00  0.00    -0.083 NA 
HETATM   15  C   UNL     1      -8.054  14.442  67.327  1.00  0.00    -0.187 A  
HETATM   16  C   UNL     1      -7.283  12.964  69.068  1.00  0.00     0.017 A  
HETATM   17  C   UNL     1      -7.205  14.187  68.396  1.00  0.00    -0.109 A  
ENDROOT
BRANCH   8  18
HETATM   18  C   UNL     1      -9.940  11.083  65.406  1.00  0.00    -0.313 A  
HETATM   19  C   UNL     1      -8.835  10.324  63.363  1.00  0.00    -0.227 A  
HETATM   20  C   UNL     1     -10.863  11.614  63.219  1.00  0.00    -0.380 A  
HETATM   21  C   UNL     1      -8.912  10.367  64.757  1.00  0.00    -0.228 A  
HETATM   22  C   UNL     1      -9.810  10.947  62.594  1.00  0.00    -0.178 A  
HETATM   23  C   UNL     1     -10.931  11.696  64.617  1.00  0.00    -0.301 A  
HETATM   24 CL   UNL     1     -12.233  12.640  65.253  1.00  0.00    -0.521 Cl 
ENDBRANCH   8  18
TORSDOF 1
ENDMDL
MODEL       92
REMARK 921   NORMALIZED FREE ENERGY PREDICTED BY IDOCK:   -4.29 KCAL/MOL
REMARK 922        TOTAL FREE ENERGY PREDICTED BY IDOCK:   -5.18 KCAL/MOL
REMARK 923 INTER-LIGAND FREE ENERGY PREDICTED BY IDOCK:   -4.83 KCAL/MOL
REMARK 924 INTRA-LIGAND FREE ENERGY PREDICTED BY IDOCK:   -0.35 KCAL/MOL
REMARK 927      BINDING AFFINITY PREDICTED BY RF-SCORE:    0.00 PKD
ROOT
HETATM    1  C   UNL     1     -11.031  14.004  67.709  1.00  0.00    -0.271 C  
HETATM    2  C   UNL     1     -10.849  13.113  66.539  1.00  0.00    -0.280 A  
HETATM    3  N   UNL     1     -11.514  13.239  65.410  1.00  0.00    -0.300 NA 
HETATM    4  N   UNL     1     -11.243  12.151  64.629  1.00  0.00    -0.313 NA 
HETATM    5  C   UNL     1     -10.415  11.377  65.293  1.00  0.00    -0.283 A  
HETATM    6  C   UNL     1      -9.823  10.103  64.830  1.00  0.00    -0.319 C  
HETATM    7  N   UNL     1     -10.155   9.036  65.758  1.00  0.00    -0.362 NA 
HETATM    8  C   UNL     1      -9.677   9.014  66.954  1.00  0.00    -0.200 C  
HETATM    9  H   UNL     1     -10.779   8.289  65.456  1.00  0.00     0.000 HD 
HETATM   10  C   UNL     1      -7.752   9.698  68.373  1.00  0.00    -0.081 A  
HETATM   11  C   UNL     1      -8.813  10.103  67.540  1.00  0.00    -0.126 A  
HETATM   12  C   UNL     1      -9.089  11.482  67.398  1.00  0.00    -0.166 A  
HETATM   13 CL   UNL     1      -5.802  10.111  70.189  1.00  0.00    -0.051 Cl 
HETATM   14  N   UNL     1     -10.077  11.960  66.493  1.00  0.00    -0.200 NA 
HETATM   15  C   UNL     1      -7.028  10.636  69.105  1.00  0.00    -0.085 A  
HETATM   16  C   UNL     1      -8.320  12.414  68.117  1.00  0.00    -0.178 A  
HETATM   17  C   UNL     1      -7.308  11.989  68.982  1.00  0.00    -0.018 A  
ENDROOT
BRANCH   8  18
HETATM   18  C   UNL     1     -10.032   7.832  67.824  1.00  0.00    -0.220 A  
HETATM   19  C   UNL     1     -10.870   7.024  69.972  1.00  0.00    -0.290 A  
HETATM   20  C   UNL     1     -10.096   5.451  68.320  1.00  0.00    -0.225 A  
HETATM   21  C   UNL     1     -10.607   8.073  69.089  1.00  0.00    -0.181 A  
HETATM   22  C   UNL     1     -10.614   5.713  69.588  1.00  0.00    -0.401 A  
HETATM   23  C   UNL     1      -9.794   6.499  67.439  1.00  0.00    -0.133 A  
HETATM   24 CL   UNL     1      -9.062   6.036  65.942  1.00  0.00    -0.149 Cl 
ENDBRANCH   8  18
TORSDOF 1
ENDMDL
MODEL       93
REMARK 921   NORMALIZED FREE ENERGY PREDICTED BY IDOCK:   -4.20 KCAL/MOL
REMARK 922        TOTAL FREE ENERGY PREDICTED BY IDOCK:   -5.09 KCAL/MOL
REMARK 923 INTER-LIGAND FREE ENERGY PREDICTED BY IDOCK:   -4.47 KCAL/MOL
REMARK 924 INTRA-LIGAND FREE ENERGY PREDICTED BY IDOCK:   -0.62 KCAL/MOL
REMARK 927      BINDING AFFINITY PREDICTED BY RF-SCORE:    0.00 PKD
ROOT
HETATM    1  C   UNL     1      -8.960   3.854  71.014  1.00  0.00    -0.159 C  
HETATM    2  C   UNL     1      -9.366   3.998  69.596  1.00  0.00    -0.173 A  
HETATM    3  N   UNL     1      -9.194   3.064  68.684  1.00  0.00    -0.156 NA 
HETATM    4  N   UNL     1      -9.500   3.595  67.463  1.00  0.00    -0.201 NA 
HETATM    5  C   UNL     1      -9.855   4.846  67.647  1.00  0.00    -0.161 A  
HETATM    6  C   UNL     1     -10.301   5.806  66.613  1.00  0.00    -0.243 C  
HETATM    7  N   UNL     1      -9.446   6.980  66.626  1.00  0.00    -0.163 NA 
HETATM    8  C   UNL     1      -9.445   7.799  67.621  1.00  0.00    -0.144 C  
HETATM    9  H   UNL     1      -8.834   7.160  65.831  1.00  0.00     0.000 HD 
HETATM   10  C   UNL     1     -10.825   8.739  69.464  1.00  0.00    -0.151 A  
HETATM   11  C   UNL     1     -10.243   7.595  68.884  1.00  0.00    -0.217 A  
HETATM   12  C   UNL     1     -10.324   6.360  69.567  1.00  0.00    -0.208 A  
HETATM   13 CL   UNL     1     -12.029  10.103  71.455  1.00  0.00    -0.460 Cl 
HETATM   14  N   UNL     1      -9.850   5.150  68.989  1.00  0.00    -0.161 NA 
HETATM   15  C   UNL     1     -11.412   8.674  70.726  1.00  0.00    -0.259 A  
HETATM   16  C   UNL     1     -10.955   6.310  70.823  1.00  0.00    -0.357 A  
HETATM   17  C   UNL     1     -11.478   7.467  71.407  1.00  0.00    -0.290 A  
ENDROOT
BRANCH   8  18
HETATM   18  C   UNL     1      -8.567   9.022  67.514  1.00  0.00    -0.120 A  
HETATM   19  C   UNL     1      -6.614  10.242  68.332  1.00  0.00    -0.056 A  
HETATM   20  C   UNL     1      -8.031  11.234  66.655  1.00  0.00    -0.159 A  
HETATM   21  C   UNL     1      -7.412   9.096  68.321  1.00  0.00    -0.083 A  
HETATM   22  C   UNL     1      -6.924  11.312  67.499  1.00  0.00    -0.091 A  
HETATM   23  C   UNL     1      -8.860  10.104  66.663  1.00  0.00    -0.132 A  
HETATM   24 CL   UNL     1     -10.254  10.186  65.641  1.00  0.00    -0.326 Cl 
ENDBRANCH   8  18
TORSDOF 1
ENDMDL
MODEL       94
REMARK 921   NORMALIZED FREE ENERGY PREDICTED BY IDOCK:   -4.15 KCAL/MOL
REMARK 922        TOTAL FREE ENERGY PREDICTED BY IDOCK:   -5.04 KCAL/MOL
REMARK 923 INTER-LIGAND FREE ENERGY PREDICTED BY IDOCK:   -4.48 KCAL/MOL
REMARK 924 INTRA-LIGAND FREE ENERGY PREDICTED BY IDOCK:   -0.56 KCAL/MOL
REMARK 927      BINDING AFFINITY PREDICTED BY RF-SCORE:    0.00 PKD
ROOT
HETATM    1  C   UNL     1      -9.204   6.886  69.463  1.00  0.00    -0.148 C  
HETATM    2  C   UNL     1      -8.296   8.016  69.769  1.00  0.00    -0.122 A  
HETATM    3  N   UNL     1      -7.693   8.181  70.928  1.00  0.00    -0.081 NA 
HETATM    4  N   UNL     1      -7.096   9.409  70.930  1.00  0.00    -0.211 NA 
HETATM    5  C   UNL     1      -7.341   9.977  69.771  1.00  0.00    -0.141 A  
HETATM    6  C   UNL     1      -6.868  11.300  69.310  1.00  0.00    -0.116 C  
HETATM    7  N   UNL     1      -8.002  12.134  68.951  1.00  0.00    -0.345 NA 
HETATM    8  C   UNL     1      -8.741  11.861  67.933  1.00  0.00    -0.167 C  
HETATM    9  H   UNL     1      -8.217  12.954  69.518  1.00  0.00     0.000 HD 
HETATM   10  C   UNL     1      -8.769  10.794  65.686  1.00  0.00    -0.198 A  
HETATM   11  C   UNL     1      -8.572  10.634  67.071  1.00  0.00    -0.128 A  
HETATM   12  C   UNL     1      -8.358   9.337  67.590  1.00  0.00    -0.116 A  
HETATM   13 CL   UNL     1      -9.160   9.899  63.172  1.00  0.00    -0.276 Cl 
HETATM   14  N   UNL     1      -8.051   9.119  68.962  1.00  0.00    -0.101 NA 
HETATM   15  C   UNL     1      -8.823   9.686  64.844  1.00  0.00    -0.199 A  
HETATM   16  C   UNL     1      -8.379   8.235  66.716  1.00  0.00    -0.107 A  
HETATM   17  C   UNL     1      -8.631   8.410  65.353  1.00  0.00    -0.193 A  
ENDROOT
BRANCH   8  18
HETATM   18  C   UNL     1      -9.859  12.821  67.605  1.00  0.00    -0.214 A  
HETATM   19  C   UNL     1     -12.260  13.186  67.345  1.00  0.00    -0.195 A  
HETATM   20  C   UNL     1     -10.716  14.960  66.826  1.00  0.00    -0.312 A  
HETATM   21  C   UNL     1     -11.190  12.372  67.722  1.00  0.00    -0.327 A  
HETATM   22  C   UNL     1     -12.024  14.480  66.896  1.00  0.00    -0.371 A  
HETATM   23  C   UNL     1      -9.632  14.139  67.167  1.00  0.00    -0.244 A  
HETATM   24 CL   UNL     1      -8.063  14.830  66.935  1.00  0.00    -0.166 Cl 
ENDBRANCH   8  18
TORSDOF 1
ENDMDL
MODEL       95
REMARK 921   NORMALIZED FREE ENERGY PREDICTED BY IDOCK:   -4.15 KCAL/MOL
REMARK 922        TOTAL FREE ENERGY PREDICTED BY IDOCK:   -5.03 KCAL/MOL
REMARK 923 INTER-LIGAND FREE ENERGY PREDICTED BY IDOCK:   -4.89 KCAL/MOL
REMARK 924 INTRA-LIGAND FREE ENERGY PREDICTED BY IDOCK:   -0.14 KCAL/MOL
REMARK 927      BINDING AFFINITY PREDICTED BY RF-SCORE:    0.00 PKD
ROOT
HETATM    1  C   UNL     1     -13.247   7.840  72.187  1.00  0.00    -0.137 C  
HETATM    2  C   UNL     1     -11.866   8.262  71.854  1.00  0.00    -0.324 A  
HETATM    3  N   UNL     1     -11.508   9.514  71.654  1.00  0.00    -0.389 NA 
HETATM    4  N   UNL     1     -10.226   9.524  71.184  1.00  0.00    -0.283 NA 
HETATM    5  C   UNL     1      -9.818   8.278  71.104  1.00  0.00    -0.175 A  
HETATM    6  C   UNL     1      -8.484   7.804  70.676  1.00  0.00    -0.126 C  
HETATM    7  N   UNL     1      -8.619   6.895  69.551  1.00  0.00    -0.133 NA 
HETATM    8  C   UNL     1      -9.169   5.738  69.686  1.00  0.00    -0.138 C  
HETATM    9  H   UNL     1      -8.271   7.179  68.636  1.00  0.00     0.000 HD 
HETATM   10  C   UNL     1      -9.605   3.883  71.284  1.00  0.00    -0.241 A  
HETATM   11  C   UNL     1      -9.792   5.242  70.966  1.00  0.00    -0.254 A  
HETATM   12  C   UNL     1     -10.643   6.028  71.777  1.00  0.00    -0.229 A  
HETATM   13 CL   UNL     1     -10.131   1.616  72.648  1.00  0.00    -0.182 Cl 
HETATM   14  N   UNL     1     -10.793   7.427  71.573  1.00  0.00    -0.224 NA 
HETATM   15  C   UNL     1     -10.301   3.298  72.339  1.00  0.00    -0.077 A  
HETATM   16  C   UNL     1     -11.307   5.426  72.861  1.00  0.00    -0.365 A  
HETATM   17  C   UNL     1     -11.151   4.062  73.127  1.00  0.00    -0.242 A  
ENDROOT
BRANCH   8  18
HETATM   18  C   UNL     1      -9.208   4.840  68.472  1.00  0.00    -0.165 A  
HETATM   19  C   UNL     1      -8.300   2.891  67.313  1.00  0.00    -0.092 A  
HETATM   20  C   UNL     1      -9.969   4.254  66.237  1.00  0.00    -0.229 A  
HETATM   21  C   UNL     1      -8.373   3.704  68.446  1.00  0.00    -0.096 A  
HETATM   22  C   UNL     1      -9.097   3.166  66.208  1.00  0.00    -0.158 A  
HETATM   23  C   UNL     1     -10.024   5.099  67.355  1.00  0.00    -0.180 A  
HETATM   24 CL   UNL     1     -11.073   6.467  67.213  1.00  0.00    -0.456 Cl 
ENDBRANCH   8  18
TORSDOF 1
ENDMDL
MODEL       96
REMARK 921   NORMALIZED FREE ENERGY PREDICTED BY IDOCK:   -4.13 KCAL/MOL
REMARK 922        TOTAL FREE ENERGY PREDICTED BY IDOCK:   -5.01 KCAL/MOL
REMARK 923 INTER-LIGAND FREE ENERGY PREDICTED BY IDOCK:   -4.38 KCAL/MOL
REMARK 924 INTRA-LIGAND FREE ENERGY PREDICTED BY IDOCK:   -0.63 KCAL/MOL
REMARK 927      BINDING AFFINITY PREDICTED BY RF-SCORE:    0.00 PKD
ROOT
HETATM    1  C   UNL     1     -10.172   4.193  65.278  1.00  0.00    -0.204 C  
HETATM    2  C   UNL     1      -9.308   4.046  66.473  1.00  0.00    -0.181 A  
HETATM    3  N   UNL     1      -8.784   2.903  66.864  1.00  0.00    -0.119 NA 
HETATM    4  N   UNL     1      -8.212   3.090  68.090  1.00  0.00    -0.075 NA 
HETATM    5  C   UNL     1      -8.394   4.346  68.430  1.00  0.00    -0.089 A  
HETATM    6  C   UNL     1      -7.917   5.012  69.662  1.00  0.00    -0.071 C  
HETATM    7  N   UNL     1      -9.042   5.585  70.381  1.00  0.00    -0.137 NA 
HETATM    8  C   UNL     1      -9.709   6.578  69.905  1.00  0.00    -0.164 C  
HETATM    9  H   UNL     1      -9.309   5.191  71.283  1.00  0.00     0.000 HD 
HETATM   10  C   UNL     1      -9.572   8.589  68.448  1.00  0.00    -0.157 A  
HETATM   11  C   UNL     1      -9.462   7.189  68.548  1.00  0.00    -0.139 A  
HETATM   12  C   UNL     1      -9.256   6.429  67.374  1.00  0.00    -0.117 A  
HETATM   13 CL   UNL     1      -9.783  10.915  67.100  1.00  0.00    -0.194 Cl 
HETATM   14  N   UNL     1      -9.033   5.025  67.418  1.00  0.00    -0.109 NA 
HETATM   15  C   UNL     1      -9.550   9.216  67.204  1.00  0.00    -0.164 A  
HETATM   16  C   UNL     1      -9.199   7.086  66.132  1.00  0.00    -0.119 A  
HETATM   17  C   UNL     1      -9.366   8.471  66.048  1.00  0.00    -0.266 A  
ENDROOT
BRANCH   8  18
HETATM   18  C   UNL     1     -10.822   7.141  70.755  1.00  0.00    -0.267 A  
HETATM   19  C   UNL     1     -13.222   7.288  71.185  1.00  0.00    -0.273 A  
HETATM   20  C   UNL     1     -11.688   8.601  72.498  1.00  0.00    -0.330 A  
HETATM   21  C   UNL     1     -12.145   6.731  70.493  1.00  0.00    -0.332 A  
HETATM   22  C   UNL     1     -12.994   8.224  72.187  1.00  0.00    -0.327 A  
HETATM   23  C   UNL     1     -10.601   8.076  71.784  1.00  0.00    -0.238 A  
HETATM   24 CL   UNL     1      -9.048   8.709  72.205  1.00  0.00    -0.312 Cl 
ENDBRANCH   8  18
TORSDOF 1
ENDMDL
MODEL       97
REMARK 921   NORMALIZED FREE ENERGY PREDICTED BY IDOCK:   -4.12 KCAL/MOL
REMARK 922        TOTAL FREE ENERGY PREDICTED BY IDOCK:   -5.00 KCAL/MOL
REMARK 923 INTER-LIGAND FREE ENERGY PREDICTED BY IDOCK:   -4.38 KCAL/MOL
REMARK 924 INTRA-LIGAND FREE ENERGY PREDICTED BY IDOCK:   -0.62 KCAL/MOL
REMARK 927      BINDING AFFINITY PREDICTED BY RF-SCORE:    0.00 PKD
ROOT
HETATM    1  C   UNL     1      -6.015   5.635  71.191  1.00  0.00    -0.032 C  
HETATM    2  C   UNL     1      -6.020   7.092  70.926  1.00  0.00    -0.035 A  
HETATM    3  N   UNL     1      -5.126   7.930  71.410  1.00  0.00    -0.030 NA 
HETATM    4  N   UNL     1      -5.536   9.202  71.131  1.00  0.00    -0.042 NA 
HETATM    5  C   UNL     1      -6.674   9.124  70.480  1.00  0.00    -0.069 A  
HETATM    6  C   UNL     1      -7.473  10.249  69.946  1.00  0.00    -0.158 C  
HETATM    7  N   UNL     1      -8.815  10.211  70.502  1.00  0.00    -0.268 NA 
HETATM    8  C   UNL     1      -9.639   9.268  70.203  1.00  0.00    -0.220 C  
HETATM    9  H   UNL     1      -9.110  10.947  71.143  1.00  0.00     0.000 HD 
HETATM   10  C   UNL     1     -10.283   7.630  68.446  1.00  0.00    -0.226 A  
HETATM   11  C   UNL     1      -9.291   8.084  69.336  1.00  0.00    -0.155 A  
HETATM   12  C   UNL     1      -8.091   7.348  69.463  1.00  0.00    -0.129 A  
HETATM   13 CL   UNL     1     -11.385   5.852  66.744  1.00  0.00     0.015 Cl 
HETATM   14  N   UNL     1      -7.009   7.807  70.264  1.00  0.00    -0.049 NA 
HETATM   15  C   UNL     1     -10.120   6.435  67.750  1.00  0.00    -0.146 A  
HETATM   16  C   UNL     1      -7.931   6.163  68.722  1.00  0.00    -0.101 A  
HETATM   17  C   UNL     1      -8.950   5.700  67.886  1.00  0.00    -0.108 A  
ENDROOT
BRANCH   8  18
HETATM   18  C   UNL     1     -11.030   9.349  70.785  1.00  0.00    -0.371 A  
HETATM   19  C   UNL     1     -12.699   8.395  72.292  1.00  0.00    -0.376 A  
HETATM   20  C   UNL     1     -13.278  10.273  70.900  1.00  0.00    -0.351 A  
HETATM   21  C   UNL     1     -11.398   8.426  71.785  1.00  0.00    -0.366 A  
HETATM   22  C   UNL     1     -13.639   9.318  71.849  1.00  0.00    -0.494 A  
HETATM   23  C   UNL     1     -11.985  10.290  70.357  1.00  0.00    -0.303 A  
HETATM   24 CL   UNL     1     -11.706  11.462  69.116  1.00  0.00    -0.373 Cl 
ENDBRANCH   8  18
TORSDOF 1
ENDMDL
MODEL       98
REMARK 921   NORMALIZED FREE ENERGY PREDICTED BY IDOCK:   -4.12 KCAL/MOL
REMARK 922        TOTAL FREE ENERGY PREDICTED BY IDOCK:   -5.00 KCAL/MOL
REMARK 923 INTER-LIGAND FREE ENERGY PREDICTED BY IDOCK:   -4.42 KCAL/MOL
REMARK 924 INTRA-LIGAND FREE ENERGY PREDICTED BY IDOCK:   -0.58 KCAL/MOL
REMARK 927      BINDING AFFINITY PREDICTED BY RF-SCORE:    0.00 PKD
ROOT
HETATM    1  C   UNL     1     -11.443  11.814  66.809  1.00  0.00    -0.352 C  
HETATM    2  C   UNL     1     -10.659  11.387  65.626  1.00  0.00    -0.258 A  
HETATM    3  N   UNL     1     -10.956  11.724  64.388  1.00  0.00    -0.322 NA 
HETATM    4  N   UNL     1     -10.153  11.011  63.545  1.00  0.00    -0.349 NA 
HETATM    5  C   UNL     1      -9.376  10.248  64.280  1.00  0.00    -0.277 A  
HETATM    6  C   UNL     1      -8.323   9.326  63.801  1.00  0.00    -0.180 C  
HETATM    7  N   UNL     1      -8.591   7.979  64.276  1.00  0.00    -0.381 NA 
HETATM    8  C   UNL     1      -8.514   7.681  65.526  1.00  0.00    -0.120 C  
HETATM    9  H   UNL     1      -8.844   7.256  63.604  1.00  0.00     0.000 HD 
HETATM   10  C   UNL     1      -7.403   8.255  67.676  1.00  0.00    -0.093 A  
HETATM   11  C   UNL     1      -8.230   8.681  66.619  1.00  0.00    -0.107 A  
HETATM   12  C   UNL     1      -8.845   9.952  66.694  1.00  0.00    -0.135 A  
HETATM   13 CL   UNL     1      -6.310   8.458  70.133  1.00  0.00    -0.037 Cl 
HETATM   14  N   UNL     1      -9.606  10.483  65.616  1.00  0.00    -0.210 NA 
HETATM   15  C   UNL     1      -7.246   9.041  68.814  1.00  0.00    -0.075 A  
HETATM   16  C   UNL     1      -8.642  10.746  67.837  1.00  0.00    -0.125 A  
HETATM   17  C   UNL     1      -7.862  10.282  68.900  1.00  0.00    -0.106 A  
ENDROOT
BRANCH   8  18
HETATM   18  C   UNL     1      -8.751   6.240  65.913  1.00  0.00    -0.154 A  
HETATM   19  C   UNL     1      -8.114   3.897  65.647  1.00  0.00    -0.097 A  
HETATM   20  C   UNL     1     -10.006   4.475  67.021  1.00  0.00    -0.215 A  
HETATM   21  C   UNL     1      -7.887   5.252  65.397  1.00  0.00    -0.094 A  
HETATM   22  C   UNL     1      -9.173   3.508  66.458  1.00  0.00    -0.186 A  
HETATM   23  C   UNL     1      -9.810   5.836  66.748  1.00  0.00    -0.162 A  
HETATM   24 CL   UNL     1     -10.977   6.916  67.429  1.00  0.00    -0.386 Cl 
ENDBRANCH   8  18
TORSDOF 1
ENDMDL
MODEL       99
REMARK 921   NORMALIZED FREE ENERGY PREDICTED BY IDOCK:   -4.11 KCAL/MOL
REMARK 922        TOTAL FREE ENERGY PREDICTED BY IDOCK:   -4.99 KCAL/MOL
REMARK 923 INTER-LIGAND FREE ENERGY PREDICTED BY IDOCK:   -4.52 KCAL/MOL
REMARK 924 INTRA-LIGAND FREE ENERGY PREDICTED BY IDOCK:   -0.47 KCAL/MOL
REMARK 927      BINDING AFFINITY PREDICTED BY RF-SCORE:    0.00 PKD
ROOT
HETATM    1  C   UNL     1     -10.495  18.026  66.908  1.00  0.00    -0.350 C  
HETATM    2  C   UNL     1      -9.282  17.378  67.458  1.00  0.00    -0.233 A  
HETATM    3  N   UNL     1      -8.053  17.736  67.148  1.00  0.00    -0.210 NA 
HETATM    4  N   UNL     1      -7.192  16.816  67.677  1.00  0.00    -0.139 NA 
HETATM    5  C   UNL     1      -7.908  15.910  68.303  1.00  0.00    -0.138 A  
HETATM    6  C   UNL     1      -7.402  14.739  69.053  1.00  0.00    -0.139 C  
HETATM    7  N   UNL     1      -7.968  13.519  68.505  1.00  0.00    -0.199 NA 
HETATM    8  C   UNL     1      -9.223  13.253  68.613  1.00  0.00     0.019 C  
HETATM    9  H   UNL     1      -7.357  12.858  68.025  1.00  0.00     0.000 HD 
HETATM   10  C   UNL     1     -11.250  13.606  70.011  1.00  0.00     0.054 A  
HETATM   11  C   UNL     1     -10.236  14.188  69.226  1.00  0.00     0.021 A  
HETATM   12  C   UNL     1     -10.288  15.573  68.951  1.00  0.00    -0.221 A  
HETATM   13 CL   UNL     1     -13.603  13.615  71.328  1.00  0.00    -0.203 Cl 
HETATM   14  N   UNL     1      -9.243  16.240  68.253  1.00  0.00    -0.193 NA 
HETATM   15  C   UNL     1     -12.329  14.367  70.454  1.00  0.00    -0.342 A  
HETATM   16  C   UNL     1     -11.367  16.331  69.439  1.00  0.00    -0.284 A  
HETATM   17  C   UNL     1     -12.393  15.724  70.170  1.00  0.00    -0.309 A  
ENDROOT
BRANCH   8  18
HETATM   18  C   UNL     1      -9.705  11.931  68.065  1.00  0.00    -0.191 A  
HETATM   19  C   UNL     1     -10.053   9.542  68.438  1.00  0.00    -0.199 A  
HETATM   20  C   UNL     1     -10.513  10.495  66.275  1.00  0.00    -0.250 A  
HETATM   21  C   UNL     1      -9.706  10.807  68.917  1.00  0.00    -0.207 A  
HETATM   22  C   UNL     1     -10.456   9.385  67.118  1.00  0.00    -0.315 A  
HETATM   23  C   UNL     1     -10.132  11.764  66.734  1.00  0.00    -0.209 A  
HETATM   24 CL   UNL     1     -10.154  13.029  65.554  1.00  0.00    -0.284 Cl 
ENDBRANCH   8  18
TORSDOF 1
ENDMDL
MODEL      100
REMARK 921   NORMALIZED FREE ENERGY PREDICTED BY IDOCK:   -4.06 KCAL/MOL
REMARK 922        TOTAL FREE ENERGY PREDICTED BY IDOCK:   -4.94 KCAL/MOL
REMARK 923 INTER-LIGAND FREE ENERGY PREDICTED BY IDOCK:   -4.30 KCAL/MOL
REMARK 924 INTRA-LIGAND FREE ENERGY PREDICTED BY IDOCK:   -0.64 KCAL/MOL
REMARK 927      BINDING AFFINITY PREDICTED BY RF-SCORE:    0.00 PKD
ROOT
HETATM    1  C   UNL     1      -8.384   8.164  74.061  1.00  0.00    -0.309 C  
HETATM    2  C   UNL     1      -8.952   6.908  73.518  1.00  0.00    -0.141 A  
HETATM    3  N   UNL     1      -8.842   5.736  74.108  1.00  0.00    -0.122 NA 
HETATM    4  N   UNL     1      -9.305   4.778  73.251  1.00  0.00    -0.120 NA 
HETATM    5  C   UNL     1      -9.693   5.380  72.149  1.00  0.00    -0.162 A  
HETATM    6  C   UNL     1     -10.293   4.747  70.954  1.00  0.00    -0.117 C  
HETATM    7  N   UNL     1      -9.495   5.051  69.779  1.00  0.00    -0.136 NA 
HETATM    8  C   UNL     1      -9.419   6.249  69.311  1.00  0.00    -0.134 C  
HETATM    9  H   UNL     1      -8.984   4.301  69.316  1.00  0.00     0.000 HD 
HETATM   10  C   UNL     1     -10.624   8.414  69.096  1.00  0.00    -0.177 A  
HETATM   11  C   UNL     1     -10.061   7.451  69.956  1.00  0.00    -0.191 A  
HETATM   12  C   UNL     1     -10.011   7.714  71.344  1.00  0.00    -0.181 A  
HETATM   13 CL   UNL     1     -11.658  10.835  68.511  1.00  0.00    -0.362 Cl 
HETATM   14  N   UNL     1      -9.550   6.743  72.276  1.00  0.00    -0.146 NA 
HETATM   15  C   UNL     1     -11.063   9.639  69.592  1.00  0.00    -0.193 A  
HETATM   16  C   UNL     1     -10.494   8.942  71.829  1.00  0.00    -0.431 A  
HETATM   17  C   UNL     1     -10.999   9.907  70.953  1.00  0.00    -0.392 A  
ENDROOT
BRANCH   8  18
HETATM   18  C   UNL     1      -8.613   6.453  68.050  1.00  0.00    -0.117 A  
HETATM   19  C   UNL     1      -6.580   7.329  67.016  1.00  0.00    -0.060 A  
HETATM   20  C   UNL     1      -8.313   6.383  65.637  1.00  0.00    -0.147 A  
HETATM   21  C   UNL     1      -7.331   7.032  68.156  1.00  0.00    -0.097 A  
HETATM   22  C   UNL     1      -7.071   7.005  65.757  1.00  0.00    -0.069 A  
HETATM   23  C   UNL     1      -9.092   6.114  66.772  1.00  0.00    -0.133 A  
HETATM   24 CL   UNL     1     -10.653   5.434  66.468  1.00  0.00    -0.360 Cl 
ENDBRANCH   8  18
TORSDOF 1
ENDMDL
MODEL      101
REMARK 921   NORMALIZED FREE ENERGY PREDICTED BY IDOCK:   -4.05 KCAL/MOL
REMARK 922        TOTAL FREE ENERGY PREDICTED BY IDOCK:   -4.93 KCAL/MOL
REMARK 923 INTER-LIGAND FREE ENERGY PREDICTED BY IDOCK:   -4.29 KCAL/MOL
REMARK 924 INTRA-LIGAND FREE ENERGY PREDICTED BY IDOCK:   -0.64 KCAL/MOL
REMARK 927      BINDING AFFINITY PREDICTED BY RF-SCORE:    0.00 PKD
ROOT
HETATM    1  C   UNL     1      -7.690   9.745  64.068  1.00  0.00    -0.134 C  
HETATM    2  C   UNL     1      -7.830   8.535  64.911  1.00  0.00    -0.119 A  
HETATM    3  N   UNL     1      -8.093   7.336  64.437  1.00  0.00    -0.107 NA 
HETATM    4  N   UNL     1      -8.343   6.503  65.490  1.00  0.00    -0.145 NA 
HETATM    5  C   UNL     1      -8.227   7.205  66.594  1.00  0.00    -0.112 A  
HETATM    6  C   UNL     1      -8.378   6.715  67.981  1.00  0.00    -0.117 C  
HETATM    7  N   UNL     1      -9.411   7.473  68.664  1.00  0.00    -0.146 NA 
HETATM    8  C   UNL     1      -9.254   8.719  68.947  1.00  0.00    -0.141 C  
HETATM    9  H   UNL     1     -10.280   7.008  68.926  1.00  0.00     0.000 HD 
HETATM   10  C   UNL     1      -7.571  10.474  69.471  1.00  0.00    -0.148 A  
HETATM   11  C   UNL     1      -8.051   9.533  68.540  1.00  0.00    -0.101 A  
HETATM   12  C   UNL     1      -7.477   9.487  67.249  1.00  0.00    -0.091 A  
HETATM   13 CL   UNL     1      -6.091  12.597  70.230  1.00  0.00    -0.119 Cl 
HETATM   14  N   UNL     1      -7.844   8.494  66.299  1.00  0.00    -0.097 NA 
HETATM   15  C   UNL     1      -6.592  11.396  69.107  1.00  0.00    -0.095 A  
HETATM   16  C   UNL     1      -6.463  10.403  66.915  1.00  0.00    -0.076 A  
HETATM   17  C   UNL     1      -6.038  11.365  67.835  1.00  0.00    -0.050 A  
ENDROOT
BRANCH   8  18
HETATM   18  C   UNL     1     -10.360   9.405  69.713  1.00  0.00    -0.240 A  
HETATM   19  C   UNL     1     -11.628   9.588  71.793  1.00  0.00    -0.382 A  
HETATM   20  C   UNL     1     -12.257  10.918  69.886  1.00  0.00    -0.408 A  
HETATM   21  C   UNL     1     -10.563   9.055  71.064  1.00  0.00    -0.341 A  
HETATM   22  C   UNL     1     -12.475  10.519  71.205  1.00  0.00    -0.517 A  
HETATM   23  C   UNL     1     -11.213  10.362  69.133  1.00  0.00    -0.246 A  
HETATM   24 CL   UNL     1     -11.123  10.872  67.483  1.00  0.00    -0.357 Cl 
ENDBRANCH   8  18
TORSDOF 1
ENDMDL
MODEL      102
REMARK 921   NORMALIZED FREE ENERGY PREDICTED BY IDOCK:   -4.03 KCAL/MOL
REMARK 922        TOTAL FREE ENERGY PREDICTED BY IDOCK:   -4.91 KCAL/MOL
REMARK 923 INTER-LIGAND FREE ENERGY PREDICTED BY IDOCK:   -4.74 KCAL/MOL
REMARK 924 INTRA-LIGAND FREE ENERGY PREDICTED BY IDOCK:   -0.17 KCAL/MOL
REMARK 927      BINDING AFFINITY PREDICTED BY RF-SCORE:    0.00 PKD
ROOT
HETATM    1  C   UNL     1      -7.379   8.330  73.941  1.00  0.00    -0.198 C  
HETATM    2  C   UNL     1      -7.096   7.834  72.574  1.00  0.00    -0.082 A  
HETATM    3  N   UNL     1      -5.887   7.569  72.124  1.00  0.00    -0.036 NA 
HETATM    4  N   UNL     1      -5.973   7.321  70.783  1.00  0.00    -0.031 NA 
HETATM    5  C   UNL     1      -7.234   7.437  70.434  1.00  0.00    -0.068 A  
HETATM    6  C   UNL     1      -7.807   7.226  69.086  1.00  0.00    -0.117 C  
HETATM    7  N   UNL     1      -8.502   8.424  68.651  1.00  0.00    -0.127 NA 
HETATM    8  C   UNL     1      -9.583   8.821  69.228  1.00  0.00    -0.162 C  
HETATM    9  H   UNL     1      -8.126   8.963  67.871  1.00  0.00     0.000 HD 
HETATM   10  C   UNL     1     -11.592   8.071  70.488  1.00  0.00    -0.141 A  
HETATM   11  C   UNL     1     -10.187   8.156  70.440  1.00  0.00    -0.203 A  
HETATM   12  C   UNL     1      -9.433   7.740  71.561  1.00  0.00    -0.144 A  
HETATM   13 CL   UNL     1     -13.955   7.645  71.716  1.00  0.00    -0.465 Cl 
HETATM   14  N   UNL     1      -8.011   7.703  71.538  1.00  0.00    -0.092 NA 
HETATM   15  C   UNL     1     -12.237   7.649  71.648  1.00  0.00    -0.317 A  
HETATM   16  C   UNL     1     -10.105   7.282  72.708  1.00  0.00    -0.253 A  
HETATM   17  C   UNL     1     -11.501   7.257  72.757  1.00  0.00    -0.273 A  
ENDROOT
BRANCH   8  18
HETATM   18  C   UNL     1     -10.265  10.044  68.664  1.00  0.00    -0.198 A  
HETATM   19  C   UNL     1     -11.408  12.159  69.100  1.00  0.00    -0.333 A  
HETATM   20  C   UNL     1     -11.205  11.351  66.840  1.00  0.00    -0.331 A  
HETATM   21  C   UNL     1     -10.691  11.051  69.556  1.00  0.00    -0.231 A  
HETATM   22  C   UNL     1     -11.666  12.309  67.743  1.00  0.00    -0.403 A  
HETATM   23  C   UNL     1     -10.516  10.215  67.290  1.00  0.00    -0.256 A  
HETATM   24 CL   UNL     1     -10.094   9.061  66.074  1.00  0.00    -0.279 Cl 
ENDBRANCH   8  18
TORSDOF 1
ENDMDL
MODEL      103
REMARK 921   NORMALIZED FREE ENERGY PREDICTED BY IDOCK:   -4.00 KCAL/MOL
REMARK 922        TOTAL FREE ENERGY PREDICTED BY IDOCK:   -4.88 KCAL/MOL
REMARK 923 INTER-LIGAND FREE ENERGY PREDICTED BY IDOCK:   -4.30 KCAL/MOL
REMARK 924 INTRA-LIGAND FREE ENERGY PREDICTED BY IDOCK:   -0.58 KCAL/MOL
REMARK 927      BINDING AFFINITY PREDICTED BY RF-SCORE:    0.00 PKD
ROOT
HETATM    1  C   UNL     1      -9.590  10.526  66.889  1.00  0.00    -0.206 C  
HETATM    2  C   UNL     1     -10.365  10.573  68.151  1.00  0.00    -0.172 A  
HETATM    3  N   UNL     1     -10.854  11.680  68.671  1.00  0.00    -0.202 NA 
HETATM    4  N   UNL     1     -11.337  11.392  69.916  1.00  0.00    -0.254 NA 
HETATM    5  C   UNL     1     -11.137  10.112  70.137  1.00  0.00    -0.315 A  
HETATM    6  C   UNL     1     -11.526   9.346  71.342  1.00  0.00    -0.379 C  
HETATM    7  N   UNL     1     -10.356   8.718  71.929  1.00  0.00    -0.327 NA 
HETATM    8  C   UNL     1      -9.730   7.768  71.325  1.00  0.00    -0.157 C  
HETATM    9  H   UNL     1     -10.022   9.037  72.838  1.00  0.00     0.000 HD 
HETATM   10  C   UNL     1      -9.981   5.883  69.722  1.00  0.00    -0.236 A  
HETATM   11  C   UNL     1     -10.077   7.270  69.945  1.00  0.00    -0.196 A  
HETATM   12  C   UNL     1     -10.363   8.124  68.855  1.00  0.00    -0.211 A  
HETATM   13 CL   UNL     1      -9.879   3.676  68.176  1.00  0.00    -0.078 Cl 
HETATM   14  N   UNL     1     -10.576   9.520  69.029  1.00  0.00    -0.219 NA 
HETATM   15  C   UNL     1     -10.095   5.361  68.436  1.00  0.00    -0.173 A  
HETATM   16  C   UNL     1     -10.512   7.571  67.570  1.00  0.00    -0.341 A  
HETATM   17  C   UNL     1     -10.359   6.198  67.361  1.00  0.00    -0.262 A  
ENDROOT
BRANCH   8  18
HETATM   18  C   UNL     1      -8.561   7.138  72.044  1.00  0.00    -0.118 A  
HETATM   19  C   UNL     1      -7.785   5.594  73.770  1.00  0.00    -0.101 A  
HETATM   20  C   UNL     1      -6.191   6.927  72.553  1.00  0.00    -0.049 A  
HETATM   21  C   UNL     1      -8.819   6.144  73.010  1.00  0.00    -0.124 A  
HETATM   22  C   UNL     1      -6.471   5.985  73.542  1.00  0.00    -0.073 A  
HETATM   23  C   UNL     1      -7.225   7.514  71.809  1.00  0.00    -0.063 A  
HETATM   24 CL   UNL     1      -6.743   8.740  70.689  1.00  0.00    -0.043 Cl 
ENDBRANCH   8  18
TORSDOF 1
ENDMDL
MODEL      104
REMARK 921   NORMALIZED FREE ENERGY PREDICTED BY IDOCK:   -4.00 KCAL/MOL
REMARK 922        TOTAL FREE ENERGY PREDICTED BY IDOCK:   -4.88 KCAL/MOL
REMARK 923 INTER-LIGAND FREE ENERGY PREDICTED BY IDOCK:   -4.23 KCAL/MOL
REMARK 924 INTRA-LIGAND FREE ENERGY PREDICTED BY IDOCK:   -0.64 KCAL/MOL
REMARK 927      BINDING AFFINITY PREDICTED BY RF-SCORE:    0.00 PKD
ROOT
HETATM    1  C   UNL     1      -8.153   6.585  74.359  1.00  0.00    -0.126 C  
HETATM    2  C   UNL     1      -8.417   5.621  73.266  1.00  0.00    -0.117 A  
HETATM    3  N   UNL     1      -7.846   4.438  73.175  1.00  0.00    -0.089 NA 
HETATM    4  N   UNL     1      -8.165   3.900  71.961  1.00  0.00    -0.082 NA 
HETATM    5  C   UNL     1      -8.928   4.761  71.328  1.00  0.00    -0.129 A  
HETATM    6  C   UNL     1      -9.540   4.594  69.991  1.00  0.00    -0.188 C  
HETATM    7  N   UNL     1      -9.123   5.675  69.117  1.00  0.00    -0.112 NA 
HETATM    8  C   UNL     1      -9.503   6.889  69.321  1.00  0.00    -0.147 C  
HETATM    9  H   UNL     1      -8.515   5.469  68.324  1.00  0.00     0.000 HD 
HETATM   10  C   UNL     1     -11.317   8.305  70.265  1.00  0.00    -0.129 A  
HETATM   11  C   UNL     1     -10.331   7.328  70.502  1.00  0.00    -0.215 A  
HETATM   12  C   UNL     1     -10.083   6.908  71.829  1.00  0.00    -0.185 A  
HETATM   13 CL   UNL     1     -13.121  10.162  71.017  1.00  0.00    -0.467 Cl 
HETATM   14  N   UNL     1      -9.177   5.854  72.127  1.00  0.00    -0.146 NA 
HETATM   15  C   UNL     1     -11.992   8.904  71.325  1.00  0.00    -0.307 A  
HETATM   16  C   UNL     1     -10.803   7.500  72.882  1.00  0.00    -0.425 A  
HETATM   17  C   UNL     1     -11.739   8.508  72.631  1.00  0.00    -0.301 A  
ENDROOT
BRANCH   8  18
HETATM   18  C   UNL     1      -9.066   7.933  68.321  1.00  0.00    -0.134 A  
HETATM   19  C   UNL     1      -9.234   8.818  66.051  1.00  0.00    -0.282 A  
HETATM   20  C   UNL     1      -7.674   9.795  67.605  1.00  0.00    -0.094 A  
HETATM   21  C   UNL     1      -9.664   7.936  67.044  1.00  0.00    -0.269 A  
HETATM   22  C   UNL     1      -8.239   9.747  66.330  1.00  0.00    -0.120 A  
HETATM   23  C   UNL     1      -8.072   8.889  68.599  1.00  0.00    -0.111 A  
HETATM   24 CL   UNL     1      -7.217   8.996  70.098  1.00  0.00    -0.055 Cl 
ENDBRANCH   8  18
TORSDOF 1
ENDMDL
MODEL      105
REMARK 921   NORMALIZED FREE ENERGY PREDICTED BY IDOCK:   -3.97 KCAL/MOL
REMARK 922        TOTAL FREE ENERGY PREDICTED BY IDOCK:   -4.84 KCAL/MOL
REMARK 923 INTER-LIGAND FREE ENERGY PREDICTED BY IDOCK:   -4.20 KCAL/MOL
REMARK 924 INTRA-LIGAND FREE ENERGY PREDICTED BY IDOCK:   -0.64 KCAL/MOL
REMARK 927      BINDING AFFINITY PREDICTED BY RF-SCORE:    0.00 PKD
ROOT
HETATM    1  C   UNL     1     -11.825  11.809  64.110  1.00  0.00    -0.350 C  
HETATM    2  C   UNL     1     -10.480  11.193  64.033  1.00  0.00    -0.383 A  
HETATM    3  N   UNL     1     -10.104  10.364  63.081  1.00  0.00    -0.049 NA 
HETATM    4  N   UNL     1      -8.888   9.844  63.420  1.00  0.00    -0.219 NA 
HETATM    5  C   UNL     1      -8.537  10.363  64.574  1.00  0.00    -0.180 A  
HETATM    6  C   UNL     1      -7.281  10.116  65.316  1.00  0.00    -0.141 C  
HETATM    7  N   UNL     1      -7.581   9.613  66.645  1.00  0.00    -0.097 NA 
HETATM    8  C   UNL     1      -8.152  10.354  67.530  1.00  0.00    -0.107 C  
HETATM    9  H   UNL     1      -7.335   8.652  66.882  1.00  0.00     0.000 HD 
HETATM   10  C   UNL     1      -8.460  12.696  68.308  1.00  0.00    -0.163 A  
HETATM   11  C   UNL     1      -8.635  11.759  67.272  1.00  0.00    -0.162 A  
HETATM   12  C   UNL     1      -9.355  12.138  66.116  1.00  0.00    -0.195 A  
HETATM   13 CL   UNL     1      -8.898  15.050  69.550  1.00  0.00    -0.120 Cl 
HETATM   14  N   UNL     1      -9.478  11.275  64.992  1.00  0.00    -0.223 NA 
HETATM   15  C   UNL     1      -9.045  13.957  68.231  1.00  0.00    -0.191 A  
HETATM   16  C   UNL     1      -9.906  13.430  66.043  1.00  0.00    -0.273 A  
HETATM   17  C   UNL     1      -9.768  14.327  67.105  1.00  0.00    -0.254 A  
ENDROOT
BRANCH   8  18
HETATM   18  C   UNL     1      -8.367   9.760  68.902  1.00  0.00    -0.120 A  
HETATM   19  C   UNL     1      -9.943   8.881  70.549  1.00  0.00    -0.243 A  
HETATM   20  C   UNL     1      -7.615   9.108  71.121  1.00  0.00    -0.093 A  
HETATM   21  C   UNL     1      -9.668   9.351  69.263  1.00  0.00    -0.173 A  
HETATM   22  C   UNL     1      -8.917   8.760  71.478  1.00  0.00    -0.306 A  
HETATM   23  C   UNL     1      -7.333   9.616  69.845  1.00  0.00    -0.120 A  
HETATM   24 CL   UNL     1      -5.695  10.103  69.574  1.00  0.00    -0.037 Cl 
ENDBRANCH   8  18
TORSDOF 1
ENDMDL
MODEL      106
REMARK 921   NORMALIZED FREE ENERGY PREDICTED BY IDOCK:   -3.95 KCAL/MOL
REMARK 922        TOTAL FREE ENERGY PREDICTED BY IDOCK:   -4.83 KCAL/MOL
REMARK 923 INTER-LIGAND FREE ENERGY PREDICTED BY IDOCK:   -4.30 KCAL/MOL
REMARK 924 INTRA-LIGAND FREE ENERGY PREDICTED BY IDOCK:   -0.52 KCAL/MOL
REMARK 927      BINDING AFFINITY PREDICTED BY RF-SCORE:    0.00 PKD
ROOT
HETATM    1  C   UNL     1     -14.315   7.306  71.663  1.00  0.00    -0.583 C  
HETATM    2  C   UNL     1     -13.571   8.574  71.473  1.00  0.00    -0.305 A  
HETATM    3  N   UNL     1     -14.144   9.756  71.390  1.00  0.00     0.048 NA 
HETATM    4  N   UNL     1     -13.194  10.669  71.027  1.00  0.00    -0.272 NA 
HETATM    5  C   UNL     1     -12.054  10.030  70.894  1.00  0.00    -0.355 A  
HETATM    6  C   UNL     1     -10.742  10.615  70.542  1.00  0.00     0.272 C  
HETATM    7  N   UNL     1     -10.217   9.973  69.350  1.00  0.00    -0.207 NA 
HETATM    8  C   UNL     1      -9.849   8.739  69.358  1.00  0.00    -0.186 C  
HETATM    9  H   UNL     1     -10.138  10.512  68.488  1.00  0.00     0.000 HD 
HETATM   10  C   UNL     1      -8.948   6.910  70.783  1.00  0.00    -0.150 A  
HETATM   11  C   UNL     1      -9.995   7.822  70.547  1.00  0.00    -0.187 A  
HETATM   12  C   UNL     1     -11.163   7.748  71.339  1.00  0.00    -0.246 A  
HETATM   13 CL   UNL     1      -7.833   4.743  71.938  1.00  0.00    -0.097 Cl 
HETATM   14  N   UNL     1     -12.212   8.703  71.221  1.00  0.00    -0.294 NA 
HETATM   15  C   UNL     1      -9.085   5.903  71.735  1.00  0.00    -0.142 A  
HETATM   16  C   UNL     1     -11.265   6.747  72.321  1.00  0.00    -0.295 A  
HETATM   17  C   UNL     1     -10.238   5.817  72.502  1.00  0.00    -0.218 A  
ENDROOT
BRANCH   8  18
HETATM   18  C   UNL     1      -9.260   8.179  68.086  1.00  0.00    -0.136 A  
HETATM   19  C   UNL     1      -7.592   8.390  66.313  1.00  0.00    -0.086 A  
HETATM   20  C   UNL     1      -9.243   6.640  66.202  1.00  0.00    -0.120 A  
HETATM   21  C   UNL     1      -8.123   8.807  67.536  1.00  0.00    -0.106 A  
HETATM   22  C   UNL     1      -8.151   7.307  65.646  1.00  0.00    -0.133 A  
HETATM   23  C   UNL     1      -9.808   7.073  67.411  1.00  0.00    -0.154 A  
HETATM   24 CL   UNL     1     -11.218   6.218  67.930  1.00  0.00    -0.351 Cl 
ENDBRANCH   8  18
TORSDOF 1
ENDMDL
MODEL      107
REMARK 921   NORMALIZED FREE ENERGY PREDICTED BY IDOCK:   -3.94 KCAL/MOL
REMARK 922        TOTAL FREE ENERGY PREDICTED BY IDOCK:   -4.82 KCAL/MOL
REMARK 923 INTER-LIGAND FREE ENERGY PREDICTED BY IDOCK:   -4.40 KCAL/MOL
REMARK 924 INTRA-LIGAND FREE ENERGY PREDICTED BY IDOCK:   -0.42 KCAL/MOL
REMARK 927      BINDING AFFINITY PREDICTED BY RF-SCORE:    0.00 PKD
ROOT
HETATM    1  C   UNL     1      -6.907  18.010  65.777  1.00  0.00    -0.281 C  
HETATM    2  C   UNL     1      -7.364  17.774  67.166  1.00  0.00    -0.186 A  
HETATM    3  N   UNL     1      -6.775  18.281  68.229  1.00  0.00    -0.211 NA 
HETATM    4  N   UNL     1      -7.331  17.712  69.339  1.00  0.00    -0.019 NA 
HETATM    5  C   UNL     1      -8.253  16.867  68.939  1.00  0.00    -0.218 A  
HETATM    6  C   UNL     1      -9.138  16.044  69.792  1.00  0.00     0.197 C  
HETATM    7  N   UNL     1      -8.973  14.638  69.467  1.00  0.00    -0.405 NA 
HETATM    8  C   UNL     1      -9.353  14.164  68.331  1.00  0.00    -0.208 C  
HETATM    9  H   UNL     1      -8.548  14.015  70.152  1.00  0.00     0.000 HD 
HETATM   10  C   UNL     1     -10.973  14.443  66.465  1.00  0.00    -0.316 A  
HETATM   11  C   UNL     1      -9.917  15.000  67.210  1.00  0.00    -0.233 A  
HETATM   12  C   UNL     1      -9.362  16.235  66.802  1.00  0.00    -0.237 A  
HETATM   13 CL   UNL     1     -12.646  14.310  64.354  1.00  0.00    -0.299 Cl 
HETATM   14  N   UNL     1      -8.366  16.902  67.568  1.00  0.00    -0.188 NA 
HETATM   15  C   UNL     1     -11.422  15.059  65.300  1.00  0.00    -0.308 A  
HETATM   16  C   UNL     1      -9.857  16.859  65.642  1.00  0.00    -0.067 A  
HETATM   17  C   UNL     1     -10.868  16.262  64.885  1.00  0.00    -0.315 A  
ENDROOT
BRANCH   8  18
HETATM   18  C   UNL     1      -9.195  12.678  68.110  1.00  0.00    -0.209 A  
HETATM   19  C   UNL     1     -10.164  10.445  68.308  1.00  0.00    -0.184 A  
HETATM   20  C   UNL     1      -7.905  10.703  67.515  1.00  0.00    -0.106 A  
HETATM   21  C   UNL     1     -10.284  11.833  68.405  1.00  0.00    -0.208 A  
HETATM   22  C   UNL     1      -8.975   9.880  67.863  1.00  0.00    -0.129 A  
HETATM   23  C   UNL     1      -8.001  12.096  67.644  1.00  0.00    -0.157 A  
HETATM   24 CL   UNL     1      -6.565  12.987  67.274  1.00  0.00    -0.108 Cl 
ENDBRANCH   8  18
TORSDOF 1
ENDMDL
MODEL      108
REMARK 921   NORMALIZED FREE ENERGY PREDICTED BY IDOCK:   -3.90 KCAL/MOL
REMARK 922        TOTAL FREE ENERGY PREDICTED BY IDOCK:   -4.77 KCAL/MOL
REMARK 923 INTER-LIGAND FREE ENERGY PREDICTED BY IDOCK:   -4.14 KCAL/MOL
REMARK 924 INTRA-LIGAND FREE ENERGY PREDICTED BY IDOCK:   -0.63 KCAL/MOL
REMARK 927      BINDING AFFINITY PREDICTED BY RF-SCORE:    0.00 PKD
ROOT
HETATM    1  C   UNL     1      -7.271   8.370  74.000  1.00  0.00    -0.173 C  
HETATM    2  C   UNL     1      -7.229   6.916  73.717  1.00  0.00    -0.080 A  
HETATM    3  N   UNL     1      -6.219   6.134  74.037  1.00  0.00    -0.064 NA 
HETATM    4  N   UNL     1      -6.425   4.911  73.464  1.00  0.00    -0.058 NA 
HETATM    5  C   UNL     1      -7.558   4.963  72.803  1.00  0.00    -0.092 A  
HETATM    6  C   UNL     1      -8.202   3.864  72.051  1.00  0.00    -0.084 C  
HETATM    7  N   UNL     1      -8.407   4.262  70.669  1.00  0.00    -0.070 NA 
HETATM    8  C   UNL     1      -9.245   5.188  70.355  1.00  0.00    -0.148 C  
HETATM    9  H   UNL     1      -7.876   3.799  69.933  1.00  0.00     0.000 HD 
HETATM   10  C   UNL     1     -11.357   6.315  71.032  1.00  0.00    -0.378 A  
HETATM   11  C   UNL     1     -10.025   5.999  71.360  1.00  0.00    -0.223 A  
HETATM   12  C   UNL     1      -9.454   6.553  72.529  1.00  0.00    -0.144 A  
HETATM   13 CL   UNL     1     -13.676   7.659  71.331  1.00  0.00    -0.410 Cl 
HETATM   14  N   UNL     1      -8.151   6.194  72.972  1.00  0.00    -0.112 NA 
HETATM   15  C   UNL     1     -12.085   7.215  71.806  1.00  0.00    -0.328 A  
HETATM   16  C   UNL     1     -10.220   7.431  73.317  1.00  0.00    -0.386 A  
HETATM   17  C   UNL     1     -11.522   7.775  72.944  1.00  0.00    -0.359 A  
ENDROOT
BRANCH   8  18
HETATM   18  C   UNL     1      -9.433   5.489  68.887  1.00  0.00    -0.165 A  
HETATM   19  C   UNL     1     -10.125   4.689  66.686  1.00  0.00    -0.263 A  
HETATM   20  C   UNL     1      -9.186   6.894  66.917  1.00  0.00    -0.167 A  
HETATM   21  C   UNL     1     -10.013   4.501  68.065  1.00  0.00    -0.102 A  
HETATM   22  C   UNL     1      -9.712   5.885  66.111  1.00  0.00    -0.084 A  
HETATM   23  C   UNL     1      -9.034   6.703  68.298  1.00  0.00    -0.122 A  
HETATM   24 CL   UNL     1      -8.274   7.998  69.157  1.00  0.00    -0.128 Cl 
ENDBRANCH   8  18
TORSDOF 1
ENDMDL
MODEL      109
REMARK 921   NORMALIZED FREE ENERGY PREDICTED BY IDOCK:   -3.86 KCAL/MOL
REMARK 922        TOTAL FREE ENERGY PREDICTED BY IDOCK:   -4.73 KCAL/MOL
REMARK 923 INTER-LIGAND FREE ENERGY PREDICTED BY IDOCK:   -4.09 KCAL/MOL
REMARK 924 INTRA-LIGAND FREE ENERGY PREDICTED BY IDOCK:   -0.64 KCAL/MOL
REMARK 927      BINDING AFFINITY PREDICTED BY RF-SCORE:    0.00 PKD
ROOT
HETATM    1  C   UNL     1     -10.450   4.570  65.562  1.00  0.00    -0.241 C  
HETATM    2  C   UNL     1      -9.121   4.639  66.214  1.00  0.00    -0.122 A  
HETATM    3  N   UNL     1      -8.179   3.733  66.058  1.00  0.00    -0.100 NA 
HETATM    4  N   UNL     1      -7.172   4.003  66.941  1.00  0.00    -0.067 NA 
HETATM    5  C   UNL     1      -7.514   5.072  67.624  1.00  0.00    -0.079 A  
HETATM    6  C   UNL     1      -6.720   5.752  68.670  1.00  0.00    -0.060 C  
HETATM    7  N   UNL     1      -7.478   5.811  69.907  1.00  0.00    -0.077 NA 
HETATM    8  C   UNL     1      -8.538   6.534  70.011  1.00  0.00    -0.140 C  
HETATM    9  H   UNL     1      -7.163   5.268  70.711  1.00  0.00     0.000 HD 
HETATM   10  C   UNL     1      -9.676   8.581  69.174  1.00  0.00    -0.170 A  
HETATM   11  C   UNL     1      -9.145   7.313  68.871  1.00  0.00    -0.132 A  
HETATM   12  C   UNL     1      -9.317   6.788  67.570  1.00  0.00    -0.124 A  
HETATM   13 CL   UNL     1     -11.142  10.784  68.654  1.00  0.00    -0.284 Cl 
HETATM   14  N   UNL     1      -8.718   5.562  67.169  1.00  0.00    -0.109 NA 
HETATM   15  C   UNL     1     -10.423   9.282  68.230  1.00  0.00    -0.215 A  
HETATM   16  C   UNL     1     -10.042   7.530  66.620  1.00  0.00    -0.263 A  
HETATM   17  C   UNL     1     -10.609   8.762  66.957  1.00  0.00    -0.283 A  
ENDROOT
BRANCH   8  18
HETATM   18  C   UNL     1      -9.223   6.578  71.356  1.00  0.00    -0.148 A  
HETATM   19  C   UNL     1     -11.107   5.870  72.740  1.00  0.00    -0.321 A  
HETATM   20  C   UNL     1      -9.486   7.415  73.625  1.00  0.00    -0.321 A  
HETATM   21  C   UNL     1     -10.381   5.798  71.549  1.00  0.00    -0.274 A  
HETATM   22  C   UNL     1     -10.660   6.678  73.778  1.00  0.00    -0.302 A  
HETATM   23  C   UNL     1      -8.769   7.380  72.420  1.00  0.00    -0.120 A  
HETATM   24 CL   UNL     1      -7.391   8.421  72.334  1.00  0.00    -0.138 Cl 
ENDBRANCH   8  18
TORSDOF 1
ENDMDL
MODEL      110
REMARK 921   NORMALIZED FREE ENERGY PREDICTED BY IDOCK:   -3.86 KCAL/MOL
REMARK 922        TOTAL FREE ENERGY PREDICTED BY IDOCK:   -4.72 KCAL/MOL
REMARK 923 INTER-LIGAND FREE ENERGY PREDICTED BY IDOCK:   -4.08 KCAL/MOL
REMARK 924 INTRA-LIGAND FREE ENERGY PREDICTED BY IDOCK:   -0.64 KCAL/MOL
REMARK 927      BINDING AFFINITY PREDICTED BY RF-SCORE:    0.00 PKD
ROOT
HETATM    1  C   UNL     1      -9.934   4.762  65.672  1.00  0.00    -0.195 C  
HETATM    2  C   UNL     1      -8.607   5.035  66.273  1.00  0.00    -0.113 A  
HETATM    3  N   UNL     1      -7.549   4.272  66.095  1.00  0.00    -0.088 NA 
HETATM    4  N   UNL     1      -6.563   4.704  66.935  1.00  0.00    -0.049 NA 
HETATM    5  C   UNL     1      -7.032   5.726  67.614  1.00  0.00    -0.066 A  
HETATM    6  C   UNL     1      -6.309   6.535  68.619  1.00  0.00    -0.038 C  
HETATM    7  N   UNL     1      -7.023   6.510  69.883  1.00  0.00    -0.064 NA 
HETATM    8  C   UNL     1      -8.174   7.074  70.015  1.00  0.00    -0.133 C  
HETATM    9  H   UNL     1      -6.605   6.035  70.682  1.00  0.00     0.000 HD 
HETATM   10  C   UNL     1      -9.626   8.917  69.191  1.00  0.00    -0.162 A  
HETATM   11  C   UNL     1      -8.927   7.733  68.887  1.00  0.00    -0.141 A  
HETATM   12  C   UNL     1      -9.066   7.161  67.602  1.00  0.00    -0.127 A  
HETATM   13 CL   UNL     1     -11.414  10.873  68.692  1.00  0.00    -0.354 Cl 
HETATM   14  N   UNL     1      -8.309   6.027  67.198  1.00  0.00    -0.106 NA 
HETATM   15  C   UNL     1     -10.499   9.482  68.265  1.00  0.00    -0.223 A  
HETATM   16  C   UNL     1      -9.925   7.770  66.669  1.00  0.00    -0.299 A  
HETATM   17  C   UNL     1     -10.652   8.914  67.008  1.00  0.00    -0.279 A  
ENDROOT
BRANCH   8  18
HETATM   18  C   UNL     1      -8.809   7.046  71.385  1.00  0.00    -0.129 A  
HETATM   19  C   UNL     1      -8.724   7.764  73.718  1.00  0.00    -0.318 A  
HETATM   20  C   UNL     1     -10.442   6.238  72.997  1.00  0.00    -0.249 A  
HETATM   21  C   UNL     1      -8.235   7.823  72.411  1.00  0.00    -0.155 A  
HETATM   22  C   UNL     1      -9.827   6.972  74.011  1.00  0.00    -0.345 A  
HETATM   23  C   UNL     1      -9.937   6.260  71.689  1.00  0.00    -0.179 A  
HETATM   24 CL   UNL     1     -10.734   5.224  70.557  1.00  0.00    -0.270 Cl 
ENDBRANCH   8  18
TORSDOF 1
ENDMDL
MODEL      111
REMARK 921   NORMALIZED FREE ENERGY PREDICTED BY IDOCK:   -3.85 KCAL/MOL
REMARK 922        TOTAL FREE ENERGY PREDICTED BY IDOCK:   -4.72 KCAL/MOL
REMARK 923 INTER-LIGAND FREE ENERGY PREDICTED BY IDOCK:   -4.08 KCAL/MOL
REMARK 924 INTRA-LIGAND FREE ENERGY PREDICTED BY IDOCK:   -0.64 KCAL/MOL
REMARK 927      BINDING AFFINITY PREDICTED BY RF-SCORE:    0.00 PKD
ROOT
HETATM    1  C   UNL     1      -7.353  13.505  67.697  1.00  0.00    -0.180 C  
HETATM    2  C   UNL     1      -8.767  13.090  67.857  1.00  0.00    -0.189 A  
HETATM    3  N   UNL     1      -9.723  13.890  68.278  1.00  0.00    -0.219 NA 
HETATM    4  N   UNL     1     -10.847  13.142  68.489  1.00  0.00    -0.255 NA 
HETATM    5  C   UNL     1     -10.560  11.896  68.191  1.00  0.00    -0.208 A  
HETATM    6  C   UNL     1     -11.478  10.736  68.237  1.00  0.00    -0.280 C  
HETATM    7  N   UNL     1     -10.940   9.713  69.118  1.00  0.00    -0.365 NA 
HETATM    8  C   UNL     1      -9.869   9.064  68.816  1.00  0.00    -0.172 C  
HETATM    9  H   UNL     1     -11.420   9.506  69.992  1.00  0.00     0.000 HD 
HETATM   10  C   UNL     1      -8.479   8.224  66.933  1.00  0.00    -0.118 A  
HETATM   11  C   UNL     1      -9.029   9.339  67.594  1.00  0.00    -0.126 A  
HETATM   12  C   UNL     1      -8.671  10.638  67.169  1.00  0.00    -0.130 A  
HETATM   13 CL   UNL     1      -6.811   7.017  65.191  1.00  0.00    -0.050 Cl 
HETATM   14  N   UNL     1      -9.269  11.803  67.725  1.00  0.00    -0.175 NA 
HETATM   15  C   UNL     1      -7.540   8.393  65.918  1.00  0.00    -0.082 A  
HETATM   16  C   UNL     1      -7.749  10.786  66.117  1.00  0.00    -0.149 A  
HETATM   17  C   UNL     1      -7.172   9.668  65.509  1.00  0.00    -0.098 A  
ENDROOT
BRANCH   8  18
HETATM   18  C   UNL     1      -9.423   7.978  69.766  1.00  0.00    -0.159 A  
HETATM   19  C   UNL     1      -7.864   7.268  71.508  1.00  0.00    -0.092 A  
HETATM   20  C   UNL     1      -9.486   5.711  70.645  1.00  0.00    -0.203 A  
HETATM   21  C   UNL     1      -8.379   8.261  70.671  1.00  0.00    -0.121 A  
HETATM   22  C   UNL     1      -8.417   5.993  71.495  1.00  0.00    -0.128 A  
HETATM   23  C   UNL     1      -9.987   6.689  69.774  1.00  0.00    -0.173 A  
HETATM   24 CL   UNL     1     -11.245   6.171  68.706  1.00  0.00    -0.406 Cl 
ENDBRANCH   8  18
TORSDOF 1
ENDMDL
MODEL      112
REMARK 921   NORMALIZED FREE ENERGY PREDICTED BY IDOCK:   -3.84 KCAL/MOL
REMARK 922        TOTAL FREE ENERGY PREDICTED BY IDOCK:   -4.71 KCAL/MOL
REMARK 923 INTER-LIGAND FREE ENERGY PREDICTED BY IDOCK:   -4.50 KCAL/MOL
REMARK 924 INTRA-LIGAND FREE ENERGY PREDICTED BY IDOCK:   -0.21 KCAL/MOL
REMARK 927      BINDING AFFINITY PREDICTED BY RF-SCORE:    0.00 PKD
ROOT
HETATM    1  C   UNL     1      -7.993   7.067  64.795  1.00  0.00    -0.122 C  
HETATM    2  C   UNL     1      -8.607   6.018  65.643  1.00  0.00    -0.153 A  
HETATM    3  N   UNL     1      -9.255   4.975  65.167  1.00  0.00    -0.133 NA 
HETATM    4  N   UNL     1      -9.848   4.326  66.212  1.00  0.00    -0.216 NA 
HETATM    5  C   UNL     1      -9.553   4.981  67.311  1.00  0.00    -0.148 A  
HETATM    6  C   UNL     1      -9.952   4.629  68.692  1.00  0.00    -0.070 C  
HETATM    7  N   UNL     1     -10.683   5.731  69.293  1.00  0.00    -0.311 NA 
HETATM    8  C   UNL     1     -10.105   6.848  69.569  1.00  0.00    -0.173 C  
HETATM    9  H   UNL     1     -11.674   5.617  69.501  1.00  0.00     0.000 HD 
HETATM   10  C   UNL     1      -7.938   7.904  70.183  1.00  0.00    -0.107 A  
HETATM   11  C   UNL     1      -8.668   7.163  69.234  1.00  0.00    -0.136 A  
HETATM   12  C   UNL     1      -8.074   6.867  67.986  1.00  0.00    -0.115 A  
HETATM   13 CL   UNL     1      -5.842   9.384  71.012  1.00  0.00    -0.058 Cl 
HETATM   14  N   UNL     1      -8.716   6.036  67.026  1.00  0.00    -0.110 NA 
HETATM   15  C   UNL     1      -6.674   8.401  69.874  1.00  0.00    -0.042 A  
HETATM   16  C   UNL     1      -6.781   7.347  67.710  1.00  0.00    -0.062 A  
HETATM   17  C   UNL     1      -6.094   8.128  68.643  1.00  0.00    -0.044 A  
ENDROOT
BRANCH   8  18
HETATM   18  C   UNL     1     -10.934   7.911  70.249  1.00  0.00    -0.249 A  
HETATM   19  C   UNL     1     -11.572  10.266  70.378  1.00  0.00    -0.411 A  
HETATM   20  C   UNL     1     -12.426   8.703  72.000  1.00  0.00    -0.433 A  
HETATM   21  C   UNL     1     -10.898   9.225  69.736  1.00  0.00    -0.239 A  
HETATM   22  C   UNL     1     -12.335  10.006  71.510  1.00  0.00    -0.513 A  
HETATM   23  C   UNL     1     -11.724   7.656  71.385  1.00  0.00    -0.283 A  
HETATM   24 CL   UNL     1     -11.847   6.114  72.157  1.00  0.00    -0.368 Cl 
ENDBRANCH   8  18
TORSDOF 1
ENDMDL
MODEL      113
REMARK 921   NORMALIZED FREE ENERGY PREDICTED BY IDOCK:   -3.80 KCAL/MOL
REMARK 922        TOTAL FREE ENERGY PREDICTED BY IDOCK:   -4.67 KCAL/MOL
REMARK 923 INTER-LIGAND FREE ENERGY PREDICTED BY IDOCK:   -4.03 KCAL/MOL
REMARK 924 INTRA-LIGAND FREE ENERGY PREDICTED BY IDOCK:   -0.64 KCAL/MOL
REMARK 927      BINDING AFFINITY PREDICTED BY RF-SCORE:    0.00 PKD
ROOT
HETATM    1  C   UNL     1      -9.248   6.160  71.104  1.00  0.00    -0.161 C  
HETATM    2  C   UNL     1      -8.337   7.311  71.308  1.00  0.00    -0.111 A  
HETATM    3  N   UNL     1      -7.932   7.727  72.490  1.00  0.00    -0.105 NA 
HETATM    4  N   UNL     1      -7.268   8.909  72.324  1.00  0.00    -0.332 NA 
HETATM    5  C   UNL     1      -7.276   9.198  71.043  1.00  0.00    -0.100 A  
HETATM    6  C   UNL     1      -6.649  10.368  70.391  1.00  0.00    -0.119 C  
HETATM    7  N   UNL     1      -7.651  11.121  69.656  1.00  0.00    -0.365 NA 
HETATM    8  C   UNL     1      -8.221  10.635  68.608  1.00  0.00    -0.135 C  
HETATM    9  H   UNL     1      -7.908  12.054  69.977  1.00  0.00     0.000 HD 
HETATM   10  C   UNL     1      -7.931   9.079  66.690  1.00  0.00    -0.100 A  
HETATM   11  C   UNL     1      -7.985   9.239  68.088  1.00  0.00    -0.099 A  
HETATM   12  C   UNL     1      -7.943   8.093  68.914  1.00  0.00    -0.114 A  
HETATM   13 CL   UNL     1      -7.942   7.635  64.412  1.00  0.00    -0.138 Cl 
HETATM   14  N   UNL     1      -7.889   8.192  70.332  1.00  0.00    -0.087 NA 
HETATM   15  C   UNL     1      -7.910   7.807  66.122  1.00  0.00    -0.095 A  
HETATM   16  C   UNL     1      -7.884   6.820  68.320  1.00  0.00    -0.110 A  
HETATM   17  C   UNL     1      -7.887   6.679  66.930  1.00  0.00    -0.108 A  
ENDROOT
BRANCH   8  18
HETATM   18  C   UNL     1      -9.205  11.518  67.878  1.00  0.00    -0.168 A  
HETATM   19  C   UNL     1      -9.574  13.499  66.497  1.00  0.00    -0.284 A  
HETATM   20  C   UNL     1     -11.457  12.219  67.283  1.00  0.00    -0.426 A  
HETATM   21  C   UNL     1      -8.708  12.596  67.117  1.00  0.00    -0.201 A  
HETATM   22  C   UNL     1     -10.949  13.311  66.580  1.00  0.00    -0.297 A  
HETATM   23  C   UNL     1     -10.598  11.327  67.941  1.00  0.00    -0.194 A  
HETATM   24 CL   UNL     1     -11.367  10.079  68.858  1.00  0.00    -0.176 Cl 
ENDBRANCH   8  18
TORSDOF 1
ENDMDL
MODEL      114
REMARK 921   NORMALIZED FREE ENERGY PREDICTED BY IDOCK:   -3.77 KCAL/MOL
REMARK 922        TOTAL FREE ENERGY PREDICTED BY IDOCK:   -4.63 KCAL/MOL
REMARK 923 INTER-LIGAND FREE ENERGY PREDICTED BY IDOCK:   -4.58 KCAL/MOL
REMARK 924 INTRA-LIGAND FREE ENERGY PREDICTED BY IDOCK:   -0.05 KCAL/MOL
REMARK 927      BINDING AFFINITY PREDICTED BY RF-SCORE:    0.00 PKD
ROOT
HETATM    1  C   UNL     1      -9.495   9.993  64.644  1.00  0.00    -0.367 C  
HETATM    2  C   UNL     1      -8.604   9.735  65.800  1.00  0.00    -0.135 A  
HETATM    3  N   UNL     1      -7.509   9.007  65.735  1.00  0.00    -0.089 NA 
HETATM    4  N   UNL     1      -7.044   8.818  67.005  1.00  0.00    -0.078 NA 
HETATM    5  C   UNL     1      -7.861   9.434  67.828  1.00  0.00    -0.095 A  
HETATM    6  C   UNL     1      -7.739   9.528  69.299  1.00  0.00    -0.086 C  
HETATM    7  N   UNL     1      -8.934   8.995  69.930  1.00  0.00    -0.153 NA 
HETATM    8  C   UNL     1     -10.072   9.588  69.822  1.00  0.00    -0.216 C  
HETATM    9  H   UNL     1      -8.870   8.133  70.471  1.00  0.00     0.000 HD 
HETATM   10  C   UNL     1     -11.179  11.793  69.508  1.00  0.00    -0.265 A  
HETATM   11  C   UNL     1     -10.307  10.819  68.983  1.00  0.00    -0.235 A  
HETATM   12  C   UNL     1      -9.807  10.979  67.671  1.00  0.00    -0.172 A  
HETATM   13 CL   UNL     1     -12.740  13.986  69.354  1.00  0.00     0.091 Cl 
HETATM   14  N   UNL     1      -8.844  10.088  67.121  1.00  0.00    -0.135 NA 
HETATM   15  C   UNL     1     -11.601  12.864  68.724  1.00  0.00    -0.311 A  
HETATM   16  C   UNL     1     -10.217  12.088  66.910  1.00  0.00    -0.230 A  
HETATM   17  C   UNL     1     -11.126  13.014  67.429  1.00  0.00    -0.302 A  
ENDROOT
BRANCH   8  18
HETATM   18  C   UNL     1     -11.243   8.989  70.564  1.00  0.00    -0.301 A  
HETATM   19  C   UNL     1     -12.820   9.164  72.421  1.00  0.00    -0.438 A  
HETATM   20  C   UNL     1     -12.841   7.211  71.012  1.00  0.00    -0.268 A  
HETATM   21  C   UNL     1     -11.798   9.710  71.641  1.00  0.00    -0.457 A  
HETATM   22  C   UNL     1     -13.342   7.915  72.107  1.00  0.00    -0.165 A  
HETATM   23  C   UNL     1     -11.790   7.733  70.244  1.00  0.00     0.132 A  
HETATM   24 CL   UNL     1     -11.201   6.709  68.981  1.00  0.00    -0.307 Cl 
ENDBRANCH   8  18
TORSDOF 1
ENDMDL
MODEL      115
REMARK 921   NORMALIZED FREE ENERGY PREDICTED BY IDOCK:   -3.74 KCAL/MOL
REMARK 922        TOTAL FREE ENERGY PREDICTED BY IDOCK:   -4.61 KCAL/MOL
REMARK 923 INTER-LIGAND FREE ENERGY PREDICTED BY IDOCK:   -3.97 KCAL/MOL
REMARK 924 INTRA-LIGAND FREE ENERGY PREDICTED BY IDOCK:   -0.64 KCAL/MOL
REMARK 927      BINDING AFFINITY PREDICTED BY RF-SCORE:    0.00 PKD
ROOT
HETATM    1  C   UNL     1      -7.234   4.190  67.978  1.00  0.00    -0.060 C  
HETATM    2  C   UNL     1      -8.538   4.628  67.427  1.00  0.00    -0.104 A  
HETATM    3  N   UNL     1      -9.054   4.169  66.306  1.00  0.00    -0.127 NA 
HETATM    4  N   UNL     1     -10.155   4.918  66.002  1.00  0.00    -0.225 NA 
HETATM    5  C   UNL     1     -10.296   5.824  66.942  1.00  0.00    -0.251 A  
HETATM    6  C   UNL     1     -11.370   6.836  67.048  1.00  0.00     0.083 C  
HETATM    7  N   UNL     1     -10.791   8.168  67.094  1.00  0.00    -0.465 NA 
HETATM    8  C   UNL     1     -10.093   8.562  68.102  1.00  0.00    -0.200 C  
HETATM    9  H   UNL     1     -10.941   8.804  66.311  1.00  0.00     0.000 HD 
HETATM   10  C   UNL     1      -9.747   8.289  70.550  1.00  0.00    -0.185 A  
HETATM   11  C   UNL     1      -9.735   7.687  69.277  1.00  0.00    -0.164 A  
HETATM   12  C   UNL     1      -9.275   6.357  69.149  1.00  0.00    -0.133 A  
HETATM   13 CL   UNL     1      -9.183   8.403  73.185  1.00  0.00    -0.286 Cl 
HETATM   14  N   UNL     1      -9.334   5.657  67.912  1.00  0.00    -0.106 NA 
HETATM   15  C   UNL     1      -9.248   7.613  71.660  1.00  0.00    -0.134 A  
HETATM   16  C   UNL     1      -8.810   5.679  70.290  1.00  0.00    -0.146 A  
HETATM   17  C   UNL     1      -8.778   6.313  71.535  1.00  0.00    -0.134 A  
ENDROOT
BRANCH   8  18
HETATM   18  C   UNL     1      -9.585   9.984  68.083  1.00  0.00    -0.152 A  
HETATM   19  C   UNL     1      -7.695  11.500  67.769  1.00  0.00    -0.124 A  
HETATM   20  C   UNL     1      -9.832  12.376  68.455  1.00  0.00    -0.198 A  
HETATM   21  C   UNL     1      -8.244  10.217  67.715  1.00  0.00    -0.110 A  
HETATM   22  C   UNL     1      -8.489  12.579  68.139  1.00  0.00    -0.180 A  
HETATM   23  C   UNL     1     -10.384  11.087  68.440  1.00  0.00    -0.183 A  
HETATM   24 CL   UNL     1     -12.032  10.969  68.951  1.00  0.00    -0.382 Cl 
ENDBRANCH   8  18
TORSDOF 1
ENDMDL
MODEL      116
REMARK 921   NORMALIZED FREE ENERGY PREDICTED BY IDOCK:   -3.74 KCAL/MOL
REMARK 922        TOTAL FREE ENERGY PREDICTED BY IDOCK:   -4.60 KCAL/MOL
REMARK 923 INTER-LIGAND FREE ENERGY PREDICTED BY IDOCK:   -4.34 KCAL/MOL
REMARK 924 INTRA-LIGAND FREE ENERGY PREDICTED BY IDOCK:   -0.26 KCAL/MOL
REMARK 927      BINDING AFFINITY PREDICTED BY RF-SCORE:    0.00 PKD
ROOT
HETATM    1  C   UNL     1     -12.194  10.970  70.361  1.00  0.00    -0.461 C  
HETATM    2  C   UNL     1     -11.250  10.705  69.250  1.00  0.00    -0.273 A  
HETATM    3  N   UNL     1     -10.907   9.498  68.850  1.00  0.00    -0.190 NA 
HETATM    4  N   UNL     1      -9.888   9.619  67.949  1.00  0.00    -0.149 NA 
HETATM    5  C   UNL     1      -9.624  10.898  67.810  1.00  0.00    -0.164 A  
HETATM    6  C   UNL     1      -8.617  11.507  66.914  1.00  0.00    -0.163 C  
HETATM    7  N   UNL     1      -7.688  12.312  67.688  1.00  0.00    -0.133 NA 
HETATM    8  C   UNL     1      -8.064  13.396  68.272  1.00  0.00    -0.152 C  
HETATM    9  H   UNL     1      -6.717  12.012  67.770  1.00  0.00     0.000 HD 
HETATM   10  C   UNL     1      -9.678  15.286  68.176  1.00  0.00    -0.212 A  
HETATM   11  C   UNL     1      -9.487  13.896  68.291  1.00  0.00    -0.217 A  
HETATM   12  C   UNL     1     -10.604  13.066  68.542  1.00  0.00    -0.258 A  
HETATM   13 CL   UNL     1     -11.126  17.556  68.326  1.00  0.00    -0.102 Cl 
HETATM   14  N   UNL     1     -10.496  11.648  68.566  1.00  0.00    -0.211 NA 
HETATM   15  C   UNL     1     -10.936  15.849  68.376  1.00  0.00    -0.331 A  
HETATM   16  C   UNL     1     -11.872  13.652  68.703  1.00  0.00    -0.409 A  
HETATM   17  C   UNL     1     -12.032  15.039  68.640  1.00  0.00    -0.278 A  
ENDROOT
BRANCH   8  18
HETATM   18  C   UNL     1      -7.011  14.195  69.002  1.00  0.00    -0.112 A  
HETATM   19  C   UNL     1      -5.737  14.544  71.056  1.00  0.00    -0.164 A  
HETATM   20  C   UNL     1      -5.473  16.068  69.210  1.00  0.00    -0.113 A  
HETATM   21  C   UNL     1      -6.636  13.790  70.300  1.00  0.00     0.137 A  
HETATM   22  C   UNL     1      -5.155  15.683  70.512  1.00  0.00    -0.144 A  
HETATM   23  C   UNL     1      -6.403  15.340  68.454  1.00  0.00    -0.107 A  
HETATM   24 CL   UNL     1      -6.778  15.989  66.896  1.00  0.00    -0.133 Cl 
ENDBRANCH   8  18
TORSDOF 1
ENDMDL
MODEL      117
REMARK 921   NORMALIZED FREE ENERGY PREDICTED BY IDOCK:   -3.66 KCAL/MOL
REMARK 922        TOTAL FREE ENERGY PREDICTED BY IDOCK:   -4.52 KCAL/MOL
REMARK 923 INTER-LIGAND FREE ENERGY PREDICTED BY IDOCK:   -3.90 KCAL/MOL
REMARK 924 INTRA-LIGAND FREE ENERGY PREDICTED BY IDOCK:   -0.62 KCAL/MOL
REMARK 927      BINDING AFFINITY PREDICTED BY RF-SCORE:    0.00 PKD
ROOT
HETATM    1  C   UNL     1     -11.831   8.378  72.164  1.00  0.00    -0.441 C  
HETATM    2  C   UNL     1     -10.354   8.295  72.075  1.00  0.00    -0.279 A  
HETATM    3  N   UNL     1      -9.569   9.337  71.898  1.00  0.00    -0.183 NA 
HETATM    4  N   UNL     1      -8.300   8.885  71.671  1.00  0.00    -0.336 NA 
HETATM    5  C   UNL     1      -8.328   7.573  71.714  1.00  0.00    -0.107 A  
HETATM    6  C   UNL     1      -7.181   6.653  71.556  1.00  0.00    -0.082 C  
HETATM    7  N   UNL     1      -7.431   5.733  70.460  1.00  0.00    -0.083 NA 
HETATM    8  C   UNL     1      -8.352   4.836  70.534  1.00  0.00    -0.095 C  
HETATM    9  H   UNL     1      -6.866   5.799  69.614  1.00  0.00     0.000 HD 
HETATM   10  C   UNL     1      -9.638   3.386  72.093  1.00  0.00    -0.206 A  
HETATM   11  C   UNL     1      -9.304   4.694  71.696  1.00  0.00    -0.195 A  
HETATM   12  C   UNL     1      -9.959   5.788  72.307  1.00  0.00    -0.170 A  
HETATM   13 CL   UNL     1     -11.108   1.555  73.420  1.00  0.00    -0.237 Cl 
HETATM   14  N   UNL     1      -9.594   7.134  72.026  1.00  0.00    -0.144 NA 
HETATM   15  C   UNL     1     -10.651   3.163  73.023  1.00  0.00    -0.148 A  
HETATM   16  C   UNL     1     -10.952   5.541  73.272  1.00  0.00    -0.339 A  
HETATM   17  C   UNL     1     -11.309   4.234  73.612  1.00  0.00    -0.278 A  
ENDROOT
BRANCH   8  18
HETATM   18  C   UNL     1      -8.496   3.887  69.368  1.00  0.00    -0.093 A  
HETATM   19  C   UNL     1      -9.709   3.277  67.337  1.00  0.00     0.035 A  
HETATM   20  C   UNL     1      -7.942   1.857  68.148  1.00  0.00    -0.062 A  
HETATM   21  C   UNL     1      -9.469   4.167  68.387  1.00  0.00    -0.212 A  
HETATM   22  C   UNL     1      -8.945   2.122  67.218  1.00  0.00    -0.170 A  
HETATM   23  C   UNL     1      -7.717   2.723  69.227  1.00  0.00    -0.046 A  
HETATM   24 CL   UNL     1      -6.511   2.218  70.359  1.00  0.00    -0.027 Cl 
ENDBRANCH   8  18
TORSDOF 1
ENDMDL
MODEL      118
REMARK 921   NORMALIZED FREE ENERGY PREDICTED BY IDOCK:   -3.63 KCAL/MOL
REMARK 922        TOTAL FREE ENERGY PREDICTED BY IDOCK:   -4.48 KCAL/MOL
REMARK 923 INTER-LIGAND FREE ENERGY PREDICTED BY IDOCK:   -3.89 KCAL/MOL
REMARK 924 INTRA-LIGAND FREE ENERGY PREDICTED BY IDOCK:   -0.59 KCAL/MOL
REMARK 927      BINDING AFFINITY PREDICTED BY RF-SCORE:    0.00 PKD
ROOT
HETATM    1  C   UNL     1      -7.528   3.349  66.933  1.00  0.00    -0.075 C  
HETATM    2  C   UNL     1      -6.839   4.124  67.991  1.00  0.00    -0.048 A  
HETATM    3  N   UNL     1      -5.974   3.604  68.837  1.00  0.00    -0.023 NA 
HETATM    4  N   UNL     1      -5.685   4.543  69.786  1.00  0.00    -0.016 NA 
HETATM    5  C   UNL     1      -6.376   5.624  69.505  1.00  0.00    -0.037 A  
HETATM    6  C   UNL     1      -6.358   6.907  70.240  1.00  0.00    -0.039 C  
HETATM    7  N   UNL     1      -7.701   7.243  70.682  1.00  0.00    -0.091 NA 
HETATM    8  C   UNL     1      -8.628   7.548  69.841  1.00  0.00    -0.139 C  
HETATM    9  H   UNL     1      -7.913   7.238  71.679  1.00  0.00     0.000 HD 
HETATM   10  C   UNL     1      -9.080   8.533  67.603  1.00  0.00    -0.144 A  
HETATM   11  C   UNL     1      -8.456   7.511  68.343  1.00  0.00    -0.125 A  
HETATM   12  C   UNL     1      -7.822   6.451  67.656  1.00  0.00    -0.106 A  
HETATM   13 CL   UNL     1      -9.985   9.679  65.335  1.00  0.00    -0.336 Cl 
HETATM   14  N   UNL     1      -7.087   5.444  68.341  1.00  0.00    -0.061 NA 
HETATM   15  C   UNL     1      -9.135   8.470  66.213  1.00  0.00    -0.185 A  
HETATM   16  C   UNL     1      -7.858   6.426  66.250  1.00  0.00    -0.101 A  
HETATM   17  C   UNL     1      -8.529   7.421  65.534  1.00  0.00    -0.126 A  
ENDROOT
BRANCH   8  18
HETATM   18  C   UNL     1      -9.974   7.942  70.402  1.00  0.00    -0.192 A  
HETATM   19  C   UNL     1     -11.344   9.654  71.478  1.00  0.00    -0.420 A  
HETATM   20  C   UNL     1     -12.258   7.461  71.086  1.00  0.00    -0.357 A  
HETATM   21  C   UNL     1     -10.151   9.261  70.866  1.00  0.00    -0.373 A  
HETATM   22  C   UNL     1     -12.397   8.754  71.588  1.00  0.00    -0.394 A  
HETATM   23  C   UNL     1     -11.053   7.044  70.503  1.00  0.00    -0.280 A  
HETATM   24 CL   UNL     1     -10.986   5.386  70.016  1.00  0.00    -0.226 Cl 
ENDBRANCH   8  18
TORSDOF 1
ENDMDL
MODEL      119
REMARK 921   NORMALIZED FREE ENERGY PREDICTED BY IDOCK:   -3.58 KCAL/MOL
REMARK 922        TOTAL FREE ENERGY PREDICTED BY IDOCK:   -4.44 KCAL/MOL
REMARK 923 INTER-LIGAND FREE ENERGY PREDICTED BY IDOCK:   -3.97 KCAL/MOL
REMARK 924 INTRA-LIGAND FREE ENERGY PREDICTED BY IDOCK:   -0.47 KCAL/MOL
REMARK 927      BINDING AFFINITY PREDICTED BY RF-SCORE:    0.00 PKD
ROOT
HETATM    1  C   UNL     1      -5.154   7.315  69.717  1.00  0.00    -0.015 C  
HETATM    2  C   UNL     1      -5.735   8.662  69.506  1.00  0.00    -0.030 A  
HETATM    3  N   UNL     1      -5.128   9.784  69.834  1.00  0.00    -0.033 NA 
HETATM    4  N   UNL     1      -6.014  10.812  69.682  1.00  0.00    -0.050 NA 
HETATM    5  C   UNL     1      -7.150  10.304  69.261  1.00  0.00    -0.083 A  
HETATM    6  C   UNL     1      -8.387  11.043  68.929  1.00  0.00    -0.123 C  
HETATM    7  N   UNL     1      -9.491  10.548  69.733  1.00  0.00    -0.416 NA 
HETATM    8  C   UNL     1      -9.961   9.360  69.569  1.00  0.00    -0.191 C  
HETATM    9  H   UNL     1      -9.902  11.154  70.442  1.00  0.00     0.000 HD 
HETATM   10  C   UNL     1     -10.297   7.532  67.917  1.00  0.00    -0.266 A  
HETATM   11  C   UNL     1      -9.383   8.347  68.612  1.00  0.00    -0.143 A  
HETATM   12  C   UNL     1      -7.998   8.097  68.480  1.00  0.00    -0.126 A  
HETATM   13 CL   UNL     1     -10.989   5.409  66.403  1.00  0.00    -0.224 Cl 
HETATM   14  N   UNL     1      -7.022   8.946  69.071  1.00  0.00    -0.063 NA 
HETATM   15  C   UNL     1      -9.850   6.448  67.164  1.00  0.00    -0.146 A  
HETATM   16  C   UNL     1      -7.568   7.021  67.684  1.00  0.00    -0.110 A  
HETATM   17  C   UNL     1      -8.492   6.189  67.047  1.00  0.00    -0.105 A  
ENDROOT
BRANCH   8  18
HETATM   18  C   UNL     1     -11.148   8.959  70.411  1.00  0.00    -0.270 A  
HETATM   19  C   UNL     1     -13.391   9.502  71.212  1.00  0.00    -0.385 A  
HETATM   20  C   UNL     1     -12.267   7.538  72.037  1.00  0.00    -0.314 A  
HETATM   21  C   UNL     1     -12.299   9.773  70.385  1.00  0.00    -0.079 A  
HETATM   22  C   UNL     1     -13.375   8.385  72.039  1.00  0.00    -0.367 A  
HETATM   23  C   UNL     1     -11.150   7.821  71.238  1.00  0.00    -0.246 A  
HETATM   24 CL   UNL     1      -9.809   6.743  71.413  1.00  0.00    -0.185 Cl 
ENDBRANCH   8  18
TORSDOF 1
ENDMDL
MODEL      120
REMARK 921   NORMALIZED FREE ENERGY PREDICTED BY IDOCK:   -3.56 KCAL/MOL
REMARK 922        TOTAL FREE ENERGY PREDICTED BY IDOCK:   -4.41 KCAL/MOL
REMARK 923 INTER-LIGAND FREE ENERGY PREDICTED BY IDOCK:   -3.78 KCAL/MOL
REMARK 924 INTRA-LIGAND FREE ENERGY PREDICTED BY IDOCK:   -0.64 KCAL/MOL
REMARK 927      BINDING AFFINITY PREDICTED BY RF-SCORE:    0.00 PKD
ROOT
HETATM    1  C   UNL     1      -8.194   6.611  74.319  1.00  0.00    -0.145 C  
HETATM    2  C   UNL     1      -8.273   5.770  73.102  1.00  0.00    -0.117 A  
HETATM    3  N   UNL     1      -7.729   4.575  72.999  1.00  0.00    -0.086 NA 
HETATM    4  N   UNL     1      -7.825   4.171  71.698  1.00  0.00    -0.069 NA 
HETATM    5  C   UNL     1      -8.428   5.124  71.025  1.00  0.00    -0.120 A  
HETATM    6  C   UNL     1      -8.778   5.115  69.587  1.00  0.00    -0.092 C  
HETATM    7  N   UNL     1      -8.169   6.254  68.922  1.00  0.00    -0.113 NA 
HETATM    8  C   UNL     1      -8.547   7.459  69.175  1.00  0.00    -0.136 C  
HETATM    9  H   UNL     1      -7.428   6.096  68.241  1.00  0.00     0.000 HD 
HETATM   10  C   UNL     1     -10.466   8.864  69.903  1.00  0.00    -0.223 A  
HETATM   11  C   UNL     1      -9.572   7.823  70.219  1.00  0.00    -0.175 A  
HETATM   12  C   UNL     1      -9.595   7.267  71.519  1.00  0.00    -0.156 A  
HETATM   13 CL   UNL     1     -12.326  10.726  70.491  1.00  0.00    -0.426 Cl 
HETATM   14  N   UNL     1      -8.793   6.146  71.871  1.00  0.00    -0.137 NA 
HETATM   15  C   UNL     1     -11.313   9.391  70.874  1.00  0.00    -0.319 A  
HETATM   16  C   UNL     1     -10.486   7.790  72.474  1.00  0.00    -0.343 A  
HETATM   17  C   UNL     1     -11.326   8.860  72.156  1.00  0.00    -0.369 A  
ENDROOT
BRANCH   8  18
HETATM   18  C   UNL     1      -7.896   8.572  68.388  1.00  0.00    -0.106 A  
HETATM   19  C   UNL     1      -6.372  10.481  68.381  1.00  0.00    -0.054 A  
HETATM   20  C   UNL     1      -7.619   9.937  66.394  1.00  0.00    -0.101 A  
HETATM   21  C   UNL     1      -6.937   9.381  69.031  1.00  0.00    -0.059 A  
HETATM   22  C   UNL     1      -6.713  10.759  67.063  1.00  0.00    -0.090 A  
HETATM   23  C   UNL     1      -8.221   8.852  67.048  1.00  0.00    -0.106 A  
HETATM   24 CL   UNL     1      -9.400   7.981  66.130  1.00  0.00    -0.236 Cl 
ENDBRANCH   8  18
TORSDOF 1
ENDMDL
MODEL      121
REMARK 921   NORMALIZED FREE ENERGY PREDICTED BY IDOCK:   -3.55 KCAL/MOL
REMARK 922        TOTAL FREE ENERGY PREDICTED BY IDOCK:   -4.40 KCAL/MOL
REMARK 923 INTER-LIGAND FREE ENERGY PREDICTED BY IDOCK:   -3.77 KCAL/MOL
REMARK 924 INTRA-LIGAND FREE ENERGY PREDICTED BY IDOCK:   -0.64 KCAL/MOL
REMARK 927      BINDING AFFINITY PREDICTED BY RF-SCORE:    0.00 PKD
ROOT
HETATM    1  C   UNL     1      -5.821   8.561  66.466  1.00  0.00    -0.051 C  
HETATM    2  C   UNL     1      -7.019   7.775  66.089  1.00  0.00    -0.062 A  
HETATM    3  N   UNL     1      -7.526   7.745  64.875  1.00  0.00    -0.088 NA 
HETATM    4  N   UNL     1      -8.721   7.086  64.925  1.00  0.00     0.174 NA 
HETATM    5  C   UNL     1      -8.927   6.721  66.170  1.00  0.00    -0.136 A  
HETATM    6  C   UNL     1     -10.077   5.954  66.694  1.00  0.00    -0.183 C  
HETATM    7  N   UNL     1     -10.739   6.708  67.744  1.00  0.00    -0.252 NA 
HETATM    8  C   UNL     1     -10.164   6.933  68.874  1.00  0.00    -0.177 C  
HETATM    9  H   UNL     1     -11.680   7.068  67.582  1.00  0.00     0.000 HD 
HETATM   10  C   UNL     1      -8.500   6.059  70.503  1.00  0.00    -0.132 A  
HETATM   11  C   UNL     1      -8.748   6.526  69.198  1.00  0.00    -0.129 A  
HETATM   12  C   UNL     1      -7.661   6.708  68.313  1.00  0.00    -0.104 A  
HETATM   13 CL   UNL     1      -6.913   5.367  72.571  1.00  0.00    -0.079 Cl 
HETATM   14  N   UNL     1      -7.852   7.076  66.953  1.00  0.00    -0.105 NA 
HETATM   15  C   UNL     1      -7.197   5.845  70.944  1.00  0.00    -0.077 A  
HETATM   16  C   UNL     1      -6.355   6.449  68.768  1.00  0.00    -0.038 A  
HETATM   17  C   UNL     1      -6.125   6.039  70.084  1.00  0.00    -0.026 A  
ENDROOT
BRANCH   8  18
HETATM   18  C   UNL     1     -10.957   7.675  69.923  1.00  0.00    -0.208 A  
HETATM   19  C   UNL     1     -12.805   7.647  71.521  1.00  0.00    -0.376 A  
HETATM   20  C   UNL     1     -11.547   9.672  71.180  1.00  0.00    -0.456 A  
HETATM   21  C   UNL     1     -11.980   6.987  70.607  1.00  0.00    -0.361 A  
HETATM   22  C   UNL     1     -12.589   8.989  71.807  1.00  0.00    -0.434 A  
HETATM   23  C   UNL     1     -10.736   9.030  70.234  1.00  0.00    -0.230 A  
HETATM   24 CL   UNL     1      -9.550  10.024  69.461  1.00  0.00    -0.235 Cl 
ENDBRANCH   8  18
TORSDOF 1
ENDMDL
MODEL      122
REMARK 921   NORMALIZED FREE ENERGY PREDICTED BY IDOCK:   -3.53 KCAL/MOL
REMARK 922        TOTAL FREE ENERGY PREDICTED BY IDOCK:   -4.37 KCAL/MOL
REMARK 923 INTER-LIGAND FREE ENERGY PREDICTED BY IDOCK:   -3.88 KCAL/MOL
REMARK 924 INTRA-LIGAND FREE ENERGY PREDICTED BY IDOCK:   -0.49 KCAL/MOL
REMARK 927      BINDING AFFINITY PREDICTED BY RF-SCORE:    0.00 PKD
ROOT
HETATM    1  C   UNL     1      -9.434   3.374  69.265  1.00  0.00    -0.212 C  
HETATM    2  C   UNL     1      -9.412   4.182  68.023  1.00  0.00    -0.160 A  
HETATM    3  N   UNL     1      -9.043   3.714  66.849  1.00  0.00    -0.152 NA 
HETATM    4  N   UNL     1      -8.958   4.762  65.978  1.00  0.00    -0.122 NA 
HETATM    5  C   UNL     1      -9.277   5.856  66.632  1.00  0.00    -0.140 A  
HETATM    6  C   UNL     1      -9.354   7.229  66.086  1.00  0.00    -0.046 C  
HETATM    7  N   UNL     1      -8.471   8.108  66.832  1.00  0.00    -0.118 NA 
HETATM    8  C   UNL     1      -8.705   8.407  68.063  1.00  0.00    -0.139 C  
HETATM    9  H   UNL     1      -7.649   8.497  66.372  1.00  0.00     0.000 HD 
HETATM   10  C   UNL     1     -10.494   8.700  69.766  1.00  0.00    -0.220 A  
HETATM   11  C   UNL     1      -9.839   7.830  68.873  1.00  0.00    -0.166 A  
HETATM   12  C   UNL     1     -10.183   6.459  68.871  1.00  0.00    -0.184 A  
HETATM   13 CL   UNL     1     -12.132   9.274  71.830  1.00  0.00    -0.443 Cl 
HETATM   14  N   UNL     1      -9.635   5.549  67.925  1.00  0.00    -0.120 NA 
HETATM   15  C   UNL     1     -11.417   8.209  70.686  1.00  0.00    -0.231 A  
HETATM   16  C   UNL     1     -11.146   5.991  69.783  1.00  0.00    -0.476 A  
HETATM   17  C   UNL     1     -11.744   6.860  70.699  1.00  0.00    -0.417 A  
ENDROOT
BRANCH   8  18
HETATM   18  C   UNL     1      -7.762   9.377  68.735  1.00  0.00    -0.080 A  
HETATM   19  C   UNL     1      -7.150  11.703  69.163  1.00  0.00    -0.090 A  
HETATM   20  C   UNL     1      -5.748   9.925  69.983  1.00  0.00    -0.044 A  
HETATM   21  C   UNL     1      -8.036  10.757  68.641  1.00  0.00    -0.133 A  
HETATM   22  C   UNL     1      -6.006  11.287  69.834  1.00  0.00    -0.117 A  
HETATM   23  C   UNL     1      -6.610   8.967  69.431  1.00  0.00    -0.045 A  
HETATM   24 CL   UNL     1      -6.114   7.319  69.604  1.00  0.00    -0.030 Cl 
ENDBRANCH   8  18
TORSDOF 1
ENDMDL
MODEL      123
REMARK 921   NORMALIZED FREE ENERGY PREDICTED BY IDOCK:   -3.51 KCAL/MOL
REMARK 922        TOTAL FREE ENERGY PREDICTED BY IDOCK:   -4.36 KCAL/MOL
REMARK 923 INTER-LIGAND FREE ENERGY PREDICTED BY IDOCK:   -3.72 KCAL/MOL
REMARK 924 INTRA-LIGAND FREE ENERGY PREDICTED BY IDOCK:   -0.64 KCAL/MOL
REMARK 927      BINDING AFFINITY PREDICTED BY RF-SCORE:    0.00 PKD
ROOT
HETATM    1  C   UNL     1      -5.764   4.525  69.059  1.00  0.00    -0.017 C  
HETATM    2  C   UNL     1      -7.170   4.141  69.326  1.00  0.00    -0.050 A  
HETATM    3  N   UNL     1      -7.800   3.173  68.693  1.00  0.00    -0.057 NA 
HETATM    4  N   UNL     1      -9.119   3.218  69.045  1.00  0.00    -0.131 NA 
HETATM    5  C   UNL     1      -9.276   4.212  69.888  1.00  0.00    -0.141 A  
HETATM    6  C   UNL     1     -10.530   4.621  70.559  1.00  0.00     0.097 C  
HETATM    7  N   UNL     1     -10.827   6.009  70.251  1.00  0.00    -0.302 NA 
HETATM    8  C   UNL     1     -10.086   6.967  70.689  1.00  0.00    -0.191 C  
HETATM    9  H   UNL     1     -11.639   6.229  69.676  1.00  0.00     0.000 HD 
HETATM   10  C   UNL     1      -8.564   7.664  72.529  1.00  0.00    -0.164 A  
HETATM   11  C   UNL     1      -8.817   6.762  71.477  1.00  0.00    -0.137 A  
HETATM   12  C   UNL     1      -7.830   5.809  71.136  1.00  0.00    -0.111 A  
HETATM   13 CL   UNL     1      -7.013   8.842  74.394  1.00  0.00    -0.136 Cl 
HETATM   14  N   UNL     1      -8.063   4.805  70.156  1.00  0.00    -0.068 NA 
HETATM   15  C   UNL     1      -7.333   7.668  73.180  1.00  0.00    -0.093 A  
HETATM   16  C   UNL     1      -6.608   5.806  71.832  1.00  0.00    -0.058 A  
HETATM   17  C   UNL     1      -6.355   6.746  72.836  1.00  0.00    -0.058 A  
ENDROOT
BRANCH   8  18
HETATM   18  C   UNL     1     -10.512   8.379  70.366  1.00  0.00    -0.228 A  
HETATM   19  C   UNL     1     -10.099  10.422  69.091  1.00  0.00    -0.236 A  
HETATM   20  C   UNL     1     -11.870  10.366  70.722  1.00  0.00    -0.466 A  
HETATM   21  C   UNL     1      -9.809   9.084  69.366  1.00  0.00    -0.183 A  
HETATM   22  C   UNL     1     -11.129  11.063  69.768  1.00  0.00    -0.303 A  
HETATM   23  C   UNL     1     -11.565   9.033  71.033  1.00  0.00    -0.300 A  
HETATM   24 CL   UNL     1     -12.498   8.325  72.306  1.00  0.00    -0.388 Cl 
ENDBRANCH   8  18
TORSDOF 1
ENDMDL
MODEL      124
REMARK 921   NORMALIZED FREE ENERGY PREDICTED BY IDOCK:   -3.49 KCAL/MOL
REMARK 922        TOTAL FREE ENERGY PREDICTED BY IDOCK:   -4.33 KCAL/MOL
REMARK 923 INTER-LIGAND FREE ENERGY PREDICTED BY IDOCK:   -4.50 KCAL/MOL
REMARK 924 INTRA-LIGAND FREE ENERGY PREDICTED BY IDOCK:    0.17 KCAL/MOL
REMARK 927      BINDING AFFINITY PREDICTED BY RF-SCORE:    0.00 PKD
ROOT
HETATM    1  C   UNL     1      -9.564   2.902  71.094  1.00  0.00    -0.226 C  
HETATM    2  C   UNL     1      -9.963   3.817  72.190  1.00  0.00    -0.169 A  
HETATM    3  N   UNL     1     -10.793   3.486  73.157  1.00  0.00    -0.172 NA 
HETATM    4  N   UNL     1     -11.086   4.611  73.874  1.00  0.00    -0.266 NA 
HETATM    5  C   UNL     1     -10.430   5.613  73.335  1.00  0.00    -0.242 A  
HETATM    6  C   UNL     1     -10.416   7.019  73.795  1.00  0.00    -0.354 C  
HETATM    7  N   UNL     1     -10.856   7.895  72.724  1.00  0.00    -0.362 NA 
HETATM    8  C   UNL     1     -10.149   8.063  71.661  1.00  0.00    -0.184 C  
HETATM    9  H   UNL     1     -11.745   8.387  72.815  1.00  0.00     0.000 HD 
HETATM   10  C   UNL     1      -7.832   8.061  70.756  1.00  0.00    -0.091 A  
HETATM   11  C   UNL     1      -8.862   7.329  71.376  1.00  0.00    -0.130 A  
HETATM   12  C   UNL     1      -8.693   5.941  71.582  1.00  0.00    -0.136 A  
HETATM   13 CL   UNL     1      -5.489   8.317  69.445  1.00  0.00    -0.030 Cl 
HETATM   14  N   UNL     1      -9.649   5.165  72.294  1.00  0.00    -0.148 NA 
HETATM   15  C   UNL     1      -6.690   7.419  70.285  1.00  0.00    -0.047 A  
HETATM   16  C   UNL     1      -7.515   5.319  71.132  1.00  0.00    -0.084 A  
HETATM   17  C   UNL     1      -6.527   6.053  70.469  1.00  0.00    -0.037 A  
ENDROOT
BRANCH   8  18
HETATM   18  C   UNL     1     -10.662   9.041  70.631  1.00  0.00    -0.292 A  
HETATM   19  C   UNL     1     -11.837  11.133  70.172  1.00  0.00    -0.449 A  
HETATM   20  C   UNL     1     -11.134   9.729  68.346  1.00  0.00    -0.142 A  
HETATM   21  C   UNL     1     -11.263  10.236  71.076  1.00  0.00    -0.220 A  
HETATM   22  C   UNL     1     -11.774  10.879  68.807  1.00  0.00    -0.355 A  
HETATM   23  C   UNL     1     -10.587   8.803  69.246  1.00  0.00    -0.197 A  
HETATM   24 CL   UNL     1      -9.916   7.374  68.540  1.00  0.00    -0.164 Cl 
ENDBRANCH   8  18
TORSDOF 1
ENDMDL
MODEL      125
REMARK 921   NORMALIZED FREE ENERGY PREDICTED BY IDOCK:   -3.44 KCAL/MOL
REMARK 922        TOTAL FREE ENERGY PREDICTED BY IDOCK:   -4.28 KCAL/MOL
REMARK 923 INTER-LIGAND FREE ENERGY PREDICTED BY IDOCK:   -4.24 KCAL/MOL
REMARK 924 INTRA-LIGAND FREE ENERGY PREDICTED BY IDOCK:   -0.04 KCAL/MOL
REMARK 927      BINDING AFFINITY PREDICTED BY RF-SCORE:    0.00 PKD
ROOT
HETATM    1  C   UNL     1      -8.590   7.069  65.623  1.00  0.00    -0.121 C  
HETATM    2  C   UNL     1      -7.801   7.862  66.594  1.00  0.00    -0.102 A  
HETATM    3  N   UNL     1      -6.789   7.381  67.285  1.00  0.00    -0.075 NA 
HETATM    4  N   UNL     1      -6.421   8.314  68.212  1.00  0.00    -0.058 NA 
HETATM    5  C   UNL     1      -7.213   9.353  68.074  1.00  0.00    -0.078 A  
HETATM    6  C   UNL     1      -7.167  10.616  68.841  1.00  0.00    -0.090 C  
HETATM    7  N   UNL     1      -8.447  10.850  69.487  1.00  0.00    -0.376 NA 
HETATM    8  C   UNL     1      -9.506  11.112  68.803  1.00  0.00    -0.165 C  
HETATM    9  H   UNL     1      -8.507  10.806  70.504  1.00  0.00     0.000 HD 
HETATM   10  C   UNL     1     -10.349  12.119  66.691  1.00  0.00    -0.233 A  
HETATM   11  C   UNL     1      -9.559  11.123  67.296  1.00  0.00    -0.182 A  
HETATM   12  C   UNL     1      -8.969  10.125  66.487  1.00  0.00    -0.143 A  
HETATM   13 CL   UNL     1     -11.653  13.255  64.622  1.00  0.00    -0.363 Cl 
HETATM   14  N   UNL     1      -8.077   9.154  67.021  1.00  0.00    -0.109 NA 
HETATM   15  C   UNL     1     -10.607  12.085  65.323  1.00  0.00    -0.287 A  
HETATM   16  C   UNL     1      -9.212  10.132  65.101  1.00  0.00    -0.262 A  
HETATM   17  C   UNL     1     -10.045  11.097  64.527  1.00  0.00    -0.364 A  
ENDROOT
BRANCH   8  18
HETATM   18  C   UNL     1     -10.776  11.400  69.569  1.00  0.00    -0.098 A  
HETATM   19  C   UNL     1     -12.696  10.517  70.793  1.00  0.00    -0.471 A  
HETATM   20  C   UNL     1     -12.523  12.883  70.383  1.00  0.00    -0.247 A  
HETATM   21  C   UNL     1     -11.470  10.321  70.154  1.00  0.00    -0.383 A  
HETATM   22  C   UNL     1     -13.223  11.797  70.908  1.00  0.00     0.245 A  
HETATM   23  C   UNL     1     -11.310  12.695  69.706  1.00  0.00    -0.038 A  
HETATM   24 CL   UNL     1     -10.603  14.116  69.019  1.00  0.00    -0.246 Cl 
ENDBRANCH   8  18
TORSDOF 1
ENDMDL
MODEL      126
REMARK 921   NORMALIZED FREE ENERGY PREDICTED BY IDOCK:   -3.41 KCAL/MOL
REMARK 922        TOTAL FREE ENERGY PREDICTED BY IDOCK:   -4.25 KCAL/MOL
REMARK 923 INTER-LIGAND FREE ENERGY PREDICTED BY IDOCK:   -3.62 KCAL/MOL
REMARK 924 INTRA-LIGAND FREE ENERGY PREDICTED BY IDOCK:   -0.63 KCAL/MOL
REMARK 927      BINDING AFFINITY PREDICTED BY RF-SCORE:    0.00 PKD
ROOT
HETATM    1  C   UNL     1     -10.401   7.909  66.817  1.00  0.00    -0.357 C  
HETATM    2  C   UNL     1     -10.090   6.461  66.761  1.00  0.00    -0.179 A  
HETATM    3  N   UNL     1     -10.572   5.641  65.850  1.00  0.00     0.126 NA 
HETATM    4  N   UNL     1     -10.242   4.364  66.205  1.00  0.00    -0.238 NA 
HETATM    5  C   UNL     1      -9.562   4.422  67.327  1.00  0.00    -0.189 A  
HETATM    6  C   UNL     1      -8.971   3.287  68.070  1.00  0.00    -0.147 C  
HETATM    7  N   UNL     1      -9.490   3.259  69.426  1.00  0.00    -0.165 NA 
HETATM    8  C   UNL     1      -9.198   4.181  70.276  1.00  0.00    -0.135 C  
HETATM    9  H   UNL     1     -10.099   2.492  69.711  1.00  0.00     0.000 HD 
HETATM   10  C   UNL     1      -7.475   5.851  70.933  1.00  0.00    -0.091 A  
HETATM   11  C   UNL     1      -8.378   5.404  69.949  1.00  0.00    -0.100 A  
HETATM   12  C   UNL     1      -8.562   6.178  68.781  1.00  0.00    -0.120 A  
HETATM   13 CL   UNL     1      -5.800   7.642  72.053  1.00  0.00    -0.036 Cl 
HETATM   14  N   UNL     1      -9.378   5.733  67.705  1.00  0.00    -0.108 NA 
HETATM   15  C   UNL     1      -6.823   7.073  70.795  1.00  0.00    -0.054 A  
HETATM   16  C   UNL     1      -7.863   7.392  68.645  1.00  0.00    -0.122 A  
HETATM   17  C   UNL     1      -7.014   7.845  69.657  1.00  0.00    -0.053 A  
ENDROOT
BRANCH   8  18
HETATM   18  C   UNL     1      -9.738   4.031  71.679  1.00  0.00    -0.242 A  
HETATM   19  C   UNL     1      -9.794   2.726  73.743  1.00  0.00    -0.148 A  
HETATM   20  C   UNL     1     -11.207   4.662  73.512  1.00  0.00    -0.400 A  
HETATM   21  C   UNL     1      -9.264   2.967  72.473  1.00  0.00    -0.141 A  
HETATM   22  C   UNL     1     -10.766   3.572  74.262  1.00  0.00    -0.215 A  
HETATM   23  C   UNL     1     -10.709   4.893  72.221  1.00  0.00    -0.150 A  
HETATM   24 CL   UNL     1     -11.419   6.218  71.367  1.00  0.00    -0.357 Cl 
ENDBRANCH   8  18
TORSDOF 1
ENDMDL
MODEL      127
REMARK 921   NORMALIZED FREE ENERGY PREDICTED BY IDOCK:   -3.38 KCAL/MOL
REMARK 922        TOTAL FREE ENERGY PREDICTED BY IDOCK:   -4.22 KCAL/MOL
REMARK 923 INTER-LIGAND FREE ENERGY PREDICTED BY IDOCK:   -3.91 KCAL/MOL
REMARK 924 INTRA-LIGAND FREE ENERGY PREDICTED BY IDOCK:   -0.31 KCAL/MOL
REMARK 927      BINDING AFFINITY PREDICTED BY RF-SCORE:    0.00 PKD
ROOT
HETATM    1  C   UNL     1      -9.919   8.257  68.894  1.00  0.00    -0.193 C  
HETATM    2  C   UNL     1      -8.950   8.644  67.843  1.00  0.00    -0.140 A  
HETATM    3  N   UNL     1      -8.070   7.819  67.315  1.00  0.00    -0.117 NA 
HETATM    4  N   UNL     1      -7.221   8.543  66.528  1.00  0.00    -0.079 NA 
HETATM    5  C   UNL     1      -7.594   9.801  66.586  1.00  0.00    -0.098 A  
HETATM    6  C   UNL     1      -6.987  10.944  65.870  1.00  0.00    -0.029 C  
HETATM    7  N   UNL     1      -6.560  11.955  66.822  1.00  0.00    -0.345 NA 
HETATM    8  C   UNL     1      -7.413  12.629  67.512  1.00  0.00    -0.155 C  
HETATM    9  H   UNL     1      -5.564  12.134  66.945  1.00  0.00     0.000 HD 
HETATM   10  C   UNL     1      -9.729  13.534  67.535  1.00  0.00    -0.228 A  
HETATM   11  C   UNL     1      -8.903  12.396  67.477  1.00  0.00    -0.181 A  
HETATM   12  C   UNL     1      -9.494  11.113  67.517  1.00  0.00    -0.168 A  
HETATM   13 CL   UNL     1     -12.083  14.808  67.865  1.00  0.00    -0.258 Cl 
HETATM   14  N   UNL     1      -8.726   9.926  67.359  1.00  0.00    -0.128 NA 
HETATM   15  C   UNL     1     -11.106  13.404  67.700  1.00  0.00    -0.265 A  
HETATM   16  C   UNL     1     -10.890  11.004  67.647  1.00  0.00    -0.306 A  
HETATM   17  C   UNL     1     -11.689  12.146  67.758  1.00  0.00    -0.390 A  
ENDROOT
BRANCH   8  18
HETATM   18  C   UNL     1      -6.874  13.700  68.431  1.00  0.00    -0.102 A  
HETATM   19  C   UNL     1      -5.970  14.277  70.625  1.00  0.00    -0.196 A  
HETATM   20  C   UNL     1      -6.389  16.012  69.009  1.00  0.00    -0.140 A  
HETATM   21  C   UNL     1      -6.393  13.320  69.701  1.00  0.00    -0.089 A  
HETATM   22  C   UNL     1      -5.968  15.623  70.280  1.00  0.00    -0.102 A  
HETATM   23  C   UNL     1      -6.851  15.064  68.085  1.00  0.00    -0.131 A  
HETATM   24 CL   UNL     1      -7.438  15.697  66.587  1.00  0.00    -0.066 Cl 
ENDBRANCH   8  18
TORSDOF 1
ENDMDL
MODEL      128
REMARK 921   NORMALIZED FREE ENERGY PREDICTED BY IDOCK:   -3.35 KCAL/MOL
REMARK 922        TOTAL FREE ENERGY PREDICTED BY IDOCK:   -4.19 KCAL/MOL
REMARK 923 INTER-LIGAND FREE ENERGY PREDICTED BY IDOCK:   -3.55 KCAL/MOL
REMARK 924 INTRA-LIGAND FREE ENERGY PREDICTED BY IDOCK:   -0.64 KCAL/MOL
REMARK 927      BINDING AFFINITY PREDICTED BY RF-SCORE:    0.00 PKD
ROOT
HETATM    1  C   UNL     1      -9.826   4.514  66.798  1.00  0.00    -0.242 C  
HETATM    2  C   UNL     1      -8.967   5.130  67.836  1.00  0.00    -0.110 A  
HETATM    3  N   UNL     1      -8.714   4.577  69.004  1.00  0.00    -0.083 NA 
HETATM    4  N   UNL     1      -8.057   5.491  69.778  1.00  0.00    -0.099 NA 
HETATM    5  C   UNL     1      -7.916   6.589  69.071  1.00  0.00    -0.111 A  
HETATM    6  C   UNL     1      -7.237   7.835  69.488  1.00  0.00    -0.079 C  
HETATM    7  N   UNL     1      -8.157   8.955  69.394  1.00  0.00    -0.102 NA 
HETATM    8  C   UNL     1      -8.588   9.376  68.256  1.00  0.00    -0.120 C  
HETATM    9  H   UNL     1      -8.467   9.418  70.248  1.00  0.00     0.000 HD 
HETATM   10  C   UNL     1      -8.042   9.576  65.838  1.00  0.00    -0.115 A  
HETATM   11  C   UNL     1      -8.266   8.723  66.935  1.00  0.00    -0.108 A  
HETATM   12  C   UNL     1      -8.304   7.326  66.725  1.00  0.00    -0.119 A  
HETATM   13 CL   UNL     1      -7.754  10.127  63.214  1.00  0.00    -0.151 Cl 
HETATM   14  N   UNL     1      -8.422   6.406  67.804  1.00  0.00    -0.117 NA 
HETATM   15  C   UNL     1      -7.930   9.060  64.549  1.00  0.00    -0.131 A  
HETATM   16  C   UNL     1      -8.150   6.824  65.420  1.00  0.00    -0.129 A  
HETATM   17  C   UNL     1      -7.984   7.690  64.336  1.00  0.00    -0.123 A  
ENDROOT
BRANCH   8  18
HETATM   18  C   UNL     1      -9.493  10.585  68.259  1.00  0.00    -0.158 A  
HETATM   19  C   UNL     1     -11.761  11.470  68.052  1.00  0.00    -0.343 A  
HETATM   20  C   UNL     1      -9.902  12.983  68.283  1.00  0.00    -0.225 A  
HETATM   21  C   UNL     1     -10.885  10.387  68.148  1.00  0.00    -0.311 A  
HETATM   22  C   UNL     1     -11.270  12.768  68.119  1.00  0.00    -0.310 A  
HETATM   23  C   UNL     1      -9.008  11.904  68.344  1.00  0.00    -0.163 A  
HETATM   24 CL   UNL     1      -7.333  12.319  68.445  1.00  0.00    -0.102 Cl 
ENDBRANCH   8  18
TORSDOF 1
ENDMDL
MODEL      129
REMARK 921   NORMALIZED FREE ENERGY PREDICTED BY IDOCK:   -3.30 KCAL/MOL
REMARK 922        TOTAL FREE ENERGY PREDICTED BY IDOCK:   -4.13 KCAL/MOL
REMARK 923 INTER-LIGAND FREE ENERGY PREDICTED BY IDOCK:   -3.58 KCAL/MOL
REMARK 924 INTRA-LIGAND FREE ENERGY PREDICTED BY IDOCK:   -0.55 KCAL/MOL
REMARK 927      BINDING AFFINITY PREDICTED BY RF-SCORE:    0.00 PKD
ROOT
HETATM    1  C   UNL     1      -6.598   2.156  66.317  1.00  0.00    -0.031 C  
HETATM    2  C   UNL     1      -7.814   2.739  65.702  1.00  0.00    -0.081 A  
HETATM    3  N   UNL     1      -8.063   2.723  64.410  1.00  0.00    -0.082 NA 
HETATM    4  N   UNL     1      -9.157   3.506  64.174  1.00  0.00    -0.119 NA 
HETATM    5  C   UNL     1      -9.562   3.987  65.327  1.00  0.00    -0.185 A  
HETATM    6  C   UNL     1     -10.733   4.860  65.565  1.00  0.00    -0.027 C  
HETATM    7  N   UNL     1     -10.310   6.089  66.213  1.00  0.00    -0.436 NA 
HETATM    8  C   UNL     1      -9.855   6.091  67.418  1.00  0.00    -0.131 C  
HETATM    9  H   UNL     1     -10.374   6.969  65.702  1.00  0.00     0.000 HD 
HETATM   10  C   UNL     1      -9.946   4.924  69.613  1.00  0.00    -0.302 A  
HETATM   11  C   UNL     1      -9.636   4.847  68.241  1.00  0.00    -0.196 A  
HETATM   12  C   UNL     1      -9.029   3.673  67.738  1.00  0.00    -0.135 A  
HETATM   13 CL   UNL     1      -9.897   4.050  72.164  1.00  0.00    -0.224 Cl 
HETATM   14  N   UNL     1      -8.786   3.490  66.349  1.00  0.00    -0.124 NA 
HETATM   15  C   UNL     1      -9.596   3.892  70.479  1.00  0.00    -0.193 A  
HETATM   16  C   UNL     1      -8.719   2.627  68.625  1.00  0.00    -0.134 A  
HETATM   17  C   UNL     1      -8.984   2.745  69.992  1.00  0.00    -0.166 A  
ENDROOT
BRANCH   8  18
HETATM   18  C   UNL     1      -9.498   7.427  68.025  1.00  0.00    -0.146 A  
HETATM   19  C   UNL     1     -10.268   9.475  69.112  1.00  0.00    -0.209 A  
HETATM   20  C   UNL     1      -7.942   9.225  68.539  1.00  0.00    -0.101 A  
HETATM   21  C   UNL     1     -10.523   8.194  68.618  1.00  0.00    -0.195 A  
HETATM   22  C   UNL     1      -8.979   9.991  69.073  1.00  0.00    -0.163 A  
HETATM   23  C   UNL     1      -8.193   7.952  68.006  1.00  0.00    -0.127 A  
HETATM   24 CL   UNL     1      -6.836   7.158  67.286  1.00  0.00    -0.070 Cl 
ENDBRANCH   8  18
TORSDOF 1
ENDMDL
MODEL      130
REMARK 921   NORMALIZED FREE ENERGY PREDICTED BY IDOCK:   -3.24 KCAL/MOL
REMARK 922        TOTAL FREE ENERGY PREDICTED BY IDOCK:   -4.07 KCAL/MOL
REMARK 923 INTER-LIGAND FREE ENERGY PREDICTED BY IDOCK:   -3.68 KCAL/MOL
REMARK 924 INTRA-LIGAND FREE ENERGY PREDICTED BY IDOCK:   -0.38 KCAL/MOL
REMARK 927      BINDING AFFINITY PREDICTED BY RF-SCORE:    0.00 PKD
ROOT
HETATM    1  C   UNL     1      -9.059   9.897  63.221  1.00  0.00    -0.294 C  
HETATM    2  C   UNL     1      -8.316   8.638  63.464  1.00  0.00    -0.114 A  
HETATM    3  N   UNL     1      -8.154   7.695  62.560  1.00  0.00    -0.138 NA 
HETATM    4  N   UNL     1      -7.596   6.607  63.171  1.00  0.00    -0.082 NA 
HETATM    5  C   UNL     1      -7.425   6.903  64.439  1.00  0.00    -0.100 A  
HETATM    6  C   UNL     1      -6.823   6.041  65.480  1.00  0.00    -0.052 C  
HETATM    7  N   UNL     1      -7.763   5.853  66.571  1.00  0.00    -0.098 NA 
HETATM    8  C   UNL     1      -8.101   6.829  67.341  1.00  0.00    -0.118 C  
HETATM    9  H   UNL     1      -8.163   4.929  66.731  1.00  0.00     0.000 HD 
HETATM   10  C   UNL     1      -7.345   8.988  68.317  1.00  0.00    -0.082 A  
HETATM   11  C   UNL     1      -7.642   8.253  67.153  1.00  0.00    -0.093 A  
HETATM   12  C   UNL     1      -7.619   8.908  65.901  1.00  0.00    -0.093 A  
HETATM   13 CL   UNL     1      -6.837  11.251  69.693  1.00  0.00    -0.122 Cl 
HETATM   14  N   UNL     1      -7.807   8.202  64.680  1.00  0.00    -0.128 NA 
HETATM   15  C   UNL     1      -7.101  10.357  68.249  1.00  0.00    -0.078 A  
HETATM   16  C   UNL     1      -7.334  10.285  65.851  1.00  0.00    -0.131 A  
HETATM   17  C   UNL     1      -7.096  11.008  67.023  1.00  0.00    -0.118 A  
ENDROOT
BRANCH   8  18
HETATM   18  C   UNL     1      -9.038   6.521  68.485  1.00  0.00    -0.127 A  
HETATM   19  C   UNL     1      -9.297   5.881  70.828  1.00  0.00    -0.180 A  
HETATM   20  C   UNL     1     -11.243   6.109  69.427  1.00  0.00    -0.466 A  
HETATM   21  C   UNL     1      -8.486   6.262  69.757  1.00  0.00    -0.126 A  
HETATM   22  C   UNL     1     -10.675   5.804  70.664  1.00  0.00    -0.351 A  
HETATM   23  C   UNL     1     -10.435   6.457  68.334  1.00  0.00    -0.222 A  
HETATM   24 CL   UNL     1     -11.264   6.709  66.837  1.00  0.00    -0.368 Cl 
ENDBRANCH   8  18
TORSDOF 1
ENDMDL
MODEL      131
REMARK 921   NORMALIZED FREE ENERGY PREDICTED BY IDOCK:   -3.17 KCAL/MOL
REMARK 922        TOTAL FREE ENERGY PREDICTED BY IDOCK:   -4.00 KCAL/MOL
REMARK 923 INTER-LIGAND FREE ENERGY PREDICTED BY IDOCK:   -3.76 KCAL/MOL
REMARK 924 INTRA-LIGAND FREE ENERGY PREDICTED BY IDOCK:   -0.24 KCAL/MOL
REMARK 927      BINDING AFFINITY PREDICTED BY RF-SCORE:    0.00 PKD
ROOT
HETATM    1  C   UNL     1      -8.478   3.899  70.924  1.00  0.00    -0.098 C  
HETATM    2  C   UNL     1      -7.735   5.068  71.450  1.00  0.00    -0.100 A  
HETATM    3  N   UNL     1      -7.221   5.127  72.661  1.00  0.00    -0.089 NA 
HETATM    4  N   UNL     1      -6.781   6.402  72.879  1.00  0.00    -0.068 NA 
HETATM    5  C   UNL     1      -7.031   7.103  71.796  1.00  0.00    -0.064 A  
HETATM    6  C   UNL     1      -6.701   8.525  71.561  1.00  0.00    -0.073 C  
HETATM    7  N   UNL     1      -7.908   9.268  71.243  1.00  0.00    -0.338 NA 
HETATM    8  C   UNL     1      -8.551   9.065  70.146  1.00  0.00    -0.160 C  
HETATM    9  H   UNL     1      -8.254   9.964  71.903  1.00  0.00     0.000 HD 
HETATM   10  C   UNL     1      -8.325   8.348  67.775  1.00  0.00    -0.130 A  
HETATM   11  C   UNL     1      -8.186   8.008  69.134  1.00  0.00    -0.130 A  
HETATM   12  C   UNL     1      -7.841   6.681  69.481  1.00  0.00    -0.106 A  
HETATM   13 CL   UNL     1      -8.465   7.796  65.139  1.00  0.00    -0.114 Cl 
HETATM   14  N   UNL     1      -7.584   6.298  70.826  1.00  0.00    -0.094 NA 
HETATM   15  C   UNL     1      -8.196   7.378  66.784  1.00  0.00    -0.121 A  
HETATM   16  C   UNL     1      -7.678   5.726  68.461  1.00  0.00    -0.093 A  
HETATM   17  C   UNL     1      -7.875   6.070  67.121  1.00  0.00    -0.102 A  
ENDROOT
BRANCH   8  18
HETATM   18  C   UNL     1      -9.760   9.929  69.877  1.00  0.00    -0.274 A  
HETATM   19  C   UNL     1     -12.149  10.306  70.223  1.00  0.00    -0.330 A  
HETATM   20  C   UNL     1     -10.906  11.763  68.763  1.00  0.00    -0.268 A  
HETATM   21  C   UNL     1     -10.979   9.598  70.506  1.00  0.00    -0.374 A  
HETATM   22  C   UNL     1     -12.113  11.388  69.351  1.00  0.00    -0.358 A  
HETATM   23  C   UNL     1      -9.732  11.037  69.010  1.00  0.00    -0.134 A  
HETATM   24 CL   UNL     1      -8.332  11.551  68.135  1.00  0.00    -0.145 Cl 
ENDBRANCH   8  18
TORSDOF 1
ENDMDL
MODEL      132
REMARK 921   NORMALIZED FREE ENERGY PREDICTED BY IDOCK:   -3.17 KCAL/MOL
REMARK 922        TOTAL FREE ENERGY PREDICTED BY IDOCK:   -4.00 KCAL/MOL
REMARK 923 INTER-LIGAND FREE ENERGY PREDICTED BY IDOCK:   -3.89 KCAL/MOL
REMARK 924 INTRA-LIGAND FREE ENERGY PREDICTED BY IDOCK:   -0.11 KCAL/MOL
REMARK 927      BINDING AFFINITY PREDICTED BY RF-SCORE:    0.00 PKD
ROOT
HETATM    1  C   UNL     1     -11.893   5.273  72.793  1.00  0.00    -0.145 C  
HETATM    2  C   UNL     1     -10.561   5.846  73.098  1.00  0.00    -0.245 A  
HETATM    3  N   UNL     1     -10.127   6.085  74.318  1.00  0.00    -0.268 NA 
HETATM    4  N   UNL     1      -8.956   6.783  74.228  1.00  0.00    -0.174 NA 
HETATM    5  C   UNL     1      -8.692   6.960  72.953  1.00  0.00    -0.122 A  
HETATM    6  C   UNL     1      -7.509   7.635  72.375  1.00  0.00    -0.079 C  
HETATM    7  N   UNL     1      -7.934   8.733  71.523  1.00  0.00    -0.236 NA 
HETATM    8  C   UNL     1      -8.559   8.521  70.418  1.00  0.00    -0.143 C  
HETATM    9  H   UNL     1      -7.732   9.691  71.808  1.00  0.00     0.000 HD 
HETATM   10  C   UNL     1      -8.876   6.906  68.554  1.00  0.00    -0.124 A  
HETATM   11  C   UNL     1      -8.985   7.158  69.935  1.00  0.00    -0.142 A  
HETATM   12  C   UNL     1      -9.595   6.190  70.765  1.00  0.00    -0.169 A  
HETATM   13 CL   UNL     1      -9.363   5.512  66.297  1.00  0.00    -0.160 Cl 
HETATM   14  N   UNL     1      -9.643   6.336  72.179  1.00  0.00    -0.151 NA 
HETATM   15  C   UNL     1      -9.423   5.752  67.998  1.00  0.00    -0.110 A  
HETATM   16  C   UNL     1     -10.107   5.014  70.187  1.00  0.00    -0.338 A  
HETATM   17  C   UNL     1     -10.038   4.807  68.807  1.00  0.00    -0.128 A  
ENDROOT
BRANCH   8  18
HETATM   18  C   UNL     1      -8.905   9.724  69.572  1.00  0.00    -0.202 A  
HETATM   19  C   UNL     1     -10.535  10.841  68.136  1.00  0.00    -0.214 A  
HETATM   20  C   UNL     1      -8.361  11.823  68.470  1.00  0.00    -0.131 A  
HETATM   21  C   UNL     1     -10.192   9.800  69.001  1.00  0.00    -0.214 A  
HETATM   22  C   UNL     1      -9.620  11.853  67.870  1.00  0.00    -0.193 A  
HETATM   23  C   UNL     1      -7.992  10.763  69.310  1.00  0.00    -0.106 A  
HETATM   24 CL   UNL     1      -6.367  10.802  69.902  1.00  0.00    -0.101 Cl 
ENDBRANCH   8  18
TORSDOF 1
ENDMDL
MODEL      133
REMARK 921   NORMALIZED FREE ENERGY PREDICTED BY IDOCK:   -3.16 KCAL/MOL
REMARK 922        TOTAL FREE ENERGY PREDICTED BY IDOCK:   -3.98 KCAL/MOL
REMARK 923 INTER-LIGAND FREE ENERGY PREDICTED BY IDOCK:   -3.38 KCAL/MOL
REMARK 924 INTRA-LIGAND FREE ENERGY PREDICTED BY IDOCK:   -0.60 KCAL/MOL
REMARK 927      BINDING AFFINITY PREDICTED BY RF-SCORE:    0.00 PKD
ROOT
HETATM    1  C   UNL     1      -6.447   3.636  66.652  1.00  0.00    -0.041 C  
HETATM    2  C   UNL     1      -7.894   3.864  66.429  1.00  0.00    -0.090 A  
HETATM    3  N   UNL     1      -8.613   3.206  65.544  1.00  0.00    -0.107 NA 
HETATM    4  N   UNL     1      -9.844   3.794  65.468  1.00  0.00    -0.151 NA 
HETATM    5  C   UNL     1      -9.859   4.802  66.309  1.00  0.00    -0.220 A  
HETATM    6  C   UNL     1     -10.993   5.710  66.590  1.00  0.00    -0.091 C  
HETATM    7  N   UNL     1     -10.602   7.085  66.336  1.00  0.00    -0.428 NA 
HETATM    8  C   UNL     1      -9.729   7.681  67.071  1.00  0.00    -0.195 C  
HETATM    9  H   UNL     1     -11.028   7.589  65.559  1.00  0.00     0.000 HD 
HETATM   10  C   UNL     1      -8.739   7.784  69.351  1.00  0.00    -0.135 A  
HETATM   11  C   UNL     1      -8.972   7.016  68.193  1.00  0.00    -0.127 A  
HETATM   12  C   UNL     1      -8.389   5.732  68.090  1.00  0.00    -0.107 A  
HETATM   13 CL   UNL     1      -7.543   8.314  71.709  1.00  0.00    -0.104 Cl 
HETATM   14  N   UNL     1      -8.669   4.866  66.997  1.00  0.00    -0.104 NA 
HETATM   15  C   UNL     1      -7.889   7.319  70.351  1.00  0.00    -0.099 A  
HETATM   16  C   UNL     1      -7.564   5.267  69.130  1.00  0.00    -0.074 A  
HETATM   17  C   UNL     1      -7.301   6.067  70.245  1.00  0.00    -0.088 A  
ENDROOT
BRANCH   8  18
HETATM   18  C   UNL     1      -9.433   9.130  66.765  1.00  0.00    -0.230 A  
HETATM   19  C   UNL     1     -10.156  11.460  66.899  1.00  0.00    -0.245 A  
HETATM   20  C   UNL     1      -8.133  10.900  65.718  1.00  0.00    -0.094 A  
HETATM   21  C   UNL     1     -10.329  10.115  67.231  1.00  0.00    -0.291 A  
HETATM   22  C   UNL     1      -9.058  11.853  66.143  1.00  0.00    -0.162 A  
HETATM   23  C   UNL     1      -8.316   9.541  66.014  1.00  0.00    -0.119 A  
HETATM   24 CL   UNL     1      -7.148   8.460  65.339  1.00  0.00    -0.080 Cl 
ENDBRANCH   8  18
TORSDOF 1
ENDMDL
MODEL      134
REMARK 921   NORMALIZED FREE ENERGY PREDICTED BY IDOCK:   -3.02 KCAL/MOL
REMARK 922        TOTAL FREE ENERGY PREDICTED BY IDOCK:   -3.84 KCAL/MOL
REMARK 923 INTER-LIGAND FREE ENERGY PREDICTED BY IDOCK:   -3.53 KCAL/MOL
REMARK 924 INTRA-LIGAND FREE ENERGY PREDICTED BY IDOCK:   -0.31 KCAL/MOL
REMARK 927      BINDING AFFINITY PREDICTED BY RF-SCORE:    0.00 PKD
ROOT
HETATM    1  C   UNL     1      -6.386   6.291  65.501  1.00  0.00    -0.038 C  
HETATM    2  C   UNL     1      -6.930   4.987  65.945  1.00  0.00    -0.066 A  
HETATM    3  N   UNL     1      -7.319   4.035  65.123  1.00  0.00    -0.071 NA 
HETATM    4  N   UNL     1      -7.938   3.062  65.855  1.00  0.00    -0.085 NA 
HETATM    5  C   UNL     1      -7.918   3.433  67.115  1.00  0.00    -0.079 A  
HETATM    6  C   UNL     1      -8.445   2.679  68.273  1.00  0.00    -0.073 C  
HETATM    7  N   UNL     1      -9.429   3.481  68.979  1.00  0.00    -0.167 NA 
HETATM    8  C   UNL     1      -9.093   4.548  69.617  1.00  0.00    -0.109 C  
HETATM    9  H   UNL     1     -10.407   3.192  68.970  1.00  0.00     0.000 HD 
HETATM   10  C   UNL     1      -7.245   5.666  70.850  1.00  0.00    -0.079 A  
HETATM   11  C   UNL     1      -7.697   5.118  69.634  1.00  0.00    -0.068 A  
HETATM   12  C   UNL     1      -6.889   5.242  68.481  1.00  0.00    -0.056 A  
HETATM   13 CL   UNL     1      -5.569   7.124  72.379  1.00  0.00    -0.037 Cl 
HETATM   14  N   UNL     1      -7.238   4.622  67.249  1.00  0.00    -0.072 NA 
HETATM   15  C   UNL     1      -6.052   6.382  70.906  1.00  0.00    -0.031 A  
HETATM   16  C   UNL     1      -5.669   5.937  68.568  1.00  0.00    -0.012 A  
HETATM   17  C   UNL     1      -5.264   6.521  69.771  1.00  0.00    -0.014 A  
ENDROOT
BRANCH   8  18
HETATM   18  C   UNL     1     -10.178   5.280  70.370  1.00  0.00    -0.338 A  
HETATM   19  C   UNL     1     -11.315   5.669  72.497  1.00  0.00    -0.349 A  
HETATM   20  C   UNL     1     -12.129   6.728  70.493  1.00  0.00    -0.332 A  
HETATM   21  C   UNL     1     -10.276   5.091  71.765  1.00  0.00    -0.272 A  
HETATM   22  C   UNL     1     -12.242   6.487  71.862  1.00  0.00    -0.373 A  
HETATM   23  C   UNL     1     -11.111   6.124  69.740  1.00  0.00    -0.416 A  
HETATM   24 CL   UNL     1     -11.152   6.429  68.039  1.00  0.00    -0.396 Cl 
ENDBRANCH   8  18
TORSDOF 1
ENDMDL
MODEL      135
REMARK 921   NORMALIZED FREE ENERGY PREDICTED BY IDOCK:   -3.00 KCAL/MOL
REMARK 922        TOTAL FREE ENERGY PREDICTED BY IDOCK:   -3.82 KCAL/MOL
REMARK 923 INTER-LIGAND FREE ENERGY PREDICTED BY IDOCK:   -3.18 KCAL/MOL
REMARK 924 INTRA-LIGAND FREE ENERGY PREDICTED BY IDOCK:   -0.64 KCAL/MOL
REMARK 927      BINDING AFFINITY PREDICTED BY RF-SCORE:    0.00 PKD
ROOT
HETATM    1  C   UNL     1      -8.595   2.259  73.776  1.00  0.00    -0.063 C  
HETATM    2  C   UNL     1      -9.655   3.291  73.705  1.00  0.00    -0.105 A  
HETATM    3  N   UNL     1     -10.815   3.196  74.321  1.00  0.00    -0.147 NA 
HETATM    4  N   UNL     1     -11.615   4.215  73.889  1.00  0.00    -0.041 NA 
HETATM    5  C   UNL     1     -10.932   4.919  73.016  1.00  0.00    -0.288 A  
HETATM    6  C   UNL     1     -11.382   6.137  72.307  1.00  0.00    -0.300 C  
HETATM    7  N   UNL     1     -11.299   5.934  70.871  1.00  0.00    -0.226 NA 
HETATM    8  C   UNL     1     -10.164   5.808  70.276  1.00  0.00    -0.230 C  
HETATM    9  H   UNL     1     -12.158   5.891  70.324  1.00  0.00     0.000 HD 
HETATM   10  C   UNL     1      -7.757   6.429  70.363  1.00  0.00    -0.098 A  
HETATM   11  C   UNL     1      -8.835   5.772  70.988  1.00  0.00    -0.143 A  
HETATM   12  C   UNL     1      -8.596   5.020  72.161  1.00  0.00    -0.125 A  
HETATM   13 CL   UNL     1      -5.148   7.016  70.015  1.00  0.00    -0.015 Cl 
HETATM   14  N   UNL     1      -9.655   4.420  72.897  1.00  0.00    -0.130 NA 
HETATM   15  C   UNL     1      -6.460   6.284  70.850  1.00  0.00    -0.048 A  
HETATM   16  C   UNL     1      -7.284   4.918  72.656  1.00  0.00    -0.083 A  
HETATM   17  C   UNL     1      -6.219   5.532  71.991  1.00  0.00    -0.039 A  
ENDROOT
BRANCH   8  18
HETATM   18  C   UNL     1     -10.179   5.661  68.773  1.00  0.00    -0.269 A  
HETATM   19  C   UNL     1      -9.963   4.185  66.838  1.00  0.00    -0.127 A  
HETATM   20  C   UNL     1     -10.244   6.555  66.512  1.00  0.00    -0.134 A  
HETATM   21  C   UNL     1     -10.048   4.370  68.220  1.00  0.00     0.021 A  
HETATM   22  C   UNL     1     -10.060   5.277  65.984  1.00  0.00    -0.163 A  
HETATM   23  C   UNL     1     -10.294   6.757  67.898  1.00  0.00    -0.194 A  
HETATM   24 CL   UNL     1     -10.423   8.403  68.414  1.00  0.00    -0.232 Cl 
ENDBRANCH   8  18
TORSDOF 1
ENDMDL
MODEL      136
REMARK 921   NORMALIZED FREE ENERGY PREDICTED BY IDOCK:   -2.99 KCAL/MOL
REMARK 922        TOTAL FREE ENERGY PREDICTED BY IDOCK:   -3.81 KCAL/MOL
REMARK 923 INTER-LIGAND FREE ENERGY PREDICTED BY IDOCK:   -3.16 KCAL/MOL
REMARK 924 INTRA-LIGAND FREE ENERGY PREDICTED BY IDOCK:   -0.64 KCAL/MOL
REMARK 927      BINDING AFFINITY PREDICTED BY RF-SCORE:    0.00 PKD
ROOT
HETATM    1  C   UNL     1     -10.591   6.923  73.687  1.00  0.00    -0.371 C  
HETATM    2  C   UNL     1      -9.193   6.612  73.304  1.00  0.00    -0.129 A  
HETATM    3  N   UNL     1      -8.221   6.415  74.170  1.00  0.00    -0.117 NA 
HETATM    4  N   UNL     1      -7.042   6.346  73.483  1.00  0.00    -0.082 NA 
HETATM    5  C   UNL     1      -7.312   6.500  72.207  1.00  0.00    -0.090 A  
HETATM    6  C   UNL     1      -6.350   6.466  71.084  1.00  0.00    -0.048 C  
HETATM    7  N   UNL     1      -6.420   7.709  70.334  1.00  0.00    -0.038 NA 
HETATM    8  C   UNL     1      -7.463   8.020  69.647  1.00  0.00    -0.091 C  
HETATM    9  H   UNL     1      -5.625   8.347  70.353  1.00  0.00     0.000 HD 
HETATM   10  C   UNL     1      -9.390   7.100  68.371  1.00  0.00    -0.135 A  
HETATM   11  C   UNL     1      -8.727   7.198  69.610  1.00  0.00    -0.141 A  
HETATM   12  C   UNL     1      -9.332   6.642  70.760  1.00  0.00    -0.158 A  
HETATM   13 CL   UNL     1     -11.486   6.505  66.782  1.00  0.00     0.042 Cl 
HETATM   14  N   UNL     1      -8.670   6.615  72.018  1.00  0.00    -0.128 NA 
HETATM   15  C   UNL     1     -10.656   6.527  68.287  1.00  0.00    -0.249 A  
HETATM   16  C   UNL     1     -10.595   6.033  70.645  1.00  0.00    -0.322 A  
HETATM   17  C   UNL     1     -11.261   5.995  69.417  1.00  0.00    -0.397 A  
ENDROOT
BRANCH   8  18
HETATM   18  C   UNL     1      -7.416   9.304  68.853  1.00  0.00    -0.075 A  
HETATM   19  C   UNL     1      -8.143  11.626  68.634  1.00  0.00    -0.121 A  
HETATM   20  C   UNL     1      -6.808  10.620  66.900  1.00  0.00    -0.099 A  
HETATM   21  C   UNL     1      -8.075  10.440  69.368  1.00  0.00    -0.161 A  
HETATM   22  C   UNL     1      -7.510  11.716  67.400  1.00  0.00    -0.135 A  
HETATM   23  C   UNL     1      -6.764   9.412  67.611  1.00  0.00    -0.068 A  
HETATM   24 CL   UNL     1      -5.946   8.107  66.826  1.00  0.00    -0.051 Cl 
ENDBRANCH   8  18
TORSDOF 1
ENDMDL
MODEL      137
REMARK 921   NORMALIZED FREE ENERGY PREDICTED BY IDOCK:   -2.92 KCAL/MOL
REMARK 922        TOTAL FREE ENERGY PREDICTED BY IDOCK:   -3.73 KCAL/MOL
REMARK 923 INTER-LIGAND FREE ENERGY PREDICTED BY IDOCK:   -3.10 KCAL/MOL
REMARK 924 INTRA-LIGAND FREE ENERGY PREDICTED BY IDOCK:   -0.63 KCAL/MOL
REMARK 927      BINDING AFFINITY PREDICTED BY RF-SCORE:    0.00 PKD
ROOT
HETATM    1  C   UNL     1      -7.908   9.485  65.588  1.00  0.00    -0.101 C  
HETATM    2  C   UNL     1      -9.204   9.807  66.230  1.00  0.00    -0.164 A  
HETATM    3  N   UNL     1     -10.353   9.274  65.873  1.00  0.00    -0.010 NA 
HETATM    4  N   UNL     1     -11.353   9.929  66.533  1.00  0.00     0.540 NA 
HETATM    5  C   UNL     1     -10.800  10.852  67.286  1.00  0.00    -0.287 A  
HETATM    6  C   UNL     1     -11.491  11.786  68.202  1.00  0.00    -0.316 C  
HETATM    7  N   UNL     1     -11.178  13.158  67.839  1.00  0.00    -0.256 NA 
HETATM    8  C   UNL     1      -9.991  13.635  67.983  1.00  0.00    -0.247 C  
HETATM    9  H   UNL     1     -11.914  13.754  67.464  1.00  0.00     0.000 HD 
HETATM   10  C   UNL     1      -7.894  13.470  69.310  1.00  0.00     0.406 A  
HETATM   11  C   UNL     1      -8.805  12.828  68.449  1.00  0.00    -0.117 A  
HETATM   12  C   UNL     1      -8.506  11.532  67.972  1.00  0.00    -0.148 A  
HETATM   13 CL   UNL     1      -5.541  13.711  70.607  1.00  0.00    -0.149 Cl 
HETATM   14  N   UNL     1      -9.429  10.789  67.185  1.00  0.00    -0.159 NA 
HETATM   15  C   UNL     1      -6.680  12.869  69.633  1.00  0.00     0.091 A  
HETATM   16  C   UNL     1      -7.290  10.928  68.341  1.00  0.00    -0.094 A  
HETATM   17  C   UNL     1      -6.374  11.603  69.152  1.00  0.00    -0.084 A  
ENDROOT
BRANCH   8  18
HETATM   18  C   UNL     1      -9.779  15.090  67.636  1.00  0.00    -0.215 A  
HETATM   19  C   UNL     1      -8.771  16.729  66.131  1.00  0.00    -0.299 A  
HETATM   20  C   UNL     1      -9.950  17.472  68.095  1.00  0.00    -0.321 A  
HETATM   21  C   UNL     1      -9.077  15.405  66.454  1.00  0.00    -0.350 A  
HETATM   22  C   UNL     1      -9.208  17.763  66.951  1.00  0.00    -0.263 A  
HETATM   23  C   UNL     1     -10.231  16.145  68.450  1.00  0.00    -0.240 A  
HETATM   24 CL   UNL     1     -11.071  15.927  69.945  1.00  0.00    -0.313 Cl 
ENDBRANCH   8  18
TORSDOF 1
ENDMDL
MODEL      138
REMARK 921   NORMALIZED FREE ENERGY PREDICTED BY IDOCK:   -2.82 KCAL/MOL
REMARK 922        TOTAL FREE ENERGY PREDICTED BY IDOCK:   -3.63 KCAL/MOL
REMARK 923 INTER-LIGAND FREE ENERGY PREDICTED BY IDOCK:   -4.56 KCAL/MOL
REMARK 924 INTRA-LIGAND FREE ENERGY PREDICTED BY IDOCK:    0.93 KCAL/MOL
REMARK 927      BINDING AFFINITY PREDICTED BY RF-SCORE:    0.00 PKD
ROOT
HETATM    1  C   UNL     1      -7.004  15.254  69.776  1.00  0.00    -0.168 C  
HETATM    2  C   UNL     1      -8.357  15.048  69.207  1.00  0.00    -0.169 A  
HETATM    3  N   UNL     1      -9.353  15.896  69.356  1.00  0.00    -0.263 NA 
HETATM    4  N   UNL     1     -10.490  15.311  68.877  1.00  0.00    -0.232 NA 
HETATM    5  C   UNL     1     -10.172  14.114  68.440  1.00  0.00    -0.247 A  
HETATM    6  C   UNL     1     -11.074  13.128  67.806  1.00  0.00    -0.262 C  
HETATM    7  N   UNL     1     -11.055  11.884  68.556  1.00  0.00    -0.224 NA 
HETATM    8  C   UNL     1     -10.004  11.141  68.597  1.00  0.00    -0.205 C  
HETATM    9  H   UNL     1     -11.892  11.594  69.061  1.00  0.00     0.000 HD 
HETATM   10  C   UNL     1      -7.960  10.464  67.353  1.00  0.00    -0.107 A  
HETATM   11  C   UNL     1      -8.686  11.506  67.961  1.00  0.00    -0.151 A  
HETATM   12  C   UNL     1      -8.099  12.788  68.058  1.00  0.00    -0.162 A  
HETATM   13 CL   UNL     1      -5.754   9.359  66.263  1.00  0.00    -0.052 Cl 
HETATM   14  N   UNL     1      -8.817  13.906  68.567  1.00  0.00    -0.168 NA 
HETATM   15  C   UNL     1      -6.654  10.670  66.915  1.00  0.00    -0.086 A  
HETATM   16  C   UNL     1      -6.793  12.984  67.575  1.00  0.00    -0.156 A  
HETATM   17  C   UNL     1      -6.068  11.924  67.024  1.00  0.00    -0.149 A  
ENDROOT
BRANCH   8  18
HETATM   18  C   UNL     1     -10.102   9.838  69.353  1.00  0.00    -0.221 A  
HETATM   19  C   UNL     1      -9.340   7.530  69.601  1.00  0.00    -0.153 A  
HETATM   20  C   UNL     1     -11.112   8.364  71.004  1.00  0.00    -0.298 A  
HETATM   21  C   UNL     1      -9.232   8.786  68.999  1.00  0.00    -0.141 A  
HETATM   22  C   UNL     1     -10.280   7.319  70.603  1.00  0.00    -0.202 A  
HETATM   23  C   UNL     1     -11.038   9.618  70.381  1.00  0.00    -0.290 A  
HETATM   24 CL   UNL     1     -12.197  10.788  70.907  1.00  0.00    -0.456 Cl 
ENDBRANCH   8  18
TORSDOF 1
ENDMDL
MODEL      139
REMARK 921   NORMALIZED FREE ENERGY PREDICTED BY IDOCK:   -2.81 KCAL/MOL
REMARK 922        TOTAL FREE ENERGY PREDICTED BY IDOCK:   -3.61 KCAL/MOL
REMARK 923 INTER-LIGAND FREE ENERGY PREDICTED BY IDOCK:   -2.97 KCAL/MOL
REMARK 924 INTRA-LIGAND FREE ENERGY PREDICTED BY IDOCK:   -0.64 KCAL/MOL
REMARK 927      BINDING AFFINITY PREDICTED BY RF-SCORE:    0.00 PKD
ROOT
HETATM    1  C   UNL     1      -9.416   9.853  65.785  1.00  0.00    -0.280 C  
HETATM    2  C   UNL     1      -8.794   8.541  66.083  1.00  0.00    -0.167 A  
HETATM    3  N   UNL     1      -8.961   7.465  65.343  1.00  0.00     0.098 NA 
HETATM    4  N   UNL     1      -8.413   6.402  66.003  1.00  0.00    -0.138 NA 
HETATM    5  C   UNL     1      -7.917   6.845  67.136  1.00  0.00    -0.113 A  
HETATM    6  C   UNL     1      -7.199   6.057  68.162  1.00  0.00    -0.080 C  
HETATM    7  N   UNL     1      -7.877   6.177  69.442  1.00  0.00    -0.099 NA 
HETATM    8  C   UNL     1      -7.907   7.293  70.083  1.00  0.00    -0.100 C  
HETATM    9  H   UNL     1      -8.337   5.359  69.840  1.00  0.00     0.000 HD 
HETATM   10  C   UNL     1      -6.690   9.424  70.489  1.00  0.00    -0.087 A  
HETATM   11  C   UNL     1      -7.335   8.586  69.559  1.00  0.00    -0.065 A  
HETATM   12  C   UNL     1      -7.525   9.044  68.235  1.00  0.00    -0.083 A  
HETATM   13 CL   UNL     1      -5.608  11.753  71.312  1.00  0.00     0.039 Cl 
HETATM   14  N   UNL     1      -8.074   8.209  67.222  1.00  0.00    -0.119 NA 
HETATM   15  C   UNL     1      -6.306  10.714  70.133  1.00  0.00    -0.139 A  
HETATM   16  C   UNL     1      -7.094  10.337  67.887  1.00  0.00    -0.084 A  
HETATM   17  C   UNL     1      -6.506  11.174  68.839  1.00  0.00    -0.056 A  
ENDROOT
BRANCH   8  18
HETATM   18  C   UNL     1      -8.584   7.301  71.434  1.00  0.00    -0.115 A  
HETATM   19  C   UNL     1      -8.581   6.529  73.751  1.00  0.00    -0.134 A  
HETATM   20  C   UNL     1     -10.421   7.849  72.931  1.00  0.00    -0.422 A  
HETATM   21  C   UNL     1      -7.958   6.632  72.506  1.00  0.00    -0.102 A  
HETATM   22  C   UNL     1      -9.813   7.136  73.964  1.00  0.00    -0.314 A  
HETATM   23  C   UNL     1      -9.822   7.928  71.665  1.00  0.00    -0.167 A  
HETATM   24 CL   UNL     1     -10.736   8.755  70.452  1.00  0.00    -0.241 Cl 
ENDBRANCH   8  18
TORSDOF 1
ENDMDL
MODEL      140
REMARK 921   NORMALIZED FREE ENERGY PREDICTED BY IDOCK:   -2.71 KCAL/MOL
REMARK 922        TOTAL FREE ENERGY PREDICTED BY IDOCK:   -3.51 KCAL/MOL
REMARK 923 INTER-LIGAND FREE ENERGY PREDICTED BY IDOCK:   -2.88 KCAL/MOL
REMARK 924 INTRA-LIGAND FREE ENERGY PREDICTED BY IDOCK:   -0.63 KCAL/MOL
REMARK 927      BINDING AFFINITY PREDICTED BY RF-SCORE:    0.00 PKD
ROOT
HETATM    1  C   UNL     1      -8.525  11.476  66.236  1.00  0.00    -0.108 C  
HETATM    2  C   UNL     1      -8.724  10.014  66.097  1.00  0.00    -0.140 A  
HETATM    3  N   UNL     1      -9.284   9.446  65.049  1.00  0.00    -0.239 NA 
HETATM    4  N   UNL     1      -9.482   8.125  65.333  1.00  0.00     0.317 NA 
HETATM    5  C   UNL     1      -9.038   7.904  66.549  1.00  0.00    -0.170 A  
HETATM    6  C   UNL     1      -9.016   6.612  67.268  1.00  0.00    -0.115 C  
HETATM    7  N   UNL     1      -9.751   6.727  68.516  1.00  0.00    -0.132 NA 
HETATM    8  C   UNL     1      -9.320   7.460  69.483  1.00  0.00    -0.156 C  
HETATM    9  H   UNL     1     -10.626   6.216  68.629  1.00  0.00     0.000 HD 
HETATM   10  C   UNL     1      -7.279   8.392  70.557  1.00  0.00    -0.042 A  
HETATM   11  C   UNL     1      -8.086   8.323  69.405  1.00  0.00    -0.115 A  
HETATM   12  C   UNL     1      -7.778   9.148  68.299  1.00  0.00    -0.091 A  
HETATM   13 CL   UNL     1      -5.324   9.441  72.090  1.00  0.00    -0.076 Cl 
HETATM   14  N   UNL     1      -8.488   9.053  67.070  1.00  0.00    -0.119 NA 
HETATM   15  C   UNL     1      -6.234   9.309  70.638  1.00  0.00    -0.060 A  
HETATM   16  C   UNL     1      -6.694  10.040  68.388  1.00  0.00    -0.055 A  
HETATM   17  C   UNL     1      -5.939  10.133  69.561  1.00  0.00    -0.042 A  
ENDROOT
BRANCH   8  18
HETATM   18  C   UNL     1     -10.122   7.467  70.763  1.00  0.00    -0.190 A  
HETATM   19  C   UNL     1     -11.715   8.639  72.196  1.00  0.00    -0.442 A  
HETATM   20  C   UNL     1     -10.735   6.568  72.938  1.00  0.00    -0.280 A  
HETATM   21  C   UNL     1     -11.017   8.533  70.992  1.00  0.00    -0.296 A  
HETATM   22  C   UNL     1     -11.575   7.658  73.170  1.00  0.00    -0.012 A  
HETATM   23  C   UNL     1     -10.001   6.470  71.748  1.00  0.00    -0.176 A  
HETATM   24 CL   UNL     1      -8.924   5.121  71.638  1.00  0.00    -0.144 Cl 
ENDBRANCH   8  18
TORSDOF 1
ENDMDL
MODEL      141
REMARK 921   NORMALIZED FREE ENERGY PREDICTED BY IDOCK:   -2.68 KCAL/MOL
REMARK 922        TOTAL FREE ENERGY PREDICTED BY IDOCK:   -3.48 KCAL/MOL
REMARK 923 INTER-LIGAND FREE ENERGY PREDICTED BY IDOCK:   -3.60 KCAL/MOL
REMARK 924 INTRA-LIGAND FREE ENERGY PREDICTED BY IDOCK:    0.12 KCAL/MOL
REMARK 927      BINDING AFFINITY PREDICTED BY RF-SCORE:    0.00 PKD
ROOT
HETATM    1  C   UNL     1      -6.744  16.599  66.499  1.00  0.00    -0.086 C  
HETATM    2  C   UNL     1      -7.864  17.534  66.759  1.00  0.00    -0.230 A  
HETATM    3  N   UNL     1      -7.705  18.810  67.042  1.00  0.00    -0.231 NA 
HETATM    4  N   UNL     1      -8.917  19.322  67.409  1.00  0.00    -0.291 NA 
HETATM    5  C   UNL     1      -9.799  18.352  67.343  1.00  0.00    -0.313 A  
HETATM    6  C   UNL     1     -11.249  18.447  67.620  1.00  0.00     0.304 C  
HETATM    7  N   UNL     1     -11.617  17.507  68.665  1.00  0.00     0.513 NA 
HETATM    8  C   UNL     1     -11.570  16.235  68.470  1.00  0.00    -0.188 C  
HETATM    9  H   UNL     1     -11.918  17.863  69.572  1.00  0.00     0.000 HD 
HETATM   10  C   UNL     1     -11.748  14.447  66.750  1.00  0.00    -0.415 A  
HETATM   11  C   UNL     1     -11.064  15.591  67.203  1.00  0.00    -0.256 A  
HETATM   12  C   UNL     1      -9.886  15.998  66.537  1.00  0.00    -0.267 A  
HETATM   13 CL   UNL     1     -12.038  12.237  65.232  1.00  0.00    -0.425 Cl 
HETATM   14  N   UNL     1      -9.206  17.200  66.878  1.00  0.00    -0.234 NA 
HETATM   15  C   UNL     1     -11.237  13.682  65.704  1.00  0.00    -0.297 A  
HETATM   16  C   UNL     1      -9.407  15.232  65.459  1.00  0.00     0.001 A  
HETATM   17  C   UNL     1     -10.070  14.068  65.059  1.00  0.00    -0.323 A  
ENDROOT
BRANCH   8  18
HETATM   18  C   UNL     1     -12.029  15.341  69.597  1.00  0.00    -0.364 A  
HETATM   19  C   UNL     1     -13.577  14.985  71.452  1.00  0.00    -0.538 A  
HETATM   20  C   UNL     1     -11.811  13.399  71.045  1.00  0.00     0.185 A  
HETATM   21  C   UNL     1     -13.163  15.724  70.343  1.00  0.00     0.308 A  
HETATM   22  C   UNL     1     -12.902  13.823  71.804  1.00  0.00    -0.415 A  
HETATM   23  C   UNL     1     -11.363  14.153  69.951  1.00  0.00    -0.173 A  
HETATM   24 CL   UNL     1      -9.940  13.564  69.164  1.00  0.00     0.139 Cl 
ENDBRANCH   8  18
TORSDOF 1
ENDMDL
MODEL      142
REMARK 921   NORMALIZED FREE ENERGY PREDICTED BY IDOCK:   -2.63 KCAL/MOL
REMARK 922        TOTAL FREE ENERGY PREDICTED BY IDOCK:   -3.43 KCAL/MOL
REMARK 923 INTER-LIGAND FREE ENERGY PREDICTED BY IDOCK:   -4.42 KCAL/MOL
REMARK 924 INTRA-LIGAND FREE ENERGY PREDICTED BY IDOCK:    0.99 KCAL/MOL
REMARK 927      BINDING AFFINITY PREDICTED BY RF-SCORE:    0.00 PKD
ROOT
HETATM    1  C   UNL     1     -12.337   7.717  72.485  1.00  0.00    -0.135 C  
HETATM    2  C   UNL     1     -12.302   9.110  71.979  1.00  0.00    -0.377 A  
HETATM    3  N   UNL     1     -13.339   9.921  71.989  1.00  0.00    -0.442 NA 
HETATM    4  N   UNL     1     -13.013  11.043  71.282  1.00  0.00    -0.395 NA 
HETATM    5  C   UNL     1     -11.780  10.902  70.852  1.00  0.00    -0.164 A  
HETATM    6  C   UNL     1     -10.994  11.880  70.068  1.00  0.00     0.466 C  
HETATM    7  N   UNL     1     -10.551  11.276  68.824  1.00  0.00    -0.196 NA 
HETATM    8  C   UNL     1      -9.686  10.322  68.811  1.00  0.00    -0.177 C  
HETATM    9  H   UNL     1     -10.933  11.615  67.942  1.00  0.00     0.000 HD 
HETATM   10  C   UNL     1      -7.749   9.336  70.020  1.00  0.00    -0.104 A  
HETATM   11  C   UNL     1      -9.113   9.683  70.052  1.00  0.00    -0.269 A  
HETATM   12  C   UNL     1      -9.894   9.309  71.169  1.00  0.00    -0.272 A  
HETATM   13 CL   UNL     1      -5.545   8.078  70.934  1.00  0.00    -0.029 Cl 
HETATM   14  N   UNL     1     -11.249   9.719  71.310  1.00  0.00    -0.370 NA 
HETATM   15  C   UNL     1      -7.188   8.572  71.041  1.00  0.00    -0.071 A  
HETATM   16  C   UNL     1      -9.297   8.571  72.207  1.00  0.00    -0.363 A  
HETATM   17  C   UNL     1      -7.955   8.188  72.132  1.00  0.00    -0.168 A  
ENDROOT
BRANCH   8  18
HETATM   18  C   UNL     1      -9.244   9.801  67.464  1.00  0.00    -0.145 A  
HETATM   19  C   UNL     1      -7.718   8.372  66.201  1.00  0.00    -0.097 A  
HETATM   20  C   UNL     1      -9.285   9.779  65.032  1.00  0.00    -0.307 A  
HETATM   21  C   UNL     1      -8.230   8.822  67.420  1.00  0.00    -0.109 A  
HETATM   22  C   UNL     1      -8.244   8.851  65.007  1.00  0.00    -0.154 A  
HETATM   23  C   UNL     1      -9.782  10.266  66.250  1.00  0.00    -0.209 A  
HETATM   24 CL   UNL     1     -11.000  11.488  66.130  1.00  0.00    -0.337 Cl 
ENDBRANCH   8  18
TORSDOF 1
ENDMDL
MODEL      143
REMARK 921   NORMALIZED FREE ENERGY PREDICTED BY IDOCK:   -2.61 KCAL/MOL
REMARK 922        TOTAL FREE ENERGY PREDICTED BY IDOCK:   -3.41 KCAL/MOL
REMARK 923 INTER-LIGAND FREE ENERGY PREDICTED BY IDOCK:   -2.76 KCAL/MOL
REMARK 924 INTRA-LIGAND FREE ENERGY PREDICTED BY IDOCK:   -0.64 KCAL/MOL
REMARK 927      BINDING AFFINITY PREDICTED BY RF-SCORE:    0.00 PKD
ROOT
HETATM    1  C   UNL     1      -9.317   3.393  66.986  1.00  0.00    -0.212 C  
HETATM    2  C   UNL     1      -8.404   4.140  67.882  1.00  0.00    -0.094 A  
HETATM    3  N   UNL     1      -8.172   3.810  69.136  1.00  0.00    -0.060 NA 
HETATM    4  N   UNL     1      -7.445   4.810  69.715  1.00  0.00    -0.055 NA 
HETATM    5  C   UNL     1      -7.241   5.736  68.807  1.00  0.00    -0.082 A  
HETATM    6  C   UNL     1      -6.474   6.991  68.971  1.00  0.00    -0.036 C  
HETATM    7  N   UNL     1      -7.318   8.131  68.661  1.00  0.00    -0.087 NA 
HETATM    8  C   UNL     1      -7.737   8.350  67.462  1.00  0.00    -0.099 C  
HETATM    9  H   UNL     1      -7.585   8.772  69.407  1.00  0.00     0.000 HD 
HETATM   10  C   UNL     1      -7.213   8.036  65.051  1.00  0.00    -0.069 A  
HETATM   11  C   UNL     1      -7.477   7.431  66.295  1.00  0.00    -0.083 A  
HETATM   12  C   UNL     1      -7.611   6.026  66.362  1.00  0.00    -0.094 A  
HETATM   13 CL   UNL     1      -6.926   8.043  62.370  1.00  0.00    -0.086 Cl 
HETATM   14  N   UNL     1      -7.775   5.345  67.600  1.00  0.00    -0.091 NA 
HETATM   15  C   UNL     1      -7.154   7.272  63.889  1.00  0.00    -0.068 A  
HETATM   16  C   UNL     1      -7.510   5.269  65.181  1.00  0.00    -0.073 A  
HETATM   17  C   UNL     1      -7.302   5.893  63.948  1.00  0.00    -0.061 A  
ENDROOT
BRANCH   8  18
HETATM   18  C   UNL     1      -8.558   9.596  67.229  1.00  0.00    -0.132 A  
HETATM   19  C   UNL     1      -8.631  12.035  67.129  1.00  0.00    -0.182 A  
HETATM   20  C   UNL     1     -10.660  10.765  66.862  1.00  0.00    -0.312 A  
HETATM   21  C   UNL     1      -7.908  10.847  67.247  1.00  0.00    -0.116 A  
HETATM   22  C   UNL     1     -10.007  11.995  66.937  1.00  0.00    -0.218 A  
HETATM   23  C   UNL     1      -9.949   9.566  67.016  1.00  0.00    -0.213 A  
HETATM   24 CL   UNL     1     -10.900   8.121  67.003  1.00  0.00    -0.241 Cl 
ENDBRANCH   8  18
TORSDOF 1
ENDMDL
MODEL      144
REMARK 921   NORMALIZED FREE ENERGY PREDICTED BY IDOCK:   -2.60 KCAL/MOL
REMARK 922        TOTAL FREE ENERGY PREDICTED BY IDOCK:   -3.40 KCAL/MOL
REMARK 923 INTER-LIGAND FREE ENERGY PREDICTED BY IDOCK:   -3.04 KCAL/MOL
REMARK 924 INTRA-LIGAND FREE ENERGY PREDICTED BY IDOCK:   -0.35 KCAL/MOL
REMARK 927      BINDING AFFINITY PREDICTED BY RF-SCORE:    0.00 PKD
ROOT
HETATM    1  C   UNL     1     -11.460   4.956  73.165  1.00  0.00    -0.362 C  
HETATM    2  C   UNL     1     -10.257   5.781  73.425  1.00  0.00    -0.209 A  
HETATM    3  N   UNL     1     -10.137   6.603  74.447  1.00  0.00    -0.357 NA 
HETATM    4  N   UNL     1      -8.998   7.337  74.275  1.00  0.00    -0.217 NA 
HETATM    5  C   UNL     1      -8.437   6.951  73.152  1.00  0.00    -0.117 A  
HETATM    6  C   UNL     1      -7.168   7.446  72.575  1.00  0.00    -0.072 C  
HETATM    7  N   UNL     1      -7.402   7.969  71.240  1.00  0.00    -0.063 NA 
HETATM    8  C   UNL     1      -7.735   7.196  70.265  1.00  0.00    -0.095 C  
HETATM    9  H   UNL     1      -7.299   8.969  71.071  1.00  0.00     0.000 HD 
HETATM   10  C   UNL     1      -7.550   4.885  69.366  1.00  0.00    -0.060 A  
HETATM   11  C   UNL     1      -7.997   5.718  70.409  1.00  0.00    -0.105 A  
HETATM   12  C   UNL     1      -8.764   5.158  71.456  1.00  0.00    -0.133 A  
HETATM   13 CL   UNL     1      -7.439   2.567  67.990  1.00  0.00    -0.055 Cl 
HETATM   14  N   UNL     1      -9.157   5.922  72.590  1.00  0.00    -0.131 NA 
HETATM   15  C   UNL     1      -7.916   3.542  69.324  1.00  0.00    -0.050 A  
HETATM   16  C   UNL     1      -9.090   3.791  71.413  1.00  0.00    -0.177 A  
HETATM   17  C   UNL     1      -8.684   2.992  70.341  1.00  0.00    -0.127 A  
ENDROOT
BRANCH   8  18
HETATM   18  C   UNL     1      -7.896   7.825  68.902  1.00  0.00    -0.122 A  
HETATM   19  C   UNL     1      -9.361   8.959  67.309  1.00  0.00    -0.173 A  
HETATM   20  C   UNL     1      -7.122   8.357  66.658  1.00  0.00    -0.073 A  
HETATM   21  C   UNL     1      -9.124   8.443  68.585  1.00  0.00    -0.140 A  
HETATM   22  C   UNL     1      -8.361   8.916  66.345  1.00  0.00    -0.117 A  
HETATM   23  C   UNL     1      -6.885   7.802  67.924  1.00  0.00    -0.068 A  
HETATM   24 CL   UNL     1      -5.341   7.053  68.139  1.00  0.00    -0.019 Cl 
ENDBRANCH   8  18
TORSDOF 1
ENDMDL
MODEL      145
REMARK 921   NORMALIZED FREE ENERGY PREDICTED BY IDOCK:   -2.59 KCAL/MOL
REMARK 922        TOTAL FREE ENERGY PREDICTED BY IDOCK:   -3.38 KCAL/MOL
REMARK 923 INTER-LIGAND FREE ENERGY PREDICTED BY IDOCK:   -2.75 KCAL/MOL
REMARK 924 INTRA-LIGAND FREE ENERGY PREDICTED BY IDOCK:   -0.63 KCAL/MOL
REMARK 927      BINDING AFFINITY PREDICTED BY RF-SCORE:    0.00 PKD
ROOT
HETATM    1  C   UNL     1     -10.876   3.998  64.569  1.00  0.00    -0.142 C  
HETATM    2  C   UNL     1      -9.420   4.142  64.805  1.00  0.00    -0.170 A  
HETATM    3  N   UNL     1      -8.495   3.700  63.979  1.00  0.00    -0.090 NA 
HETATM    4  N   UNL     1      -7.280   3.826  64.589  1.00  0.00    -0.065 NA 
HETATM    5  C   UNL     1      -7.480   4.345  65.779  1.00  0.00    -0.081 A  
HETATM    6  C   UNL     1      -6.451   4.690  66.784  1.00  0.00    -0.045 C  
HETATM    7  N   UNL     1      -6.717   3.986  68.027  1.00  0.00    -0.046 NA 
HETATM    8  C   UNL     1      -7.748   4.262  68.746  1.00  0.00    -0.066 C  
HETATM    9  H   UNL     1      -6.073   3.258  68.335  1.00  0.00     0.000 HD 
HETATM   10  C   UNL     1      -9.347   6.059  69.380  1.00  0.00    -0.146 A  
HETATM   11  C   UNL     1      -8.812   5.257  68.354  1.00  0.00    -0.105 A  
HETATM   12  C   UNL     1      -9.374   5.330  67.059  1.00  0.00    -0.122 A  
HETATM   13 CL   UNL     1     -11.154   7.759  70.437  1.00  0.00    -0.263 Cl 
HETATM   14  N   UNL     1      -8.815   4.626  65.957  1.00  0.00    -0.118 NA 
HETATM   15  C   UNL     1     -10.460   6.863  69.145  1.00  0.00    -0.207 A  
HETATM   16  C   UNL     1     -10.474   6.177  66.835  1.00  0.00    -0.340 A  
HETATM   17  C   UNL     1     -11.025   6.924  67.879  1.00  0.00    -0.260 A  
ENDROOT
BRANCH   8  18
HETATM   18  C   UNL     1      -7.905   3.519  70.051  1.00  0.00    -0.049 A  
HETATM   19  C   UNL     1      -9.037   1.749  71.298  1.00  0.00    -0.142 A  
HETATM   20  C   UNL     1      -7.469   3.190  72.422  1.00  0.00    -0.056 A  
HETATM   21  C   UNL     1      -8.783   2.415  70.098  1.00  0.00    -0.121 A  
HETATM   22  C   UNL     1      -8.381   2.136  72.460  1.00  0.00    -0.055 A  
HETATM   23  C   UNL     1      -7.233   3.891  71.230  1.00  0.00    -0.033 A  
HETATM   24 CL   UNL     1      -6.157   5.239  71.351  1.00  0.00    -0.028 Cl 
ENDBRANCH   8  18
TORSDOF 1
ENDMDL
MODEL      146
REMARK 921   NORMALIZED FREE ENERGY PREDICTED BY IDOCK:   -2.58 KCAL/MOL
REMARK 922        TOTAL FREE ENERGY PREDICTED BY IDOCK:   -3.37 KCAL/MOL
REMARK 923 INTER-LIGAND FREE ENERGY PREDICTED BY IDOCK:   -3.18 KCAL/MOL
REMARK 924 INTRA-LIGAND FREE ENERGY PREDICTED BY IDOCK:   -0.19 KCAL/MOL
REMARK 927      BINDING AFFINITY PREDICTED BY RF-SCORE:    0.00 PKD
ROOT
HETATM    1  C   UNL     1     -10.326   4.313  65.277  1.00  0.00    -0.220 C  
HETATM    2  C   UNL     1      -8.965   4.314  65.863  1.00  0.00    -0.124 A  
HETATM    3  N   UNL     1      -7.967   3.589  65.403  1.00  0.00    -0.089 NA 
HETATM    4  N   UNL     1      -6.927   3.683  66.284  1.00  0.00    -0.061 NA 
HETATM    5  C   UNL     1      -7.305   4.465  67.269  1.00  0.00    -0.073 A  
HETATM    6  C   UNL     1      -6.496   4.880  68.436  1.00  0.00    -0.037 C  
HETATM    7  N   UNL     1      -7.170   4.499  69.665  1.00  0.00    -0.050 NA 
HETATM    8  C   UNL     1      -8.274   5.055  70.025  1.00  0.00    -0.081 C  
HETATM    9  H   UNL     1      -6.759   3.777  70.256  1.00  0.00     0.000 HD 
HETATM   10  C   UNL     1      -9.626   7.138  69.888  1.00  0.00    -0.163 A  
HETATM   11  C   UNL     1      -9.018   6.072  69.197  1.00  0.00    -0.124 A  
HETATM   12  C   UNL     1      -9.237   5.939  67.807  1.00  0.00    -0.108 A  
HETATM   13 CL   UNL     1     -11.294   9.245  70.114  1.00  0.00    -0.230 Cl 
HETATM   14  N   UNL     1      -8.571   4.949  67.033  1.00  0.00    -0.105 NA 
HETATM   15  C   UNL     1     -10.489   8.010  69.230  1.00  0.00    -0.215 A  
HETATM   16  C   UNL     1     -10.082   6.855  67.154  1.00  0.00    -0.272 A  
HETATM   17  C   UNL     1     -10.720   7.873  67.868  1.00  0.00    -0.147 A  
ENDROOT
BRANCH   8  18
HETATM   18  C   UNL     1      -8.866   4.634  71.350  1.00  0.00    -0.151 A  
HETATM   19  C   UNL     1      -9.235   5.156  73.707  1.00  0.00    -0.125 A  
HETATM   20  C   UNL     1      -9.950   3.033  72.825  1.00  0.00    -0.214 A  
HETATM   21  C   UNL     1      -8.788   5.528  72.437  1.00  0.00    -0.135 A  
HETATM   22  C   UNL     1      -9.816   3.909  73.902  1.00  0.00    -0.151 A  
HETATM   23  C   UNL     1      -9.472   3.380  71.554  1.00  0.00    -0.153 A  
HETATM   24 CL   UNL     1      -9.612   2.159  70.337  1.00  0.00    -0.154 Cl 
ENDBRANCH   8  18
TORSDOF 1
ENDMDL
MODEL      147
REMARK 921   NORMALIZED FREE ENERGY PREDICTED BY IDOCK:   -2.33 KCAL/MOL
REMARK 922        TOTAL FREE ENERGY PREDICTED BY IDOCK:   -3.11 KCAL/MOL
REMARK 923 INTER-LIGAND FREE ENERGY PREDICTED BY IDOCK:   -2.49 KCAL/MOL
REMARK 924 INTRA-LIGAND FREE ENERGY PREDICTED BY IDOCK:   -0.63 KCAL/MOL
REMARK 927      BINDING AFFINITY PREDICTED BY RF-SCORE:    0.00 PKD
ROOT
HETATM    1  C   UNL     1      -6.466  13.274  70.059  1.00  0.00     0.066 C  
HETATM    2  C   UNL     1      -6.818  12.643  68.765  1.00  0.00    -0.096 A  
HETATM    3  N   UNL     1      -7.120  13.320  67.676  1.00  0.00    -0.148 NA 
HETATM    4  N   UNL     1      -7.574  12.439  66.736  1.00  0.00     0.057 NA 
HETATM    5  C   UNL     1      -7.542  11.237  67.264  1.00  0.00    -0.130 A  
HETATM    6  C   UNL     1      -7.913   9.965  66.605  1.00  0.00    -0.113 C  
HETATM    7  N   UNL     1      -8.958   9.300  67.365  1.00  0.00    -0.124 NA 
HETATM    8  C   UNL     1      -8.731   8.817  68.537  1.00  0.00    -0.135 C  
HETATM    9  H   UNL     1      -9.890   9.214  66.961  1.00  0.00     0.000 HD 
HETATM   10  C   UNL     1      -6.985   7.846  70.019  1.00  0.00    -0.049 A  
HETATM   11  C   UNL     1      -7.420   8.956  69.270  1.00  0.00    -0.075 A  
HETATM   12  C   UNL     1      -6.689  10.164  69.343  1.00  0.00    -0.065 A  
HETATM   13 CL   UNL     1      -5.438   6.611  71.851  1.00  0.00    -0.031 Cl 
HETATM   14  N   UNL     1      -7.014  11.289  68.534  1.00  0.00    -0.073 NA 
HETATM   15  C   UNL     1      -5.892   7.952  70.875  1.00  0.00    -0.034 A  
HETATM   16  C   UNL     1      -5.566  10.238  70.186  1.00  0.00    -0.053 A  
HETATM   17  C   UNL     1      -5.183   9.141  70.963  1.00  0.00    -0.031 A  
ENDROOT
BRANCH   8  18
HETATM   18  C   UNL     1      -9.864   8.091  69.222  1.00  0.00    -0.178 A  
HETATM   19  C   UNL     1     -11.260   6.090  69.347  1.00  0.00    -0.397 A  
HETATM   20  C   UNL     1     -11.721   7.963  70.788  1.00  0.00    -0.230 A  
HETATM   21  C   UNL     1     -10.166   6.775  68.814  1.00  0.00    -0.184 A  
HETATM   22  C   UNL     1     -12.038   6.684  70.333  1.00  0.00    -0.251 A  
HETATM   23  C   UNL     1     -10.647   8.676  70.234  1.00  0.00    -0.223 A  
HETATM   24 CL   UNL     1     -10.433  10.288  70.820  1.00  0.00     0.007 Cl 
ENDBRANCH   8  18
TORSDOF 1
ENDMDL
MODEL      148
REMARK 921   NORMALIZED FREE ENERGY PREDICTED BY IDOCK:   -2.32 KCAL/MOL
REMARK 922        TOTAL FREE ENERGY PREDICTED BY IDOCK:   -3.10 KCAL/MOL
REMARK 923 INTER-LIGAND FREE ENERGY PREDICTED BY IDOCK:   -3.07 KCAL/MOL
REMARK 924 INTRA-LIGAND FREE ENERGY PREDICTED BY IDOCK:   -0.03 KCAL/MOL
REMARK 927      BINDING AFFINITY PREDICTED BY RF-SCORE:    0.00 PKD
ROOT
HETATM    1  C   UNL     1      -9.456   4.028  73.077  1.00  0.00    -0.145 C  
HETATM    2  C   UNL     1      -8.445   5.104  72.955  1.00  0.00    -0.111 A  
HETATM    3  N   UNL     1      -7.894   5.714  73.984  1.00  0.00    -0.100 NA 
HETATM    4  N   UNL     1      -7.163   6.768  73.516  1.00  0.00    -0.079 NA 
HETATM    5  C   UNL     1      -7.276   6.786  72.207  1.00  0.00    -0.086 A  
HETATM    6  C   UNL     1      -6.630   7.732  71.271  1.00  0.00    -0.041 C  
HETATM    7  N   UNL     1      -7.640   8.408  70.475  1.00  0.00    -0.070 NA 
HETATM    8  C   UNL     1      -8.346   7.772  69.606  1.00  0.00    -0.129 C  
HETATM    9  H   UNL     1      -7.792   9.407  70.608  1.00  0.00     0.000 HD 
HETATM   10  C   UNL     1      -8.366   5.833  68.049  1.00  0.00    -0.103 A  
HETATM   11  C   UNL     1      -8.268   6.283  69.379  1.00  0.00    -0.114 A  
HETATM   12  C   UNL     1      -8.233   5.334  70.426  1.00  0.00    -0.103 A  
HETATM   13 CL   UNL     1      -8.712   3.957  66.142  1.00  0.00    -0.112 Cl 
HETATM   14  N   UNL     1      -8.031   5.717  71.781  1.00  0.00    -0.112 NA 
HETATM   15  C   UNL     1      -8.497   4.475  67.767  1.00  0.00    -0.102 A  
HETATM   16  C   UNL     1      -8.329   3.965  70.116  1.00  0.00    -0.083 A  
HETATM   17  C   UNL     1      -8.480   3.541  68.793  1.00  0.00    -0.103 A  
ENDROOT
BRANCH   8  18
HETATM   18  C   UNL     1      -9.327   8.574  68.785  1.00  0.00    -0.143 A  
HETATM   19  C   UNL     1      -9.921   9.511  66.609  1.00  0.00    -0.314 A  
HETATM   20  C   UNL     1     -11.288   9.992  68.533  1.00  0.00    -0.115 A  
HETATM   21  C   UNL     1      -9.099   8.706  67.400  1.00  0.00    -0.148 A  
HETATM   22  C   UNL     1     -11.015  10.155  67.175  1.00  0.00    -0.204 A  
HETATM   23  C   UNL     1     -10.448   9.216  69.345  1.00  0.00    -0.219 A  
HETATM   24 CL   UNL     1     -10.847   9.185  71.027  1.00  0.00    -0.332 Cl 
ENDBRANCH   8  18
TORSDOF 1
ENDMDL
MODEL      149
REMARK 921   NORMALIZED FREE ENERGY PREDICTED BY IDOCK:   -2.16 KCAL/MOL
REMARK 922        TOTAL FREE ENERGY PREDICTED BY IDOCK:   -2.92 KCAL/MOL
REMARK 923 INTER-LIGAND FREE ENERGY PREDICTED BY IDOCK:   -2.99 KCAL/MOL
REMARK 924 INTRA-LIGAND FREE ENERGY PREDICTED BY IDOCK:    0.07 KCAL/MOL
REMARK 927      BINDING AFFINITY PREDICTED BY RF-SCORE:    0.00 PKD
ROOT
HETATM    1  C   UNL     1     -10.278  20.085  66.196  1.00  0.00    -0.589 C  
HETATM    2  C   UNL     1      -8.879  19.803  66.595  1.00  0.00    -0.359 A  
HETATM    3  N   UNL     1      -7.831  20.408  66.076  1.00  0.00    -0.116 NA 
HETATM    4  N   UNL     1      -6.706  19.778  66.526  1.00  0.00    -0.197 NA 
HETATM    5  C   UNL     1      -7.083  18.797  67.313  1.00  0.00    -0.205 A  
HETATM    6  C   UNL     1      -6.206  17.862  68.053  1.00  0.00    -0.169 C  
HETATM    7  N   UNL     1      -6.517  16.493  67.680  1.00  0.00    -0.134 NA 
HETATM    8  C   UNL     1      -7.641  15.949  67.997  1.00  0.00    -0.129 C  
HETATM    9  H   UNL     1      -5.830  15.951  67.157  1.00  0.00     0.000 HD 
HETATM   10  C   UNL     1      -9.487  15.952  69.664  1.00  0.00    -0.148 A  
HETATM   11  C   UNL     1      -8.764  16.675  68.695  1.00  0.00    -0.250 A  
HETATM   12  C   UNL     1      -9.196  17.973  68.340  1.00  0.00    -0.294 A  
HETATM   13 CL   UNL     1     -11.571  15.536  71.324  1.00  0.00    -0.412 Cl 
HETATM   14  N   UNL     1      -8.453  18.794  67.448  1.00  0.00    -0.270 NA 
HETATM   15  C   UNL     1     -10.653  16.476  70.216  1.00  0.00     0.032 A  
HETATM   16  C   UNL     1     -10.356  18.498  68.938  1.00  0.00    -0.147 A  
HETATM   17  C   UNL     1     -11.091  17.743  69.856  1.00  0.00     1.653 A  
ENDROOT
BRANCH   8  18
HETATM   18  C   UNL     1      -7.845  14.502  67.618  1.00  0.00    -0.194 A  
HETATM   19  C   UNL     1      -9.395  12.749  66.916  1.00  0.00    -0.234 A  
HETATM   20  C   UNL     1      -7.097  12.200  67.380  1.00  0.00    -0.146 A  
HETATM   21  C   UNL     1      -9.125  14.091  67.190  1.00  0.00    -0.239 A  
HETATM   22  C   UNL     1      -8.382  11.803  67.011  1.00  0.00    -0.172 A  
HETATM   23  C   UNL     1      -6.822  13.539  67.694  1.00  0.00    -0.170 A  
HETATM   24 CL   UNL     1      -5.213  13.870  68.234  1.00  0.00    -0.103 Cl 
ENDBRANCH   8  18
TORSDOF 1
ENDMDL
MODEL      150
REMARK 921   NORMALIZED FREE ENERGY PREDICTED BY IDOCK:   -1.70 KCAL/MOL
REMARK 922        TOTAL FREE ENERGY PREDICTED BY IDOCK:   -2.44 KCAL/MOL
REMARK 923 INTER-LIGAND FREE ENERGY PREDICTED BY IDOCK:   -2.13 KCAL/MOL
REMARK 924 INTRA-LIGAND FREE ENERGY PREDICTED BY IDOCK:   -0.31 KCAL/MOL
REMARK 927      BINDING AFFINITY PREDICTED BY RF-SCORE:    0.00 PKD
ROOT
HETATM    1  C   UNL     1      -8.322   1.935  68.149  1.00  0.00    -0.077 C  
HETATM    2  C   UNL     1      -7.565   2.751  69.128  1.00  0.00    -0.047 A  
HETATM    3  N   UNL     1      -7.302   2.365  70.359  1.00  0.00    -0.033 NA 
HETATM    4  N   UNL     1      -6.765   3.423  71.035  1.00  0.00    -0.031 NA 
HETATM    5  C   UNL     1      -6.705   4.440  70.206  1.00  0.00    -0.033 A  
HETATM    6  C   UNL     1      -6.165   5.788  70.489  1.00  0.00    -0.031 C  
HETATM    7  N   UNL     1      -7.185   6.792  70.240  1.00  0.00    -0.074 NA 
HETATM    8  C   UNL     1      -7.613   7.034  69.050  1.00  0.00    -0.104 C  
HETATM    9  H   UNL     1      -7.570   7.317  71.025  1.00  0.00     0.000 HD 
HETATM   10  C   UNL     1      -7.002   7.006  66.639  1.00  0.00    -0.073 A  
HETATM   11  C   UNL     1      -7.182   6.268  67.825  1.00  0.00    -0.083 A  
HETATM   12  C   UNL     1      -7.077   4.858  67.781  1.00  0.00    -0.062 A  
HETATM   13 CL   UNL     1      -6.673   7.276  63.976  1.00  0.00    -0.047 Cl 
HETATM   14  N   UNL     1      -7.144   4.063  68.958  1.00  0.00    -0.050 NA 
HETATM   15  C   UNL     1      -6.794   6.358  65.424  1.00  0.00    -0.048 A  
HETATM   16  C   UNL     1      -6.828   4.227  66.549  1.00  0.00    -0.055 A  
HETATM   17  C   UNL     1      -6.707   4.974  65.374  1.00  0.00    -0.052 A  
ENDROOT
BRANCH   8  18
HETATM   18  C   UNL     1      -8.630   8.138  68.887  1.00  0.00    -0.130 A  
HETATM   19  C   UNL     1     -10.762   8.860  67.937  1.00  0.00    -0.185 A  
HETATM   20  C   UNL     1      -9.389  10.436  69.135  1.00  0.00    -0.211 A  
HETATM   21  C   UNL     1      -9.828   7.855  68.198  1.00  0.00    -0.193 A  
HETATM   22  C   UNL     1     -10.543  10.151  68.404  1.00  0.00    -0.249 A  
HETATM   23  C   UNL     1      -8.427   9.443  69.371  1.00  0.00    -0.142 A  
HETATM   24 CL   UNL     1      -7.000   9.961  70.200  1.00  0.00    -0.121 Cl 
ENDBRANCH   8  18
TORSDOF 1
ENDMDL
MODEL      151
REMARK 921   NORMALIZED FREE ENERGY PREDICTED BY IDOCK:   -1.58 KCAL/MOL
REMARK 922        TOTAL FREE ENERGY PREDICTED BY IDOCK:   -2.32 KCAL/MOL
REMARK 923 INTER-LIGAND FREE ENERGY PREDICTED BY IDOCK:   -2.47 KCAL/MOL
REMARK 924 INTRA-LIGAND FREE ENERGY PREDICTED BY IDOCK:    0.16 KCAL/MOL
REMARK 927      BINDING AFFINITY PREDICTED BY RF-SCORE:    0.00 PKD
ROOT
HETATM    1  C   UNL     1      -5.263  18.714  70.444  1.00  0.00    -0.234 C  
HETATM    2  C   UNL     1      -6.384  19.112  69.560  1.00  0.00    -0.285 A  
HETATM    3  N   UNL     1      -6.660  20.360  69.242  1.00  0.00    -0.206 NA 
HETATM    4  N   UNL     1      -7.854  20.379  68.579  1.00  0.00     0.095 NA 
HETATM    5  C   UNL     1      -8.290  19.142  68.501  1.00  0.00    -0.364 A  
HETATM    6  C   UNL     1      -9.529  18.675  67.841  1.00  0.00    -0.303 C  
HETATM    7  N   UNL     1     -10.360  17.963  68.796  1.00  0.00    -0.359 NA 
HETATM    8  C   UNL     1      -9.998  16.829  69.287  1.00  0.00    -0.206 C  
HETATM    9  H   UNL     1     -11.249  18.370  69.084  1.00  0.00     0.000 HD 
HETATM   10  C   UNL     1      -8.674  14.769  68.851  1.00  0.00    -0.161 A  
HETATM   11  C   UNL     1      -8.672  16.169  69.003  1.00  0.00    -0.254 A  
HETATM   12  C   UNL     1      -7.438  16.859  69.008  1.00  0.00    -0.220 A  
HETATM   13 CL   UNL     1      -7.503  12.345  68.690  1.00  0.00    -0.111 Cl 
HETATM   14  N   UNL     1      -7.372  18.279  69.054  1.00  0.00    -0.245 NA 
HETATM   15  C   UNL     1      -7.477  14.061  68.778  1.00  0.00    -0.124 A  
HETATM   16  C   UNL     1      -6.242  16.127  68.896  1.00  0.00    -0.132 A  
HETATM   17  C   UNL     1      -6.263  14.733  68.801  1.00  0.00    -0.083 A  
ENDROOT
BRANCH   8  18
HETATM   18  C   UNL     1     -10.958  16.138  70.226  1.00  0.00    -0.345 A  
HETATM   19  C   UNL     1     -12.383  14.204  70.670  1.00  0.00    -0.435 A  
HETATM   20  C   UNL     1     -12.362  16.055  72.211  1.00  0.00    -0.570 A  
HETATM   21  C   UNL     1     -11.424  14.851  69.887  1.00  0.00    -0.321 A  
HETATM   22  C   UNL     1     -12.853  14.806  71.831  1.00  0.00    -0.395 A  
HETATM   23  C   UNL     1     -11.427  16.730  71.414  1.00  0.00     0.348 A  
HETATM   24 CL   UNL     1     -10.983  18.313  71.952  1.00  0.00     2.439 Cl 
ENDBRANCH   8  18
TORSDOF 1
ENDMDL
MODEL      152
REMARK 921   NORMALIZED FREE ENERGY PREDICTED BY IDOCK:   -0.85 KCAL/MOL
REMARK 922        TOTAL FREE ENERGY PREDICTED BY IDOCK:   -1.54 KCAL/MOL
REMARK 923 INTER-LIGAND FREE ENERGY PREDICTED BY IDOCK:   -2.12 KCAL/MOL
REMARK 924 INTRA-LIGAND FREE ENERGY PREDICTED BY IDOCK:    0.58 KCAL/MOL
REMARK 927      BINDING AFFINITY PREDICTED BY RF-SCORE:    0.00 PKD
ROOT
HETATM    1  C   UNL     1     -11.647   6.178  69.258  1.00  0.00     0.047 C  
HETATM    2  C   UNL     1     -10.791   6.645  70.374  1.00  0.00    -0.266 A  
HETATM    3  N   UNL     1     -11.257   7.072  71.529  1.00  0.00    -0.243 NA 
HETATM    4  N   UNL     1     -10.219   7.599  72.242  1.00  0.00    -0.203 NA 
HETATM    5  C   UNL     1      -9.132   7.487  71.513  1.00  0.00    -0.135 A  
HETATM    6  C   UNL     1      -7.761   7.894  71.890  1.00  0.00    -0.093 C  
HETATM    7  N   UNL     1      -7.240   8.840  70.918  1.00  0.00    -0.073 NA 
HETATM    8  C   UNL     1      -6.979   8.484  69.708  1.00  0.00    -0.047 C  
HETATM    9  H   UNL     1      -7.079   9.806  71.201  1.00  0.00     0.000 HD 
HETATM   10  C   UNL     1      -6.299   6.575  68.266  1.00  0.00    -0.037 A  
HETATM   11  C   UNL     1      -7.254   7.109  69.153  1.00  0.00    -0.086 A  
HETATM   12  C   UNL     1      -8.458   6.403  69.376  1.00  0.00    -0.126 A  
HETATM   13 CL   UNL     1      -5.424   4.823  66.413  1.00  0.00    -0.013 Cl 
HETATM   14  N   UNL     1      -9.416   6.834  70.335  1.00  0.00    -0.166 NA 
HETATM   15  C   UNL     1      -6.563   5.403  67.561  1.00  0.00    -0.053 A  
HETATM   16  C   UNL     1      -8.688   5.201  68.681  1.00  0.00    -0.098 A  
HETATM   17  C   UNL     1      -7.752   4.716  67.764  1.00  0.00    -0.082 A  
ENDROOT
BRANCH   8  18
HETATM   18  C   UNL     1      -6.384   9.525  68.790  1.00  0.00    -0.047 A  
HETATM   19  C   UNL     1      -5.848  10.200  66.504  1.00  0.00    -0.060 A  
HETATM   20  C   UNL     1      -5.156  11.579  68.353  1.00  0.00    -0.039 A  
HETATM   21  C   UNL     1      -6.462   9.318  67.397  1.00  0.00    -0.063 A  
HETATM   22  C   UNL     1      -5.195  11.330  66.982  1.00  0.00    -0.073 A  
HETATM   23  C   UNL     1      -5.736  10.681  69.262  1.00  0.00    -0.041 A  
HETATM   24 CL   UNL     1      -5.523  11.062  70.935  1.00  0.00    -0.119 Cl 
ENDBRANCH   8  18
TORSDOF 1
ENDMDL
MODEL      153
REMARK 921   NORMALIZED FREE ENERGY PREDICTED BY IDOCK:   -0.41 KCAL/MOL
REMARK 922        TOTAL FREE ENERGY PREDICTED BY IDOCK:   -1.08 KCAL/MOL
REMARK 923 INTER-LIGAND FREE ENERGY PREDICTED BY IDOCK:   -1.80 KCAL/MOL
REMARK 924 INTRA-LIGAND FREE ENERGY PREDICTED BY IDOCK:    0.72 KCAL/MOL
REMARK 927      BINDING AFFINITY PREDICTED BY RF-SCORE:    0.00 PKD
ROOT
HETATM    1  C   UNL     1     -11.640  16.365  68.102  1.00  0.00     0.011 C  
HETATM    2  C   UNL     1     -10.330  15.893  68.610  1.00  0.00    -0.229 A  
HETATM    3  N   UNL     1      -9.230  16.615  68.587  1.00  0.00    -0.240 NA 
HETATM    4  N   UNL     1      -8.184  15.815  68.949  1.00  0.00    -0.193 NA 
HETATM    5  C   UNL     1      -8.660  14.615  69.190  1.00  0.00    -0.035 A  
HETATM    6  C   UNL     1      -7.900  13.430  69.643  1.00  0.00     1.027 C  
HETATM    7  N   UNL     1      -8.078  12.339  68.701  1.00  0.00    -0.301 NA 
HETATM    8  C   UNL     1      -9.217  11.757  68.554  1.00  0.00    -0.151 C  
HETATM    9  H   UNL     1      -7.283  12.027  68.144  1.00  0.00     0.000 HD 
HETATM   10  C   UNL     1     -11.342  11.160  69.701  1.00  0.00    -0.366 A  
HETATM   11  C   UNL     1     -10.481  12.182  69.260  1.00  0.00     0.120 A  
HETATM   12  C   UNL     1     -10.892  13.529  69.381  1.00  0.00     0.015 A  
HETATM   13 CL   UNL     1     -13.682  10.192  70.629  1.00  0.00     0.108 Cl 
HETATM   14  N   UNL     1     -10.030  14.611  69.051  1.00  0.00    -0.219 NA 
HETATM   15  C   UNL     1     -12.612  11.462  70.186  1.00  0.00    -0.101 A  
HETATM   16  C   UNL     1     -12.165  13.814  69.908  1.00  0.00    -0.383 A  
HETATM   17  C   UNL     1     -13.027  12.782  70.290  1.00  0.00     0.424 A  
ENDROOT
BRANCH   8  18
HETATM   18  C   UNL     1      -9.287  10.593  67.595  1.00  0.00    -0.156 A  
HETATM   19  C   UNL     1      -9.169   9.809  65.284  1.00  0.00    -0.294 A  
HETATM   20  C   UNL     1      -9.721   8.263  67.046  1.00  0.00    -0.274 A  
HETATM   21  C   UNL     1      -9.028  10.828  66.229  1.00  0.00    -0.184 A  
HETATM   22  C   UNL     1      -9.515   8.527  65.692  1.00  0.00    -0.051 A  
HETATM   23  C   UNL     1      -9.620   9.286  67.999  1.00  0.00    -0.142 A  
HETATM   24 CL   UNL     1     -10.001   8.840  69.626  1.00  0.00    -0.186 Cl 
ENDBRANCH   8  18
TORSDOF 1
ENDMDL
MODEL      154
REMARK 921   NORMALIZED FREE ENERGY PREDICTED BY IDOCK:   -0.10 KCAL/MOL
REMARK 922        TOTAL FREE ENERGY PREDICTED BY IDOCK:   -0.75 KCAL/MOL
REMARK 923 INTER-LIGAND FREE ENERGY PREDICTED BY IDOCK:   -1.30 KCAL/MOL
REMARK 924 INTRA-LIGAND FREE ENERGY PREDICTED BY IDOCK:    0.55 KCAL/MOL
REMARK 927      BINDING AFFINITY PREDICTED BY RF-SCORE:    0.00 PKD
ROOT
HETATM    1  C   UNL     1      -5.564  14.677  70.718  1.00  0.00    -0.158 C  
HETATM    2  C   UNL     1      -6.652  15.262  69.900  1.00  0.00    -0.159 A  
HETATM    3  N   UNL     1      -7.259  16.394  70.189  1.00  0.00     0.673 NA 
HETATM    4  N   UNL     1      -8.326  16.536  69.347  1.00  0.00    -0.049 NA 
HETATM    5  C   UNL     1      -8.354  15.489  68.555  1.00  0.00    -0.161 A  
HETATM    6  C   UNL     1      -9.315  15.225  67.462  1.00  0.00    -0.204 C  
HETATM    7  N   UNL     1      -9.987  13.957  67.688  1.00  0.00    -0.234 NA 
HETATM    8  C   UNL     1      -9.351  12.839  67.621  1.00  0.00    -0.191 C  
HETATM    9  H   UNL     1     -10.983  13.953  67.905  1.00  0.00     0.000 HD 
HETATM   10  C   UNL     1      -7.425  11.671  66.566  1.00  0.00     0.032 A  
HETATM   11  C   UNL     1      -7.865  12.724  67.391  1.00  0.00    -0.172 A  
HETATM   12  C   UNL     1      -6.907  13.526  68.052  1.00  0.00    -0.136 A  
HETATM   13 CL   UNL     1      -5.563  10.025  65.519  1.00  0.00    -0.060 Cl 
HETATM   14  N   UNL     1      -7.280  14.667  68.815  1.00  0.00    -0.116 NA 
HETATM   15  C   UNL     1      -6.069  11.375  66.455  1.00  0.00    -0.121 A  
HETATM   16  C   UNL     1      -5.540  13.233  67.896  1.00  0.00    -0.125 A  
HETATM   17  C   UNL     1      -5.126  12.149  67.117  1.00  0.00    -0.076 A  
ENDROOT
BRANCH   8  18
HETATM   18  C   UNL     1     -10.149  11.572  67.812  1.00  0.00    -0.198 A  
HETATM   19  C   UNL     1     -11.402  10.128  69.332  1.00  0.00    -0.233 A  
HETATM   20  C   UNL     1     -11.026   9.432  67.058  1.00  0.00     0.056 A  
HETATM   21  C   UNL     1     -10.732  11.325  69.072  1.00  0.00    -0.257 A  
HETATM   22  C   UNL     1     -11.549   9.181  68.326  1.00  0.00     1.094 A  
HETATM   23  C   UNL     1     -10.319  10.614  66.795  1.00  0.00    -0.245 A  
HETATM   24 CL   UNL     1      -9.638  10.747  65.211  1.00  0.00    -0.257 Cl 
ENDBRANCH   8  18
TORSDOF 1
ENDMDL
MODEL      155
REMARK 921   NORMALIZED FREE ENERGY PREDICTED BY IDOCK:    1.04 KCAL/MOL
REMARK 922        TOTAL FREE ENERGY PREDICTED BY IDOCK:    0.45 KCAL/MOL
REMARK 923 INTER-LIGAND FREE ENERGY PREDICTED BY IDOCK:    0.81 KCAL/MOL
REMARK 924 INTRA-LIGAND FREE ENERGY PREDICTED BY IDOCK:   -0.36 KCAL/MOL
REMARK 927      BINDING AFFINITY PREDICTED BY RF-SCORE:    0.00 PKD
ROOT
HETATM    1  C   UNL     1     -11.637   8.413  68.367  1.00  0.00     1.473 C  
HETATM    2  C   UNL     1     -10.382   8.267  67.593  1.00  0.00    -0.248 A  
HETATM    3  N   UNL     1      -9.651   7.172  67.579  1.00  0.00    -0.129 NA 
HETATM    4  N   UNL     1      -8.481   7.446  66.928  1.00  0.00    -0.120 NA 
HETATM    5  C   UNL     1      -8.516   8.704  66.552  1.00  0.00    -0.113 A  
HETATM    6  C   UNL     1      -7.481   9.433  65.788  1.00  0.00    -0.099 C  
HETATM    7  N   UNL     1      -7.039  10.597  66.537  1.00  0.00    -0.125 NA 
HETATM    8  C   UNL     1      -7.823  11.597  66.747  1.00  0.00    -0.130 C  
HETATM    9  H   UNL     1      -6.089  10.622  66.904  1.00  0.00     0.000 HD 
HETATM   10  C   UNL     1      -9.761  12.869  65.844  1.00  0.00    -0.190 A  
HETATM   11  C   UNL     1      -9.271  11.640  66.326  1.00  0.00    -0.225 A  
HETATM   12  C   UNL     1     -10.170  10.564  66.509  1.00  0.00    -0.231 A  
HETATM   13 CL   UNL     1     -11.710  14.587  65.121  1.00  0.00    -0.365 Cl 
HETATM   14  N   UNL     1      -9.724   9.269  66.892  1.00  0.00    -0.175 NA 
HETATM   15  C   UNL     1     -11.123  13.049  65.617  1.00  0.00    -0.276 A  
HETATM   16  C   UNL     1     -11.536  10.757  66.237  1.00  0.00     0.886 A  
HETATM   17  C   UNL     1     -12.011  12.001  65.812  1.00  0.00    -0.140 A  
ENDROOT
BRANCH   8  18
HETATM   18  C   UNL     1      -7.254  12.786  67.484  1.00  0.00    -0.154 A  
HETATM   19  C   UNL     1      -5.416  14.376  67.733  1.00  0.00    -0.024 A  
HETATM   20  C   UNL     1      -7.259  14.422  69.284  1.00  0.00    -0.107 A  
HETATM   21  C   UNL     1      -6.036  13.337  67.035  1.00  0.00     0.765 A  
HETATM   22  C   UNL     1      -6.027  14.919  68.857  1.00  0.00    -0.085 A  
HETATM   23  C   UNL     1      -7.872  13.354  68.613  1.00  0.00    -0.073 A  
HETATM   24 CL   UNL     1      -9.344  12.774  69.311  1.00  0.00     0.698 Cl 
ENDBRANCH   8  18
TORSDOF 1
ENDMDL
MODEL      156
REMARK 921   NORMALIZED FREE ENERGY PREDICTED BY IDOCK:    3.27 KCAL/MOL
REMARK 922        TOTAL FREE ENERGY PREDICTED BY IDOCK:    2.82 KCAL/MOL
REMARK 923 INTER-LIGAND FREE ENERGY PREDICTED BY IDOCK:    3.29 KCAL/MOL
REMARK 924 INTRA-LIGAND FREE ENERGY PREDICTED BY IDOCK:   -0.47 KCAL/MOL
REMARK 927      BINDING AFFINITY PREDICTED BY RF-SCORE:    0.00 PKD
ROOT
HETATM    1  C   UNL     1      -8.199   1.709  72.026  1.00  0.00    -0.045 C  
HETATM    2  C   UNL     1      -8.987   2.962  72.100  1.00  0.00    -0.087 A  
HETATM    3  N   UNL     1      -9.897   3.204  73.020  1.00  0.00    -0.116 NA 
HETATM    4  N   UNL     1     -10.555   4.352  72.681  1.00  0.00    -0.185 NA 
HETATM    5  C   UNL     1     -10.038   4.795  71.558  1.00  0.00    -0.190 A  
HETATM    6  C   UNL     1     -10.413   6.026  70.830  1.00  0.00    -0.239 C  
HETATM    7  N   UNL     1     -10.817   5.696  69.474  1.00  0.00    -0.321 NA 
HETATM    8  C   UNL     1      -9.971   5.247  68.613  1.00  0.00    -0.168 C  
HETATM    9  H   UNL     1     -11.790   5.822  69.199  1.00  0.00     0.000 HD 
HETATM   10  C   UNL     1      -7.578   5.262  67.935  1.00  0.00    -0.084 A  
HETATM   11  C   UNL     1      -8.527   4.942  68.925  1.00  0.00    -0.086 A  
HETATM   12  C   UNL     1      -8.108   4.249  70.083  1.00  0.00    -0.058 A  
HETATM   13 CL   UNL     1      -5.137   5.159  66.793  1.00  0.00    -0.007 Cl 
HETATM   14  N   UNL     1      -8.994   3.989  71.165  1.00  0.00    -0.101 NA 
HETATM   15  C   UNL     1      -6.256   4.841  68.058  1.00  0.00    -0.035 A  
HETATM   16  C   UNL     1      -6.760   3.867  70.205  1.00  0.00    -0.033 A  
HETATM   17  C   UNL     1      -5.844   4.145  69.186  1.00  0.00    -0.022 A  
ENDROOT
BRANCH   8  18
HETATM   18  C   UNL     1     -10.473   4.991  67.212  1.00  0.00    -0.151 A  
HETATM   19  C   UNL     1     -10.748   3.407  65.373  1.00  0.00     1.089 A  
HETATM   20  C   UNL     1     -11.402   5.706  65.081  1.00  0.00     2.679 A  
HETATM   21  C   UNL     1     -10.384   3.683  66.692  1.00  0.00     1.003 A  
HETATM   22  C   UNL     1     -11.256   4.418  64.566  1.00  0.00     0.329 A  
HETATM   23  C   UNL     1     -11.006   6.003  66.392  1.00  0.00     0.099 A  
HETATM   24 CL   UNL     1     -11.149   7.661  66.864  1.00  0.00     0.017 Cl 
ENDBRANCH   8  18
TORSDOF 1
ENDMDL
MODEL      157
REMARK 921   NORMALIZED FREE ENERGY PREDICTED BY IDOCK:    9.75 KCAL/MOL
REMARK 922        TOTAL FREE ENERGY PREDICTED BY IDOCK:    9.68 KCAL/MOL
REMARK 923 INTER-LIGAND FREE ENERGY PREDICTED BY IDOCK:    5.60 KCAL/MOL
REMARK 924 INTRA-LIGAND FREE ENERGY PREDICTED BY IDOCK:    4.07 KCAL/MOL
REMARK 927      BINDING AFFINITY PREDICTED BY RF-SCORE:    0.00 PKD
ROOT
HETATM    1  C   UNL     1      -8.927   3.416  67.735  1.00  0.00    -0.177 C  
HETATM    2  C   UNL     1      -7.620   3.665  68.388  1.00  0.00    -0.057 A  
HETATM    3  N   UNL     1      -6.830   2.712  68.837  1.00  0.00    -0.036 NA 
HETATM    4  N   UNL     1      -5.815   3.294  69.543  1.00  0.00    -0.022 NA 
HETATM    5  C   UNL     1      -5.999   4.594  69.513  1.00  0.00    -0.018 A  
HETATM    6  C   UNL     1      -5.132   5.630  70.116  1.00  0.00    -0.005 C  
HETATM    7  N   UNL     1      -5.900   6.440  71.044  1.00  0.00    -0.026 NA 
HETATM    8  C   UNL     1      -6.835   7.226  70.635  1.00  0.00    -0.053 C  
HETATM    9  H   UNL     1      -5.696   6.385  72.041  1.00  0.00     0.000 HD 
HETATM   10  C   UNL     1      -7.612   8.615  68.723  1.00  0.00    -0.096 A  
HETATM   11  C   UNL     1      -7.283   7.331  69.198  1.00  0.00    -0.085 A  
HETATM   12  C   UNL     1      -7.504   6.211  68.365  1.00  0.00    -0.087 A  
HETATM   13 CL   UNL     1      -8.696  10.344  66.961  1.00  0.00    -0.130 Cl 
HETATM   14  N   UNL     1      -7.098   4.901  68.743  1.00  0.00    -0.052 NA 
HETATM   15  C   UNL     1      -8.215   8.778  67.478  1.00  0.00    -0.110 A  
HETATM   16  C   UNL     1      -8.079   6.402  67.096  1.00  0.00    -0.113 A  
HETATM   17  C   UNL     1      -8.450   7.679  66.664  1.00  0.00    -0.130 A  
ENDROOT
BRANCH   8  18
HETATM   18  C   UNL     1      -7.536   8.073  71.670  1.00  0.00    -0.082 A  
HETATM   19  C   UNL     1      -7.739   8.721  74.017  1.00  0.00     0.130 A  
HETATM   20  C   UNL     1      -9.283   9.603  72.392  1.00  0.00     2.901 A  
HETATM   21  C   UNL     1      -7.073   8.031  73.001  1.00  0.00    -0.119 A  
HETATM   22  C   UNL     1      -8.845   9.506  73.713  1.00  0.00     4.308 A  
HETATM   23  C   UNL     1      -8.645   8.886  71.371  1.00  0.00    -0.172 A  
HETATM   24 CL   UNL     1      -9.357   9.019  69.800  1.00  0.00    -0.166 Cl 
ENDBRANCH   8  18
TORSDOF 1
ENDMDL
MODEL      158
REMARK 921   NORMALIZED FREE ENERGY PREDICTED BY IDOCK:   10.98 KCAL/MOL
REMARK 922        TOTAL FREE ENERGY PREDICTED BY IDOCK:   10.98 KCAL/MOL
REMARK 923 INTER-LIGAND FREE ENERGY PREDICTED BY IDOCK:    5.91 KCAL/MOL
REMARK 924 INTRA-LIGAND FREE ENERGY PREDICTED BY IDOCK:    5.07 KCAL/MOL
REMARK 927      BINDING AFFINITY PREDICTED BY RF-SCORE:    0.00 PKD
ROOT
HETATM    1  C   UNL     1     -11.637   8.503  73.072  1.00  0.00     0.373 C  
HETATM    2  C   UNL     1     -10.278   8.213  73.586  1.00  0.00     0.707 A  
HETATM    3  N   UNL     1      -9.381   9.139  73.853  1.00  0.00     2.327 NA 
HETATM    4  N   UNL     1      -8.193   8.521  74.120  1.00  0.00    -0.337 NA 
HETATM    5  C   UNL     1      -8.381   7.226  74.014  1.00  0.00    -0.165 A  
HETATM    6  C   UNL     1      -7.383   6.159  74.245  1.00  0.00    -0.086 C  
HETATM    7  N   UNL     1      -7.252   5.336  73.055  1.00  0.00    -0.088 NA 
HETATM    8  C   UNL     1      -8.213   4.578  72.654  1.00  0.00    -0.106 C  
HETATM    9  H   UNL     1      -6.381   5.360  72.526  1.00  0.00     0.000 HD 
HETATM   10  C   UNL     1     -10.186   3.257  73.393  1.00  0.00    -0.215 A  
HETATM   11  C   UNL     1      -9.573   4.521  73.304  1.00  0.00    -0.144 A  
HETATM   12  C   UNL     1     -10.298   5.667  73.701  1.00  0.00    -0.240 A  
HETATM   13 CL   UNL     1     -12.269   1.595  73.808  1.00  0.00    -0.212 Cl 
HETATM   14  N   UNL     1      -9.702   6.959  73.734  1.00  0.00    -0.225 NA 
HETATM   15  C   UNL     1     -11.512   3.139  73.800  1.00  0.00     0.029 A  
HETATM   16  C   UNL     1     -11.624   5.521  74.145  1.00  0.00     2.015 A  
HETATM   17  C   UNL     1     -12.233   4.264  74.174  1.00  0.00     2.780 A  
ENDROOT
BRANCH   8  18
HETATM   18  C   UNL     1      -7.959   3.716  71.441  1.00  0.00    -0.061 A  
HETATM   19  C   UNL     1      -6.800   3.439  69.308  1.00  0.00    -0.041 A  
HETATM   20  C   UNL     1      -8.399   1.787  70.025  1.00  0.00    -0.071 A  
HETATM   21  C   UNL     1      -7.009   4.148  70.492  1.00  0.00    -0.034 A  
HETATM   22  C   UNL     1      -7.495   2.258  69.074  1.00  0.00    -0.043 A  
HETATM   23  C   UNL     1      -8.644   2.510  71.202  1.00  0.00    -0.063 A  
HETATM   24 CL   UNL     1      -9.863   1.862  72.243  1.00  0.00    -0.185 Cl 
ENDBRANCH   8  18
TORSDOF 1
ENDMDL
MODEL      159
REMARK 921   NORMALIZED FREE ENERGY PREDICTED BY IDOCK:   13.39 KCAL/MOL
REMARK 922        TOTAL FREE ENERGY PREDICTED BY IDOCK:   13.53 KCAL/MOL
REMARK 923 INTER-LIGAND FREE ENERGY PREDICTED BY IDOCK:   12.65 KCAL/MOL
REMARK 924 INTRA-LIGAND FREE ENERGY PREDICTED BY IDOCK:    0.88 KCAL/MOL
REMARK 927      BINDING AFFINITY PREDICTED BY RF-SCORE:    0.00 PKD
ROOT
HETATM    1  C   UNL     1      -5.928  19.217  70.996  1.00  0.00     0.015 C  
HETATM    2  C   UNL     1      -7.345  19.650  71.008  1.00  0.00     1.390 A  
HETATM    3  N   UNL     1      -7.837  20.530  71.854  1.00  0.00     1.153 NA 
HETATM    4  N   UNL     1      -9.196  20.549  71.712  1.00  0.00     1.886 NA 
HETATM    5  C   UNL     1      -9.514  19.680  70.780  1.00  0.00     1.810 A  
HETATM    6  C   UNL     1     -10.868  19.381  70.266  1.00  0.00     2.416 C  
HETATM    7  N   UNL     1     -11.160  17.967  70.431  1.00  0.00     1.476 NA 
HETATM    8  C   UNL     1     -10.528  17.069  69.759  1.00  0.00    -0.011 C  
HETATM    9  H   UNL     1     -11.880  17.681  71.093  1.00  0.00     0.000 HD 
HETATM   10  C   UNL     1      -9.332  16.611  67.626  1.00  0.00    -0.224 A  
HETATM   11  C   UNL     1      -9.389  17.364  68.815  1.00  0.00    -0.244 A  
HETATM   12  C   UNL     1      -8.331  18.251  69.119  1.00  0.00     0.098 A  
HETATM   13 CL   UNL     1      -8.127  15.680  65.401  1.00  0.00     2.575 Cl 
HETATM   14  N   UNL     1      -8.377  19.115  70.248  1.00  0.00     1.450 NA 
HETATM   15  C   UNL     1      -8.217  16.681  66.795  1.00  0.00    -0.239 A  
HETATM   16  C   UNL     1      -7.232  18.334  68.246  1.00  0.00    -0.266 A  
HETATM   17  C   UNL     1      -7.168  17.537  67.100  1.00  0.00    -0.201 A  
ENDROOT
BRANCH   8  18
HETATM   18  C   UNL     1     -10.944  15.631  69.955  1.00  0.00    -0.336 A  
HETATM   19  C   UNL     1     -10.598  13.282  69.380  1.00  0.00     0.190 A  
HETATM   20  C   UNL     1     -12.417  13.904  70.830  1.00  0.00    -0.445 A  
HETATM   21  C   UNL     1     -10.203  14.620  69.309  1.00  0.00    -0.156 A  
HETATM   22  C   UNL     1     -11.705  12.924  70.140  1.00  0.00    -0.234 A  
HETATM   23  C   UNL     1     -12.053  15.255  70.736  1.00  0.00    -0.351 A  
HETATM   24 CL   UNL     1     -13.085  16.371  71.560  1.00  0.00     0.899 Cl 
ENDBRANCH   8  18
TORSDOF 1
ENDMDL
MODEL      160
REMARK 921   NORMALIZED FREE ENERGY PREDICTED BY IDOCK:   19.55 KCAL/MOL
REMARK 922        TOTAL FREE ENERGY PREDICTED BY IDOCK:   20.05 KCAL/MOL
REMARK 923 INTER-LIGAND FREE ENERGY PREDICTED BY IDOCK:   19.21 KCAL/MOL
REMARK 924 INTRA-LIGAND FREE ENERGY PREDICTED BY IDOCK:    0.84 KCAL/MOL
REMARK 927      BINDING AFFINITY PREDICTED BY RF-SCORE:    0.00 PKD
ROOT
HETATM    1  C   UNL     1     -11.409  18.548  72.477  1.00  0.00     3.747 C  
HETATM    2  C   UNL     1     -10.245  18.629  71.564  1.00  0.00     3.733 A  
HETATM    3  N   UNL     1      -9.519  19.714  71.394  1.00  0.00     2.439 NA 
HETATM    4  N   UNL     1      -8.661  19.498  70.354  1.00  0.00     1.392 NA 
HETATM    5  C   UNL     1      -8.874  18.282  69.904  1.00  0.00     1.562 A  
HETATM    6  C   UNL     1      -8.155  17.602  68.805  1.00  0.00    -0.233 C  
HETATM    7  N   UNL     1      -9.098  17.185  67.781  1.00  0.00    -0.231 NA 
HETATM    8  C   UNL     1      -9.967  16.262  68.005  1.00  0.00    -0.240 C  
HETATM    9  H   UNL     1      -9.069  17.633  66.865  1.00  0.00     0.000 HD 
HETATM   10  C   UNL     1     -10.437  14.206  69.324  1.00  0.00    -0.079 A  
HETATM   11  C   UNL     1     -10.159  15.587  69.339  1.00  0.00    -0.266 A  
HETATM   12  C   UNL     1     -10.199  16.283  70.569  1.00  0.00     0.671 A  
HETATM   13 CL   UNL     1     -11.244  11.882  70.428  1.00  0.00     0.331 Cl 
HETATM   14  N   UNL     1      -9.829  17.653  70.669  1.00  0.00     2.508 NA 
HETATM   15  C   UNL     1     -10.816  13.546  70.489  1.00  0.00     1.558 A  
HETATM   16  C   UNL     1     -10.548  15.588  71.741  1.00  0.00     0.731 A  
HETATM   17  C   UNL     1     -10.874  14.230  71.696  1.00  0.00     2.118 A  
ENDROOT
BRANCH   8  18
HETATM   18  C   UNL     1     -10.863  15.857  66.858  1.00  0.00    -0.240 A  
HETATM   19  C   UNL     1     -12.075  14.070  65.715  1.00  0.00    -0.445 A  
HETATM   20  C   UNL     1     -12.031  16.284  64.768  1.00  0.00     0.581 A  
HETATM   21  C   UNL     1     -11.321  14.524  66.799  1.00  0.00    -0.358 A  
HETATM   22  C   UNL     1     -12.430  14.950  64.699  1.00  0.00    -0.188 A  
HETATM   23  C   UNL     1     -11.243  16.743  65.833  1.00  0.00     0.442 A  
HETATM   24 CL   UNL     1     -10.737  18.394  65.738  1.00  0.00    -0.323 Cl 
ENDBRANCH   8  18
TORSDOF 1
ENDMDL
MODEL      161
REMARK 921   NORMALIZED FREE ENERGY PREDICTED BY IDOCK:   30.24 KCAL/MOL
REMARK 922        TOTAL FREE ENERGY PREDICTED BY IDOCK:   31.36 KCAL/MOL
REMARK 923 INTER-LIGAND FREE ENERGY PREDICTED BY IDOCK:   31.82 KCAL/MOL
REMARK 924 INTRA-LIGAND FREE ENERGY PREDICTED BY IDOCK:   -0.45 KCAL/MOL
REMARK 927      BINDING AFFINITY PREDICTED BY RF-SCORE:    0.00 PKD
ROOT
HETATM    1  C   UNL     1      -6.540  17.216  65.841  1.00  0.00     0.207 C  
HETATM    2  C   UNL     1      -7.795  18.004  65.803  1.00  0.00     0.077 A  
HETATM    3  N   UNL     1      -7.902  19.189  65.240  1.00  0.00     0.037 NA 
HETATM    4  N   UNL     1      -9.127  19.704  65.554  1.00  0.00    -0.114 NA 
HETATM    5  C   UNL     1      -9.752  18.825  66.304  1.00  0.00    -0.330 A  
HETATM    6  C   UNL     1     -11.120  18.938  66.856  1.00  0.00     0.079 C  
HETATM    7  N   UNL     1     -11.082  18.818  68.303  1.00  0.00    -0.044 NA 
HETATM    8  C   UNL     1     -10.765  17.710  68.876  1.00  0.00     0.002 C  
HETATM    9  H   UNL     1     -11.311  19.629  68.876  1.00  0.00     0.000 HD 
HETATM   10  C   UNL     1     -10.782  15.234  68.636  1.00  0.00    -0.245 A  
HETATM   11  C   UNL     1     -10.327  16.470  68.137  1.00  0.00    -0.296 A  
HETATM   12  C   UNL     1      -9.401  16.483  67.069  1.00  0.00    -0.230 A  
HETATM   13 CL   UNL     1     -10.773  12.544  68.825  1.00  0.00    -0.250 Cl 
HETATM   14  N   UNL     1      -8.982  17.694  66.452  1.00  0.00    -0.369 NA 
HETATM   15  C   UNL     1     -10.275  14.037  68.135  1.00  0.00    -0.243 A  
HETATM   16  C   UNL     1      -8.930  15.261  66.554  1.00  0.00    -0.340 A  
HETATM   17  C   UNL     1      -9.352  14.046  67.099  1.00  0.00    -0.244 A  
ENDROOT
BRANCH   8  18
HETATM   18  C   UNL     1     -10.813  17.667  70.385  1.00  0.00     1.417 A  
HETATM   19  C   UNL     1     -12.077  18.122  72.426  1.00  0.00     5.717 A  
HETATM   20  C   UNL     1      -9.810  17.320  72.574  1.00  0.00     9.220 A  
HETATM   21  C   UNL     1     -12.005  18.053  71.033  1.00  0.00     7.166 A  
HETATM   22  C   UNL     1     -10.980  17.756  73.196  1.00  0.00     2.623 A  
HETATM   23  C   UNL     1      -9.714  17.282  71.175  1.00  0.00     4.935 A  
HETATM   24 CL   UNL     1      -8.174  16.820  70.540  1.00  0.00     3.044 Cl 
ENDBRANCH   8  18
TORSDOF 1
ENDMDL
MODEL      162
REMARK 921   NORMALIZED FREE ENERGY PREDICTED BY IDOCK:   42.15 KCAL/MOL
REMARK 922        TOTAL FREE ENERGY PREDICTED BY IDOCK:   43.97 KCAL/MOL
REMARK 923 INTER-LIGAND FREE ENERGY PREDICTED BY IDOCK:   44.04 KCAL/MOL
REMARK 924 INTRA-LIGAND FREE ENERGY PREDICTED BY IDOCK:   -0.07 KCAL/MOL
REMARK 927      BINDING AFFINITY PREDICTED BY RF-SCORE:    0.00 PKD
ROOT
HETATM    1  C   UNL     1     -11.191  18.628  72.900  1.00  0.00     3.256 C  
HETATM    2  C   UNL     1     -10.017  19.097  72.127  1.00  0.00     4.245 A  
HETATM    3  N   UNL     1      -9.353  20.202  72.397  1.00  0.00     2.340 NA 
HETATM    4  N   UNL     1      -8.465  20.427  71.384  1.00  0.00     1.471 NA 
HETATM    5  C   UNL     1      -8.598  19.456  70.510  1.00  0.00     2.083 A  
HETATM    6  C   UNL     1      -7.821  19.265  69.266  1.00  0.00    -0.120 C  
HETATM    7  N   UNL     1      -8.719  19.213  68.125  1.00  0.00    -0.312 NA 
HETATM    8  C   UNL     1      -9.537  18.233  67.959  1.00  0.00    -0.304 C  
HETATM    9  H   UNL     1      -8.700  19.969  67.441  1.00  0.00     0.000 HD 
HETATM   10  C   UNL     1      -9.910  15.815  68.408  1.00  0.00    -0.206 A  
HETATM   11  C   UNL     1      -9.713  17.103  68.942  1.00  0.00    -0.256 A  
HETATM   12  C   UNL     1      -9.817  17.292  70.339  1.00  0.00     1.966 A  
HETATM   13 CL   UNL     1     -10.599  13.211  68.545  1.00  0.00    -0.265 Cl 
HETATM   14  N   UNL     1      -9.528  18.543  70.951  1.00  0.00     3.729 NA 
HETATM   15  C   UNL     1     -10.271  14.752  69.232  1.00  0.00    -0.185 A  
HETATM   16  C   UNL     1     -10.145  16.196  71.158  1.00  0.00     1.853 A  
HETATM   17  C   UNL     1     -10.390  14.937  70.602  1.00  0.00     0.360 A  
ENDROOT
BRANCH   8  18
HETATM   18  C   UNL     1     -10.386  18.239  66.710  1.00  0.00    -0.403 A  
HETATM   19  C   UNL     1     -12.556  17.783  65.685  1.00  0.00     8.261 A  
HETATM   20  C   UNL     1     -10.708  18.490  64.312  1.00  0.00     5.275 A  
HETATM   21  C   UNL     1     -11.747  17.884  66.818  1.00  0.00     2.167 A  
HETATM   22  C   UNL     1     -12.037  18.085  64.431  1.00  0.00     6.708 A  
HETATM   23  C   UNL     1      -9.876  18.560  65.439  1.00  0.00     1.000 A  
HETATM   24 CL   UNL     1      -8.226  18.976  65.130  1.00  0.00     1.380 Cl 
ENDBRANCH   8  18
TORSDOF 1
ENDMDL
MODEL      163
REMARK 921   NORMALIZED FREE ENERGY PREDICTED BY IDOCK:   46.08 KCAL/MOL
REMARK 922        TOTAL FREE ENERGY PREDICTED BY IDOCK:   48.13 KCAL/MOL
REMARK 923 INTER-LIGAND FREE ENERGY PREDICTED BY IDOCK:   47.62 KCAL/MOL
REMARK 924 INTRA-LIGAND FREE ENERGY PREDICTED BY IDOCK:    0.51 KCAL/MOL
REMARK 927      BINDING AFFINITY PREDICTED BY RF-SCORE:    0.00 PKD
ROOT
HETATM    1  C   UNL     1      -7.750  18.213  68.327  1.00  0.00    -0.291 C  
HETATM    2  C   UNL     1      -7.345  16.853  68.753  1.00  0.00    -0.227 A  
HETATM    3  N   UNL     1      -6.450  16.121  68.121  1.00  0.00    -0.119 NA 
HETATM    4  N   UNL     1      -6.462  14.867  68.662  1.00  0.00    -0.081 NA 
HETATM    5  C   UNL     1      -7.363  14.851  69.618  1.00  0.00    -0.153 A  
HETATM    6  C   UNL     1      -7.702  13.714  70.502  1.00  0.00     2.755 C  
HETATM    7  N   UNL     1      -9.115  13.401  70.386  1.00  0.00     3.599 NA 
HETATM    8  C   UNL     1     -10.020  14.214  70.810  1.00  0.00     2.844 C  
HETATM    9  H   UNL     1      -9.397  12.519  69.960  1.00  0.00     0.000 HD 
HETATM   10  C   UNL     1     -10.515  15.997  72.472  1.00  0.00     3.195 A  
HETATM   11  C   UNL     1      -9.730  15.580  71.380  1.00  0.00     2.448 A  
HETATM   12  C   UNL     1      -8.815  16.490  70.803  1.00  0.00     3.996 A  
HETATM   13 CL   UNL     1     -11.485  17.821  74.206  1.00  0.00     0.391 Cl 
HETATM   14  N   UNL     1      -7.920  16.100  69.768  1.00  0.00     0.200 NA 
HETATM   15  C   UNL     1     -10.447  17.308  72.935  1.00  0.00     5.486 A  
HETATM   16  C   UNL     1      -8.735  17.799  71.311  1.00  0.00     8.797 A  
HETATM   17  C   UNL     1      -9.563  18.210  72.359  1.00  0.00     9.767 A  
ENDROOT
BRANCH   8  18
HETATM   18  C   UNL     1     -11.460  13.772  70.700  1.00  0.00     0.158 A  
HETATM   19  C   UNL     1     -13.820  14.401  70.701  1.00  0.00     0.366 A  
HETATM   20  C   UNL     1     -13.200  12.078  70.570  1.00  0.00     0.641 A  
HETATM   21  C   UNL     1     -12.470  14.756  70.707  1.00  0.00    -0.402 A  
HETATM   22  C   UNL     1     -14.186  13.062  70.633  1.00  0.00     3.254 A  
HETATM   23  C   UNL     1     -11.841  12.420  70.613  1.00  0.00     0.070 A  
HETATM   24 CL   UNL     1     -10.731  11.094  70.631  1.00  0.00     0.926 Cl 
ENDBRANCH   8  18
TORSDOF 1
ENDMDL
