MODEL        1
REMARK 921   NORMALIZED FREE ENERGY PREDICTED BY IDOCK:   -6.33 KCAL/MOL
REMARK 922        TOTAL FREE ENERGY PREDICTED BY IDOCK:   -7.37 KCAL/MOL
REMARK 923 INTER-LIGAND FREE ENERGY PREDICTED BY IDOCK:   -7.07 KCAL/MOL
REMARK 924 INTRA-LIGAND FREE ENERGY PREDICTED BY IDOCK:   -0.30 KCAL/MOL
REMARK 927      BINDING AFFINITY PREDICTED BY RF-SCORE:    0.00 PKD
ROOT
HETATM    1  O   UNL     1     -11.551  16.485  63.779  1.00  0.00    -1.617 OA 
HETATM    2  C   UNL     1     -11.122  15.716  64.827  1.00  0.00    -0.412 A  
HETATM    3  H   UNL     1     -11.245  17.382  63.698  1.00  0.00     0.000 HD 
HETATM    4  C   UNL     1     -11.571  14.401  64.946  1.00  0.00    -0.395 A  
HETATM    5  C   UNL     1     -11.131  13.623  66.018  1.00  0.00    -0.293 A  
HETATM    6  C   UNL     1     -10.284  14.163  66.984  1.00  0.00    -0.260 A  
HETATM    7 CL   UNL     1     -11.637  11.985  66.147  1.00  0.00    -0.413 Cl 
HETATM    8  C   UNL     1      -9.854  15.485  66.874  1.00  0.00    -0.245 A  
HETATM    9  C   UNL     1     -10.231  16.255  65.765  1.00  0.00    -0.367 A  
ENDROOT
BRANCH   9  10
HETATM   10  O   UNL     1      -9.819  17.559  65.596  1.00  0.00    -0.543 OA 
BRANCH  10  11
HETATM   11  C   UNL     1      -8.920  18.125  66.481  1.00  0.00    -0.275 A  
HETATM   12  C   UNL     1      -9.424  19.014  67.439  1.00  0.00    -0.301 A  
HETATM   13  C   UNL     1      -8.563  19.677  68.323  1.00  0.00    -0.358 A  
HETATM   14 CL   UNL     1     -11.119  19.330  67.574  1.00  0.00    -0.423 Cl 
HETATM   15  C   UNL     1      -7.193  19.442  68.249  1.00  0.00    -0.296 A  
HETATM   16  C   UNL     1      -6.676  18.559  67.304  1.00  0.00    -0.208 A  
HETATM   17 CL   UNL     1      -6.127  20.270  69.316  1.00  0.00    -0.360 Cl 
HETATM   18  C   UNL     1      -7.537  17.917  66.407  1.00  0.00    -0.308 A  
ENDBRANCH  10  11
ENDBRANCH   9  10
TORSDOF 2
ENDMDL
MODEL        2
REMARK 921   NORMALIZED FREE ENERGY PREDICTED BY IDOCK:   -6.02 KCAL/MOL
REMARK 922        TOTAL FREE ENERGY PREDICTED BY IDOCK:   -7.02 KCAL/MOL
REMARK 923 INTER-LIGAND FREE ENERGY PREDICTED BY IDOCK:   -6.55 KCAL/MOL
REMARK 924 INTRA-LIGAND FREE ENERGY PREDICTED BY IDOCK:   -0.47 KCAL/MOL
REMARK 927      BINDING AFFINITY PREDICTED BY RF-SCORE:    0.00 PKD
ROOT
HETATM    1  O   UNL     1     -12.536  13.885  63.454  1.00  0.00    -1.068 OA 
HETATM    2  C   UNL     1     -11.712  12.949  64.021  1.00  0.00    -0.434 A  
HETATM    3  H   UNL     1     -12.978  14.519  64.007  1.00  0.00     0.000 HD 
HETATM    4  C   UNL     1     -11.064  12.019  63.209  1.00  0.00    -0.400 A  
HETATM    5  C   UNL     1     -10.228  11.067  63.794  1.00  0.00    -0.364 A  
HETATM    6  C   UNL     1     -10.071  11.017  65.178  1.00  0.00    -0.346 A  
HETATM    7 CL   UNL     1      -9.382   9.948  62.800  1.00  0.00    -0.294 Cl 
HETATM    8  C   UNL     1     -10.738  11.935  65.989  1.00  0.00    -0.326 A  
HETATM    9  C   UNL     1     -11.524  12.941  65.410  1.00  0.00    -0.324 A  
ENDROOT
BRANCH   9  10
HETATM   10  O   UNL     1     -12.189  13.884  66.162  1.00  0.00    -0.423 OA 
BRANCH  10  11
HETATM   11  C   UNL     1     -11.511  14.983  66.655  1.00  0.00    -0.251 A  
HETATM   12  C   UNL     1     -11.517  15.181  68.043  1.00  0.00    -0.342 A  
HETATM   13  C   UNL     1     -10.910  16.310  68.607  1.00  0.00    -0.322 A  
HETATM   14 CL   UNL     1     -12.268  14.049  69.112  1.00  0.00    -0.359 Cl 
HETATM   15  C   UNL     1     -10.289  17.240  67.778  1.00  0.00    -0.356 A  
HETATM   16  C   UNL     1     -10.272  17.057  66.397  1.00  0.00    -0.330 A  
HETATM   17 CL   UNL     1      -9.560  18.641  68.462  1.00  0.00    -0.375 Cl 
HETATM   18  C   UNL     1     -10.900  15.940  65.835  1.00  0.00    -0.237 A  
ENDBRANCH  10  11
ENDBRANCH   9  10
TORSDOF 2
ENDMDL
MODEL        3
REMARK 921   NORMALIZED FREE ENERGY PREDICTED BY IDOCK:   -6.01 KCAL/MOL
REMARK 922        TOTAL FREE ENERGY PREDICTED BY IDOCK:   -7.02 KCAL/MOL
REMARK 923 INTER-LIGAND FREE ENERGY PREDICTED BY IDOCK:   -6.71 KCAL/MOL
REMARK 924 INTRA-LIGAND FREE ENERGY PREDICTED BY IDOCK:   -0.31 KCAL/MOL
REMARK 927      BINDING AFFINITY PREDICTED BY RF-SCORE:    0.00 PKD
ROOT
HETATM    1  O   UNL     1      -8.782  13.167  66.428  1.00  0.00    -0.430 OA 
HETATM    2  C   UNL     1     -10.099  13.297  66.078  1.00  0.00    -0.299 A  
HETATM    3  H   UNL     1      -8.447  13.635  67.184  1.00  0.00     0.000 HD 
HETATM    4  C   UNL     1     -10.590  12.609  64.968  1.00  0.00    -0.329 A  
HETATM    5  C   UNL     1     -11.933  12.750  64.617  1.00  0.00    -0.396 A  
HETATM    6  C   UNL     1     -12.770  13.597  65.340  1.00  0.00    -0.500 A  
HETATM    7 CL   UNL     1     -12.562  11.867  63.282  1.00  0.00    -0.635 Cl 
HETATM    8  C   UNL     1     -12.270  14.300  66.437  1.00  0.00    -0.426 A  
HETATM    9  C   UNL     1     -10.942  14.115  66.844  1.00  0.00    -0.300 A  
ENDROOT
BRANCH   9  10
HETATM   10  O   UNL     1     -10.403  14.767  67.930  1.00  0.00    -0.237 OA 
BRANCH  10  11
HETATM   11  C   UNL     1     -11.064  14.758  69.145  1.00  0.00    -0.265 A  
HETATM   12  C   UNL     1     -11.049  15.937  69.902  1.00  0.00    -0.343 A  
HETATM   13  C   UNL     1     -11.637  15.979  71.172  1.00  0.00    -0.492 A  
HETATM   14 CL   UNL     1     -10.309  17.382  69.307  1.00  0.00    -0.297 Cl 
HETATM   15  C   UNL     1     -12.249  14.838  71.682  1.00  0.00    -0.349 A  
HETATM   16  C   UNL     1     -12.275  13.658  70.941  1.00  0.00    -0.408 A  
HETATM   17 CL   UNL     1     -12.955  14.876  73.251  1.00  0.00    -0.621 Cl 
HETATM   18  C   UNL     1     -11.665  13.612  69.682  1.00  0.00    -0.383 A  
ENDBRANCH  10  11
ENDBRANCH   9  10
TORSDOF 2
ENDMDL
MODEL        4
REMARK 921   NORMALIZED FREE ENERGY PREDICTED BY IDOCK:   -5.99 KCAL/MOL
REMARK 922        TOTAL FREE ENERGY PREDICTED BY IDOCK:   -6.99 KCAL/MOL
REMARK 923 INTER-LIGAND FREE ENERGY PREDICTED BY IDOCK:   -6.53 KCAL/MOL
REMARK 924 INTRA-LIGAND FREE ENERGY PREDICTED BY IDOCK:   -0.46 KCAL/MOL
REMARK 927      BINDING AFFINITY PREDICTED BY RF-SCORE:    0.00 PKD
ROOT
HETATM    1  O   UNL     1     -10.037  16.491  69.453  1.00  0.00    -0.264 OA 
HETATM    2  C   UNL     1     -10.989  15.672  69.999  1.00  0.00    -0.327 A  
HETATM    3  H   UNL     1      -9.540  16.196  68.699  1.00  0.00     0.000 HD 
HETATM    4  C   UNL     1     -11.718  16.106  71.107  1.00  0.00    -0.454 A  
HETATM    5  C   UNL     1     -12.685  15.265  71.659  1.00  0.00    -0.384 A  
HETATM    6  C   UNL     1     -12.897  13.989  71.138  1.00  0.00    -0.427 A  
HETATM    7 CL   UNL     1     -13.626  15.807  72.992  1.00  0.00    -0.659 Cl 
HETATM    8  C   UNL     1     -12.150  13.551  70.044  1.00  0.00    -0.411 A  
HETATM    9  C   UNL     1     -11.226  14.411  69.435  1.00  0.00    -0.281 A  
ENDROOT
BRANCH   9  10
HETATM   10  O   UNL     1     -10.478  14.037  68.341  1.00  0.00    -0.239 OA 
BRANCH  10  11
HETATM   11  C   UNL     1     -11.101  13.569  67.200  1.00  0.00    -0.293 A  
HETATM   12  C   UNL     1     -10.660  12.347  66.674  1.00  0.00    -0.231 A  
HETATM   13  C   UNL     1     -11.198  11.845  65.482  1.00  0.00    -0.353 A  
HETATM   14 CL   UNL     1      -9.442  11.410  67.466  1.00  0.00    -0.168 Cl 
HETATM   15  C   UNL     1     -12.186  12.568  64.819  1.00  0.00    -0.465 A  
HETATM   16  C   UNL     1     -12.637  13.783  65.330  1.00  0.00    -0.534 A  
HETATM   17 CL   UNL     1     -12.836  11.970  63.342  1.00  0.00    -0.587 Cl 
HETATM   18  C   UNL     1     -12.081  14.293  66.508  1.00  0.00    -0.454 A  
ENDBRANCH  10  11
ENDBRANCH   9  10
TORSDOF 2
ENDMDL
MODEL        5
REMARK 921   NORMALIZED FREE ENERGY PREDICTED BY IDOCK:   -5.88 KCAL/MOL
REMARK 922        TOTAL FREE ENERGY PREDICTED BY IDOCK:   -6.87 KCAL/MOL
REMARK 923 INTER-LIGAND FREE ENERGY PREDICTED BY IDOCK:   -6.36 KCAL/MOL
REMARK 924 INTRA-LIGAND FREE ENERGY PREDICTED BY IDOCK:   -0.51 KCAL/MOL
REMARK 927      BINDING AFFINITY PREDICTED BY RF-SCORE:    0.00 PKD
ROOT
HETATM    1  O   UNL     1     -13.314   8.097  72.349  1.00  0.00    -0.529 OA 
HETATM    2  C   UNL     1     -11.957   8.247  72.243  1.00  0.00    -0.386 A  
HETATM    3  H   UNL     1     -13.889   8.602  71.786  1.00  0.00     0.000 HD 
HETATM    4  C   UNL     1     -11.114   7.505  73.070  1.00  0.00    -0.413 A  
HETATM    5  C   UNL     1      -9.732   7.666  72.957  1.00  0.00    -0.244 A  
HETATM    6  C   UNL     1      -9.197   8.585  72.057  1.00  0.00    -0.326 A  
HETATM    7 CL   UNL     1      -8.681   6.720  73.935  1.00  0.00    -0.156 Cl 
HETATM    8  C   UNL     1     -10.044   9.341  71.247  1.00  0.00    -0.361 A  
HETATM    9  C   UNL     1     -11.430   9.140  71.299  1.00  0.00    -0.335 A  
ENDROOT
BRANCH   9  10
HETATM   10  O   UNL     1     -12.310   9.844  70.508  1.00  0.00    -0.241 OA 
BRANCH  10  11
HETATM   11  C   UNL     1     -12.558  11.180  70.762  1.00  0.00    -0.352 A  
HETATM   12  C   UNL     1     -11.994  12.122  69.891  1.00  0.00    -0.309 A  
HETATM   13  C   UNL     1     -12.146  13.494  70.127  1.00  0.00    -0.425 A  
HETATM   14 CL   UNL     1     -11.095  11.637  68.497  1.00  0.00    -0.258 Cl 
HETATM   15  C   UNL     1     -12.870  13.923  71.235  1.00  0.00    -0.360 A  
HETATM   16  C   UNL     1     -13.439  12.999  72.109  1.00  0.00    -0.638 A  
HETATM   17 CL   UNL     1     -13.042  15.607  71.544  1.00  0.00    -0.551 Cl 
HETATM   18  C   UNL     1     -13.266  11.629  71.885  1.00  0.00    -0.475 A  
ENDBRANCH  10  11
ENDBRANCH   9  10
TORSDOF 2
ENDMDL
MODEL        6
REMARK 921   NORMALIZED FREE ENERGY PREDICTED BY IDOCK:   -5.83 KCAL/MOL
REMARK 922        TOTAL FREE ENERGY PREDICTED BY IDOCK:   -6.82 KCAL/MOL
REMARK 923 INTER-LIGAND FREE ENERGY PREDICTED BY IDOCK:   -6.57 KCAL/MOL
REMARK 924 INTRA-LIGAND FREE ENERGY PREDICTED BY IDOCK:   -0.24 KCAL/MOL
REMARK 927      BINDING AFFINITY PREDICTED BY RF-SCORE:    0.00 PKD
ROOT
HETATM    1  O   UNL     1     -11.313  16.927  64.194  1.00  0.00    -1.389 OA 
HETATM    2  C   UNL     1     -11.418  15.692  64.777  1.00  0.00    -0.283 A  
HETATM    3  H   UNL     1     -11.058  17.675  64.721  1.00  0.00     0.000 HD 
HETATM    4  C   UNL     1     -11.793  14.594  64.003  1.00  0.00    -0.135 A  
HETATM    5  C   UNL     1     -11.900  13.339  64.605  1.00  0.00    -0.378 A  
HETATM    6  C   UNL     1     -11.675  13.187  65.972  1.00  0.00    -0.424 A  
HETATM    7 CL   UNL     1     -12.310  11.969  63.652  1.00  0.00    -0.641 Cl 
HETATM    8  C   UNL     1     -11.322  14.292  66.747  1.00  0.00    -0.357 A  
HETATM    9  C   UNL     1     -11.141  15.544  66.143  1.00  0.00    -0.177 A  
ENDROOT
BRANCH   9  10
HETATM   10  O   UNL     1     -10.774  16.663  66.857  1.00  0.00    -0.266 OA 
BRANCH  10  11
HETATM   11  C   UNL     1      -9.505  17.193  66.714  1.00  0.00    -0.267 A  
HETATM   12  C   UNL     1      -9.387  18.589  66.655  1.00  0.00    -0.310 A  
HETATM   13  C   UNL     1      -8.141  19.192  66.443  1.00  0.00    -0.319 A  
HETATM   14 CL   UNL     1     -10.762  19.619  66.843  1.00  0.00    -0.592 Cl 
HETATM   15  C   UNL     1      -7.010  18.395  66.295  1.00  0.00    -0.243 A  
HETATM   16  C   UNL     1      -7.110  17.007  66.353  1.00  0.00    -0.285 A  
HETATM   17 CL   UNL     1      -5.480  19.129  66.011  1.00  0.00    -0.172 Cl 
HETATM   18  C   UNL     1      -8.359  16.406  66.542  1.00  0.00    -0.337 A  
ENDBRANCH  10  11
ENDBRANCH   9  10
TORSDOF 2
ENDMDL
MODEL        7
REMARK 921   NORMALIZED FREE ENERGY PREDICTED BY IDOCK:   -5.82 KCAL/MOL
REMARK 922        TOTAL FREE ENERGY PREDICTED BY IDOCK:   -6.80 KCAL/MOL
REMARK 923 INTER-LIGAND FREE ENERGY PREDICTED BY IDOCK:   -6.51 KCAL/MOL
REMARK 924 INTRA-LIGAND FREE ENERGY PREDICTED BY IDOCK:   -0.30 KCAL/MOL
REMARK 927      BINDING AFFINITY PREDICTED BY RF-SCORE:    0.00 PKD
ROOT
HETATM    1  O   UNL     1     -12.450  14.305  68.518  1.00  0.00    -0.565 OA 
HETATM    2  C   UNL     1     -11.881  14.422  67.278  1.00  0.00    -0.405 A  
HETATM    3  H   UNL     1     -12.261  14.955  69.185  1.00  0.00     0.000 HD 
HETATM    4  C   UNL     1     -12.160  13.469  66.298  1.00  0.00    -0.476 A  
HETATM    5  C   UNL     1     -11.574  13.593  65.038  1.00  0.00    -0.332 A  
HETATM    6  C   UNL     1     -10.689  14.635  64.767  1.00  0.00    -0.399 A  
HETATM    7 CL   UNL     1     -11.950  12.454  63.807  1.00  0.00    -0.550 Cl 
HETATM    8  C   UNL     1     -10.396  15.575  65.756  1.00  0.00    -0.384 A  
HETATM    9  C   UNL     1     -11.031  15.502  67.003  1.00  0.00    -0.283 A  
ENDROOT
BRANCH   9  10
HETATM   10  O   UNL     1     -10.794  16.414  68.008  1.00  0.00    -0.330 OA 
BRANCH  10  11
HETATM   11  C   UNL     1      -9.980  17.508  67.777  1.00  0.00    -0.312 A  
HETATM   12  C   UNL     1      -8.680  17.473  68.299  1.00  0.00    -0.270 A  
HETATM   13  C   UNL     1      -7.825  18.573  68.163  1.00  0.00    -0.308 A  
HETATM   14 CL   UNL     1      -8.079  16.080  69.128  1.00  0.00    -0.233 Cl 
HETATM   15  C   UNL     1      -8.271  19.709  67.495  1.00  0.00    -0.297 A  
HETATM   16  C   UNL     1      -9.560  19.759  66.968  1.00  0.00    -0.490 A  
HETATM   17 CL   UNL     1      -7.234  21.074  67.344  1.00  0.00    -0.411 Cl 
HETATM   18  C   UNL     1     -10.420  18.668  67.126  1.00  0.00    -0.461 A  
ENDBRANCH  10  11
ENDBRANCH   9  10
TORSDOF 2
ENDMDL
MODEL        8
REMARK 921   NORMALIZED FREE ENERGY PREDICTED BY IDOCK:   -5.78 KCAL/MOL
REMARK 922        TOTAL FREE ENERGY PREDICTED BY IDOCK:   -6.75 KCAL/MOL
REMARK 923 INTER-LIGAND FREE ENERGY PREDICTED BY IDOCK:   -6.26 KCAL/MOL
REMARK 924 INTRA-LIGAND FREE ENERGY PREDICTED BY IDOCK:   -0.50 KCAL/MOL
REMARK 927      BINDING AFFINITY PREDICTED BY RF-SCORE:    0.00 PKD
ROOT
HETATM    1  O   UNL     1     -12.208  11.013  68.651  1.00  0.00    -0.734 OA 
HETATM    2  C   UNL     1     -11.944  12.346  68.488  1.00  0.00    -0.223 A  
HETATM    3  H   UNL     1     -12.367  10.468  67.888  1.00  0.00     0.000 HD 
HETATM    4  C   UNL     1     -11.710  13.145  69.607  1.00  0.00    -0.370 A  
HETATM    5  C   UNL     1     -11.444  14.504  69.433  1.00  0.00    -0.285 A  
HETATM    6  C   UNL     1     -11.451  15.070  68.159  1.00  0.00    -0.355 A  
HETATM    7 CL   UNL     1     -11.103  15.488  70.800  1.00  0.00    -0.361 Cl 
HETATM    8  C   UNL     1     -11.707  14.272  67.044  1.00  0.00    -0.427 A  
HETATM    9  C   UNL     1     -11.905  12.893  67.197  1.00  0.00    -0.362 A  
ENDROOT
BRANCH   9  10
HETATM   10  O   UNL     1     -12.142  12.056  66.130  1.00  0.00    -0.582 OA 
BRANCH  10  11
HETATM   11  C   UNL     1     -11.091  11.607  65.352  1.00  0.00    -0.239 A  
HETATM   12  C   UNL     1     -11.028  12.053  64.025  1.00  0.00    -0.381 A  
HETATM   13  C   UNL     1     -10.031  11.585  63.160  1.00  0.00    -0.404 A  
HETATM   14 CL   UNL     1     -12.168  13.192  63.400  1.00  0.00    -0.594 Cl 
HETATM   15  C   UNL     1      -9.090  10.672  63.629  1.00  0.00    -0.232 A  
HETATM   16  C   UNL     1      -9.137  10.221  64.946  1.00  0.00    -0.250 A  
HETATM   17 CL   UNL     1      -7.875  10.076  62.566  1.00  0.00    -0.130 Cl 
HETATM   18  C   UNL     1     -10.149  10.672  65.801  1.00  0.00    -0.327 A  
ENDBRANCH  10  11
ENDBRANCH   9  10
TORSDOF 2
ENDMDL
MODEL        9
REMARK 921   NORMALIZED FREE ENERGY PREDICTED BY IDOCK:   -5.78 KCAL/MOL
REMARK 922        TOTAL FREE ENERGY PREDICTED BY IDOCK:   -6.75 KCAL/MOL
REMARK 923 INTER-LIGAND FREE ENERGY PREDICTED BY IDOCK:   -6.62 KCAL/MOL
REMARK 924 INTRA-LIGAND FREE ENERGY PREDICTED BY IDOCK:   -0.13 KCAL/MOL
REMARK 927      BINDING AFFINITY PREDICTED BY RF-SCORE:    0.00 PKD
ROOT
HETATM    1  O   UNL     1     -12.179  14.961  68.118  1.00  0.00    -0.574 OA 
HETATM    2  C   UNL     1     -11.897  13.912  67.285  1.00  0.00    -0.407 A  
HETATM    3  H   UNL     1     -11.993  14.886  69.047  1.00  0.00     0.000 HD 
HETATM    4  C   UNL     1     -12.171  14.022  65.921  1.00  0.00    -0.481 A  
HETATM    5  C   UNL     1     -11.882  12.948  65.078  1.00  0.00    -0.372 A  
HETATM    6  C   UNL     1     -11.364  11.761  65.594  1.00  0.00    -0.293 A  
HETATM    7 CL   UNL     1     -12.167  13.090  63.389  1.00  0.00    -0.607 Cl 
HETATM    8  C   UNL     1     -11.112  11.648  66.961  1.00  0.00    -0.359 A  
HETATM    9  C   UNL     1     -11.330  12.742  67.809  1.00  0.00    -0.294 A  
ENDROOT
BRANCH   9  10
HETATM   10  O   UNL     1     -11.080  12.691  69.162  1.00  0.00    -0.245 OA 
BRANCH  10  11
HETATM   11  C   UNL     1     -11.723  11.757  69.953  1.00  0.00    -0.323 A  
HETATM   12  C   UNL     1     -12.585  12.233  70.950  1.00  0.00    -0.241 A  
HETATM   13  C   UNL     1     -13.216  11.348  71.832  1.00  0.00    -0.485 A  
HETATM   14 CL   UNL     1     -12.907  13.922  71.132  1.00  0.00    -0.419 Cl 
HETATM   15  C   UNL     1     -12.987   9.981  71.711  1.00  0.00    -0.458 A  
HETATM   16  C   UNL     1     -12.135   9.491  70.725  1.00  0.00    -0.305 A  
HETATM   17 CL   UNL     1     -13.741   8.888  72.807  1.00  0.00    -0.389 Cl 
HETATM   18  C   UNL     1     -11.487  10.379  69.860  1.00  0.00    -0.368 A  
ENDBRANCH  10  11
ENDBRANCH   9  10
TORSDOF 2
ENDMDL
MODEL       10
REMARK 921   NORMALIZED FREE ENERGY PREDICTED BY IDOCK:   -5.73 KCAL/MOL
REMARK 922        TOTAL FREE ENERGY PREDICTED BY IDOCK:   -6.70 KCAL/MOL
REMARK 923 INTER-LIGAND FREE ENERGY PREDICTED BY IDOCK:   -6.18 KCAL/MOL
REMARK 924 INTRA-LIGAND FREE ENERGY PREDICTED BY IDOCK:   -0.52 KCAL/MOL
REMARK 927      BINDING AFFINITY PREDICTED BY RF-SCORE:    0.00 PKD
ROOT
HETATM    1  O   UNL     1     -10.944  12.255  69.130  1.00  0.00    -0.336 OA 
HETATM    2  C   UNL     1     -11.801  12.567  70.151  1.00  0.00    -0.258 A  
HETATM    3  H   UNL     1     -10.836  11.348  68.868  1.00  0.00     0.000 HD 
HETATM    4  C   UNL     1     -11.959  13.899  70.535  1.00  0.00    -0.384 A  
HETATM    5  C   UNL     1     -12.833  14.209  71.578  1.00  0.00    -0.354 A  
HETATM    6  C   UNL     1     -13.512  13.200  72.258  1.00  0.00    -0.665 A  
HETATM    7 CL   UNL     1     -13.076  15.851  72.027  1.00  0.00    -0.485 Cl 
HETATM    8  C   UNL     1     -13.334  11.867  71.885  1.00  0.00    -0.405 A  
HETATM    9  C   UNL     1     -12.515  11.547  70.794  1.00  0.00    -0.349 A  
ENDROOT
BRANCH   9  10
HETATM   10  O   UNL     1     -12.320  10.251  70.371  1.00  0.00    -0.276 OA 
BRANCH  10  11
HETATM   11  C   UNL     1     -11.673   9.343  71.188  1.00  0.00    -0.345 A  
HETATM   12  C   UNL     1     -12.459   8.396  71.858  1.00  0.00    -0.347 A  
HETATM   13  C   UNL     1     -11.878   7.490  72.754  1.00  0.00    -0.156 A  
HETATM   14 CL   UNL     1     -14.167   8.303  71.610  1.00  0.00    -0.503 Cl 
HETATM   15  C   UNL     1     -10.505   7.528  72.974  1.00  0.00    -0.342 A  
HETATM   16  C   UNL     1      -9.709   8.462  72.314  1.00  0.00    -0.386 A  
HETATM   17 CL   UNL     1      -9.787   6.433  74.091  1.00  0.00    -0.259 Cl 
HETATM   18  C   UNL     1     -10.295   9.381  71.437  1.00  0.00    -0.326 A  
ENDBRANCH  10  11
ENDBRANCH   9  10
TORSDOF 2
ENDMDL
MODEL       11
REMARK 921   NORMALIZED FREE ENERGY PREDICTED BY IDOCK:   -5.73 KCAL/MOL
REMARK 922        TOTAL FREE ENERGY PREDICTED BY IDOCK:   -6.70 KCAL/MOL
REMARK 923 INTER-LIGAND FREE ENERGY PREDICTED BY IDOCK:   -6.35 KCAL/MOL
REMARK 924 INTRA-LIGAND FREE ENERGY PREDICTED BY IDOCK:   -0.35 KCAL/MOL
REMARK 927      BINDING AFFINITY PREDICTED BY RF-SCORE:    0.00 PKD
ROOT
HETATM    1  O   UNL     1     -13.074  13.528  65.033  1.00  0.00    -0.736 OA 
HETATM    2  C   UNL     1     -11.859  13.003  65.382  1.00  0.00    -0.388 A  
HETATM    3  H   UNL     1     -13.379  14.324  65.453  1.00  0.00     0.000 HD 
HETATM    4  C   UNL     1     -11.411  11.834  64.765  1.00  0.00    -0.313 A  
HETATM    5  C   UNL     1     -10.172  11.303  65.127  1.00  0.00    -0.289 A  
HETATM    6  C   UNL     1      -9.405  11.907  66.122  1.00  0.00    -0.228 A  
HETATM    7 CL   UNL     1      -9.585   9.893  64.338  1.00  0.00    -0.325 Cl 
HETATM    8  C   UNL     1      -9.866  13.064  66.751  1.00  0.00    -0.243 A  
HETATM    9  C   UNL     1     -11.075  13.648  66.348  1.00  0.00    -0.303 A  
ENDROOT
BRANCH   9  10
HETATM   10  O   UNL     1     -11.567  14.799  66.922  1.00  0.00    -0.359 OA 
BRANCH  10  11
HETATM   11  C   UNL     1     -11.670  14.902  68.296  1.00  0.00    -0.315 A  
HETATM   12  C   UNL     1     -11.189  16.072  68.898  1.00  0.00    -0.353 A  
HETATM   13  C   UNL     1     -11.198  16.216  70.291  1.00  0.00    -0.389 A  
HETATM   14 CL   UNL     1     -10.567  17.381  67.956  1.00  0.00    -0.386 Cl 
HETATM   15  C   UNL     1     -11.698  15.186  71.083  1.00  0.00    -0.353 A  
HETATM   16  C   UNL     1     -12.183  14.018  70.500  1.00  0.00    -0.435 A  
HETATM   17 CL   UNL     1     -11.691  15.346  72.796  1.00  0.00    -0.555 Cl 
HETATM   18  C   UNL     1     -12.150  13.867  69.110  1.00  0.00    -0.377 A  
ENDBRANCH  10  11
ENDBRANCH   9  10
TORSDOF 2
ENDMDL
MODEL       12
REMARK 921   NORMALIZED FREE ENERGY PREDICTED BY IDOCK:   -5.71 KCAL/MOL
REMARK 922        TOTAL FREE ENERGY PREDICTED BY IDOCK:   -6.67 KCAL/MOL
REMARK 923 INTER-LIGAND FREE ENERGY PREDICTED BY IDOCK:   -6.17 KCAL/MOL
REMARK 924 INTRA-LIGAND FREE ENERGY PREDICTED BY IDOCK:   -0.50 KCAL/MOL
REMARK 927      BINDING AFFINITY PREDICTED BY RF-SCORE:    0.00 PKD
ROOT
HETATM    1  O   UNL     1      -8.691  13.066  66.146  1.00  0.00    -0.400 OA 
HETATM    2  C   UNL     1     -10.031  13.216  65.906  1.00  0.00    -0.269 A  
HETATM    3  H   UNL     1      -8.284  13.549  66.855  1.00  0.00     0.000 HD 
HETATM    4  C   UNL     1     -10.628  12.506  64.864  1.00  0.00    -0.330 A  
HETATM    5  C   UNL     1     -11.994  12.666  64.625  1.00  0.00    -0.402 A  
HETATM    6  C   UNL     1     -12.748  13.554  65.389  1.00  0.00    -0.495 A  
HETATM    7 CL   UNL     1     -12.753  11.758  63.378  1.00  0.00    -0.588 Cl 
HETATM    8  C   UNL     1     -12.142  14.278  66.416  1.00  0.00    -0.442 A  
HETATM    9  C   UNL     1     -10.788  14.075  66.714  1.00  0.00    -0.294 A  
ENDROOT
BRANCH   9  10
HETATM   10  O   UNL     1     -10.145  14.748  67.728  1.00  0.00    -0.223 OA 
BRANCH  10  11
HETATM   11  C   UNL     1      -9.908  16.106  67.621  1.00  0.00    -0.236 A  
HETATM   12  C   UNL     1     -10.396  16.934  68.641  1.00  0.00    -0.332 A  
HETATM   13  C   UNL     1     -10.252  18.324  68.564  1.00  0.00    -0.402 A  
HETATM   14 CL   UNL     1     -11.189  16.280  70.031  1.00  0.00    -0.347 Cl 
HETATM   15  C   UNL     1      -9.612  18.887  67.464  1.00  0.00    -0.305 A  
HETATM   16  C   UNL     1      -9.119  18.078  66.442  1.00  0.00    -0.251 A  
HETATM   17 CL   UNL     1      -9.453  20.597  67.351  1.00  0.00    -0.560 Cl 
HETATM   18  C   UNL     1      -9.285  16.691  66.511  1.00  0.00    -0.297 A  
ENDBRANCH  10  11
ENDBRANCH   9  10
TORSDOF 2
ENDMDL
MODEL       13
REMARK 921   NORMALIZED FREE ENERGY PREDICTED BY IDOCK:   -5.68 KCAL/MOL
REMARK 922        TOTAL FREE ENERGY PREDICTED BY IDOCK:   -6.64 KCAL/MOL
REMARK 923 INTER-LIGAND FREE ENERGY PREDICTED BY IDOCK:   -6.33 KCAL/MOL
REMARK 924 INTRA-LIGAND FREE ENERGY PREDICTED BY IDOCK:   -0.31 KCAL/MOL
REMARK 927      BINDING AFFINITY PREDICTED BY RF-SCORE:    0.00 PKD
ROOT
HETATM    1  O   UNL     1     -14.314   8.324  71.126  1.00  0.00    -0.643 OA 
HETATM    2  C   UNL     1     -12.979   8.123  71.358  1.00  0.00    -0.242 A  
HETATM    3  H   UNL     1     -14.666   9.206  71.142  1.00  0.00     0.000 HD 
HETATM    4  C   UNL     1     -12.463   6.827  71.335  1.00  0.00    -0.379 A  
HETATM    5  C   UNL     1     -11.102   6.630  71.574  1.00  0.00    -0.256 A  
HETATM    6  C   UNL     1     -10.272   7.708  71.873  1.00  0.00    -0.234 A  
HETATM    7 CL   UNL     1     -10.444   5.043  71.498  1.00  0.00    -0.260 Cl 
HETATM    8  C   UNL     1     -10.796   9.000  71.916  1.00  0.00    -0.413 A  
HETATM    9  C   UNL     1     -12.145   9.221  71.609  1.00  0.00    -0.379 A  
ENDROOT
BRANCH   9  10
HETATM   10  O   UNL     1     -12.710  10.477  71.617  1.00  0.00    -0.405 OA 
BRANCH  10  11
HETATM   11  C   UNL     1     -12.375  11.396  70.640  1.00  0.00    -0.373 A  
HETATM   12  C   UNL     1     -12.655  12.746  70.894  1.00  0.00    -0.255 A  
HETATM   13  C   UNL     1     -12.406  13.723  69.923  1.00  0.00    -0.334 A  
HETATM   14 CL   UNL     1     -13.315  13.261  72.407  1.00  0.00    -0.636 Cl 
HETATM   15  C   UNL     1     -11.868  13.348  68.695  1.00  0.00    -0.362 A  
HETATM   16  C   UNL     1     -11.582  12.011  68.428  1.00  0.00    -0.368 A  
HETATM   17 CL   UNL     1     -11.581  14.540  67.488  1.00  0.00    -0.384 Cl 
HETATM   18  C   UNL     1     -11.854  11.034  69.391  1.00  0.00    -0.407 A  
ENDBRANCH  10  11
ENDBRANCH   9  10
TORSDOF 2
ENDMDL
MODEL       14
REMARK 921   NORMALIZED FREE ENERGY PREDICTED BY IDOCK:   -5.64 KCAL/MOL
REMARK 922        TOTAL FREE ENERGY PREDICTED BY IDOCK:   -6.60 KCAL/MOL
REMARK 923 INTER-LIGAND FREE ENERGY PREDICTED BY IDOCK:   -6.10 KCAL/MOL
REMARK 924 INTRA-LIGAND FREE ENERGY PREDICTED BY IDOCK:   -0.50 KCAL/MOL
REMARK 927      BINDING AFFINITY PREDICTED BY RF-SCORE:    0.00 PKD
ROOT
HETATM    1  O   UNL     1     -12.514  14.319  63.377  1.00  0.00    -1.125 OA 
HETATM    2  C   UNL     1     -11.766  14.709  64.456  1.00  0.00    -0.401 A  
HETATM    3  H   UNL     1     -12.770  13.409  63.287  1.00  0.00     0.000 HD 
HETATM    4  C   UNL     1     -11.391  16.046  64.588  1.00  0.00    -0.312 A  
HETATM    5  C   UNL     1     -10.627  16.435  65.690  1.00  0.00    -0.323 A  
HETATM    6  C   UNL     1     -10.208  15.495  66.629  1.00  0.00    -0.280 A  
HETATM    7 CL   UNL     1     -10.201  18.089  65.891  1.00  0.00    -0.289 Cl 
HETATM    8  C   UNL     1     -10.567  14.155  66.482  1.00  0.00    -0.282 A  
HETATM    9  C   UNL     1     -11.393  13.762  65.420  1.00  0.00    -0.308 A  
ENDROOT
BRANCH   9  10
HETATM   10  O   UNL     1     -11.794  12.457  65.239  1.00  0.00    -0.379 OA 
BRANCH  10  11
HETATM   11  C   UNL     1     -10.897  11.511  64.780  1.00  0.00    -0.297 A  
HETATM   12  C   UNL     1     -10.381  10.599  65.711  1.00  0.00    -0.219 A  
HETATM   13  C   UNL     1      -9.416   9.658  65.331  1.00  0.00    -0.343 A  
HETATM   14 CL   UNL     1     -10.909  10.595  67.357  1.00  0.00    -0.332 Cl 
HETATM   15  C   UNL     1      -8.971   9.627  64.013  1.00  0.00    -0.223 A  
HETATM   16  C   UNL     1      -9.476  10.524  63.074  1.00  0.00    -0.364 A  
HETATM   17 CL   UNL     1      -7.769   8.488  63.544  1.00  0.00    -0.134 Cl 
HETATM   18  C   UNL     1     -10.422  11.479  63.462  1.00  0.00    -0.486 A  
ENDBRANCH  10  11
ENDBRANCH   9  10
TORSDOF 2
ENDMDL
MODEL       15
REMARK 921   NORMALIZED FREE ENERGY PREDICTED BY IDOCK:   -5.63 KCAL/MOL
REMARK 922        TOTAL FREE ENERGY PREDICTED BY IDOCK:   -6.59 KCAL/MOL
REMARK 923 INTER-LIGAND FREE ENERGY PREDICTED BY IDOCK:   -6.24 KCAL/MOL
REMARK 924 INTRA-LIGAND FREE ENERGY PREDICTED BY IDOCK:   -0.34 KCAL/MOL
REMARK 927      BINDING AFFINITY PREDICTED BY RF-SCORE:    0.00 PKD
ROOT
HETATM    1  O   UNL     1     -11.118  16.825  64.203  1.00  0.00    -1.346 OA 
HETATM    2  C   UNL     1     -10.575  17.045  65.440  1.00  0.00    -0.134 A  
HETATM    3  H   UNL     1     -11.068  15.959  63.815  1.00  0.00     0.000 HD 
HETATM    4  C   UNL     1     -10.650  18.316  66.010  1.00  0.00    -0.318 A  
HETATM    5  C   UNL     1     -10.092  18.534  67.271  1.00  0.00    -0.352 A  
HETATM    6  C   UNL     1      -9.432  17.505  67.940  1.00  0.00    -0.277 A  
HETATM    7 CL   UNL     1     -10.222  20.083  68.005  1.00  0.00    -0.552 Cl 
HETATM    8  C   UNL     1      -9.341  16.241  67.358  1.00  0.00    -0.224 A  
HETATM    9  C   UNL     1      -9.957  15.989  66.125  1.00  0.00    -0.325 A  
ENDROOT
BRANCH   9  10
HETATM   10  O   UNL     1      -9.915  14.755  65.515  1.00  0.00    -0.342 OA 
BRANCH  10  11
HETATM   11  C   UNL     1     -10.110  13.606  66.258  1.00  0.00    -0.299 A  
HETATM   12  C   UNL     1     -11.427  13.165  66.441  1.00  0.00    -0.334 A  
HETATM   13  C   UNL     1     -11.704  12.048  67.239  1.00  0.00    -0.339 A  
HETATM   14 CL   UNL     1     -12.761  13.974  65.696  1.00  0.00    -0.555 Cl 
HETATM   15  C   UNL     1     -10.655  11.366  67.850  1.00  0.00    -0.189 A  
HETATM   16  C   UNL     1      -9.339  11.790  67.676  1.00  0.00    -0.180 A  
HETATM   17 CL   UNL     1     -10.988  10.006  68.850  1.00  0.00    -0.253 Cl 
HETATM   18  C   UNL     1      -9.068  12.920  66.897  1.00  0.00    -0.224 A  
ENDBRANCH  10  11
ENDBRANCH   9  10
TORSDOF 2
ENDMDL
MODEL       16
REMARK 921   NORMALIZED FREE ENERGY PREDICTED BY IDOCK:   -5.62 KCAL/MOL
REMARK 922        TOTAL FREE ENERGY PREDICTED BY IDOCK:   -6.58 KCAL/MOL
REMARK 923 INTER-LIGAND FREE ENERGY PREDICTED BY IDOCK:   -6.29 KCAL/MOL
REMARK 924 INTRA-LIGAND FREE ENERGY PREDICTED BY IDOCK:   -0.29 KCAL/MOL
REMARK 927      BINDING AFFINITY PREDICTED BY RF-SCORE:    0.00 PKD
ROOT
HETATM    1  O   UNL     1     -10.083  10.641  69.912  1.00  0.00    -0.435 OA 
HETATM    2  C   UNL     1     -10.983   9.923  70.653  1.00  0.00    -0.337 A  
HETATM    3  H   UNL     1     -10.350  11.462  69.516  1.00  0.00     0.000 HD 
HETATM    4  C   UNL     1     -10.591   8.717  71.235  1.00  0.00    -0.332 A  
HETATM    5  C   UNL     1     -11.515   7.989  71.986  1.00  0.00    -0.309 A  
HETATM    6  C   UNL     1     -12.827   8.437  72.123  1.00  0.00    -0.385 A  
HETATM    7 CL   UNL     1     -11.029   6.529  72.752  1.00  0.00    -0.271 Cl 
HETATM    8  C   UNL     1     -13.222   9.632  71.521  1.00  0.00    -0.484 A  
HETATM    9  C   UNL     1     -12.287  10.409  70.823  1.00  0.00    -0.367 A  
ENDROOT
BRANCH   9  10
HETATM   10  O   UNL     1     -12.617  11.606  70.227  1.00  0.00    -0.187 OA 
BRANCH  10  11
HETATM   11  C   UNL     1     -12.609  12.775  70.964  1.00  0.00    -0.271 A  
HETATM   12  C   UNL     1     -11.809  13.829  70.503  1.00  0.00    -0.223 A  
HETATM   13  C   UNL     1     -11.699  15.018  71.235  1.00  0.00    -0.397 A  
HETATM   14 CL   UNL     1     -10.929  13.711  69.019  1.00  0.00    -0.281 Cl 
HETATM   15  C   UNL     1     -12.399  15.153  72.431  1.00  0.00    -0.363 A  
HETATM   16  C   UNL     1     -13.201  14.116  72.902  1.00  0.00    -0.553 A  
HETATM   17 CL   UNL     1     -12.251  16.602  73.347  1.00  0.00    -0.477 Cl 
HETATM   18  C   UNL     1     -13.290  12.921  72.180  1.00  0.00    -0.615 A  
ENDBRANCH  10  11
ENDBRANCH   9  10
TORSDOF 2
ENDMDL
MODEL       17
REMARK 921   NORMALIZED FREE ENERGY PREDICTED BY IDOCK:   -5.62 KCAL/MOL
REMARK 922        TOTAL FREE ENERGY PREDICTED BY IDOCK:   -6.58 KCAL/MOL
REMARK 923 INTER-LIGAND FREE ENERGY PREDICTED BY IDOCK:   -6.05 KCAL/MOL
REMARK 924 INTRA-LIGAND FREE ENERGY PREDICTED BY IDOCK:   -0.52 KCAL/MOL
REMARK 927      BINDING AFFINITY PREDICTED BY RF-SCORE:    0.00 PKD
ROOT
HETATM    1  O   UNL     1     -14.020   9.042  73.223  1.00  0.00    -1.205 OA 
HETATM    2  C   UNL     1     -13.196   9.621  72.296  1.00  0.00    -0.404 A  
HETATM    3  H   UNL     1     -13.965   8.106  73.381  1.00  0.00     0.000 HD 
HETATM    4  C   UNL     1     -13.276  10.994  72.064  1.00  0.00    -0.447 A  
HETATM    5  C   UNL     1     -12.434  11.576  71.115  1.00  0.00    -0.337 A  
HETATM    6  C   UNL     1     -11.549  10.793  70.377  1.00  0.00    -0.431 A  
HETATM    7 CL   UNL     1     -12.487  13.275  70.857  1.00  0.00    -0.445 Cl 
HETATM    8  C   UNL     1     -11.487   9.417  70.596  1.00  0.00    -0.344 A  
HETATM    9  C   UNL     1     -12.276   8.829  71.594  1.00  0.00    -0.339 A  
ENDROOT
BRANCH   9  10
HETATM   10  O   UNL     1     -12.240   7.479  71.866  1.00  0.00    -0.292 OA 
BRANCH  10  11
HETATM   11  C   UNL     1     -11.076   6.895  72.331  1.00  0.00    -0.260 A  
HETATM   12  C   UNL     1     -10.415   5.997  71.482  1.00  0.00    -0.228 A  
HETATM   13  C   UNL     1      -9.270   5.316  71.913  1.00  0.00    -0.156 A  
HETATM   14 CL   UNL     1     -10.979   5.694  69.876  1.00  0.00    -0.383 Cl 
HETATM   15  C   UNL     1      -8.782   5.540  73.197  1.00  0.00    -0.120 A  
HETATM   16  C   UNL     1      -9.426   6.431  74.053  1.00  0.00    -0.197 A  
HETATM   17 CL   UNL     1      -7.389   4.689  73.741  1.00  0.00    -0.080 Cl 
HETATM   18  C   UNL     1     -10.584   7.092  73.628  1.00  0.00    -0.383 A  
ENDBRANCH  10  11
ENDBRANCH   9  10
TORSDOF 2
ENDMDL
MODEL       18
REMARK 921   NORMALIZED FREE ENERGY PREDICTED BY IDOCK:   -5.60 KCAL/MOL
REMARK 922        TOTAL FREE ENERGY PREDICTED BY IDOCK:   -6.55 KCAL/MOL
REMARK 923 INTER-LIGAND FREE ENERGY PREDICTED BY IDOCK:   -6.17 KCAL/MOL
REMARK 924 INTRA-LIGAND FREE ENERGY PREDICTED BY IDOCK:   -0.39 KCAL/MOL
REMARK 927      BINDING AFFINITY PREDICTED BY RF-SCORE:    0.00 PKD
ROOT
HETATM    1  O   UNL     1     -12.515  14.219  68.419  1.00  0.00    -0.564 OA 
HETATM    2  C   UNL     1     -11.967  14.540  67.206  1.00  0.00    -0.344 A  
HETATM    3  H   UNL     1     -12.337  14.766  69.175  1.00  0.00     0.000 HD 
HETATM    4  C   UNL     1     -12.228  13.736  66.097  1.00  0.00    -0.499 A  
HETATM    5  C   UNL     1     -11.664  14.068  64.864  1.00  0.00    -0.380 A  
HETATM    6  C   UNL     1     -10.816  15.168  64.747  1.00  0.00    -0.378 A  
HETATM    7 CL   UNL     1     -12.020  13.115  63.479  1.00  0.00    -0.589 Cl 
HETATM    8  C   UNL     1     -10.540  15.957  65.863  1.00  0.00    -0.348 A  
HETATM    9  C   UNL     1     -11.155  15.677  67.091  1.00  0.00    -0.218 A  
ENDROOT
BRANCH   9  10
HETATM   10  O   UNL     1     -10.933  16.434  68.219  1.00  0.00    -0.336 OA 
BRANCH  10  11
HETATM   11  C   UNL     1      -9.697  17.015  68.436  1.00  0.00    -0.279 A  
HETATM   12  C   UNL     1      -9.552  18.372  68.119  1.00  0.00    -0.316 A  
HETATM   13  C   UNL     1      -8.311  19.008  68.248  1.00  0.00    -0.369 A  
HETATM   14 CL   UNL     1     -10.889  19.316  67.561  1.00  0.00    -0.560 Cl 
HETATM   15  C   UNL     1      -7.213  18.282  68.701  1.00  0.00    -0.282 A  
HETATM   16  C   UNL     1      -7.341  16.932  69.022  1.00  0.00    -0.231 A  
HETATM   17 CL   UNL     1      -5.680  19.051  68.840  1.00  0.00    -0.215 Cl 
HETATM   18  C   UNL     1      -8.577  16.294  68.870  1.00  0.00    -0.260 A  
ENDBRANCH  10  11
ENDBRANCH   9  10
TORSDOF 2
ENDMDL
MODEL       19
REMARK 921   NORMALIZED FREE ENERGY PREDICTED BY IDOCK:   -5.57 KCAL/MOL
REMARK 922        TOTAL FREE ENERGY PREDICTED BY IDOCK:   -6.52 KCAL/MOL
REMARK 923 INTER-LIGAND FREE ENERGY PREDICTED BY IDOCK:   -5.98 KCAL/MOL
REMARK 924 INTRA-LIGAND FREE ENERGY PREDICTED BY IDOCK:   -0.53 KCAL/MOL
REMARK 927      BINDING AFFINITY PREDICTED BY RF-SCORE:    0.00 PKD
ROOT
HETATM    1  O   UNL     1     -12.527  14.233  68.712  1.00  0.00    -0.568 OA 
HETATM    2  C   UNL     1     -11.751  15.045  67.928  1.00  0.00    -0.289 A  
HETATM    3  H   UNL     1     -12.874  13.425  68.353  1.00  0.00     0.000 HD 
HETATM    4  C   UNL     1     -11.242  16.232  68.456  1.00  0.00    -0.359 A  
HETATM    5  C   UNL     1     -10.454  17.055  67.650  1.00  0.00    -0.343 A  
HETATM    6  C   UNL     1     -10.209  16.719  66.320  1.00  0.00    -0.341 A  
HETATM    7 CL   UNL     1      -9.778  18.494  68.304  1.00  0.00    -0.359 Cl 
HETATM    8  C   UNL     1     -10.738  15.542  65.789  1.00  0.00    -0.362 A  
HETATM    9  C   UNL     1     -11.471  14.671  66.606  1.00  0.00    -0.357 A  
ENDROOT
BRANCH   9  10
HETATM   10  O   UNL     1     -11.999  13.488  66.140  1.00  0.00    -0.368 OA 
BRANCH  10  11
HETATM   11  C   UNL     1     -11.165  12.431  65.826  1.00  0.00    -0.333 A  
HETATM   12  C   UNL     1     -11.073  12.054  64.479  1.00  0.00    -0.331 A  
HETATM   13  C   UNL     1     -10.301  10.949  64.097  1.00  0.00    -0.432 A  
HETATM   14 CL   UNL     1     -11.899  12.929  63.238  1.00  0.00    -0.570 Cl 
HETATM   15  C   UNL     1      -9.615  10.224  65.067  1.00  0.00    -0.285 A  
HETATM   16  C   UNL     1      -9.695  10.587  66.409  1.00  0.00    -0.245 A  
HETATM   17 CL   UNL     1      -8.684   8.852  64.607  1.00  0.00    -0.174 Cl 
HETATM   18  C   UNL     1     -10.485  11.677  66.791  1.00  0.00    -0.265 A  
ENDBRANCH  10  11
ENDBRANCH   9  10
TORSDOF 2
ENDMDL
MODEL       20
REMARK 921   NORMALIZED FREE ENERGY PREDICTED BY IDOCK:   -5.56 KCAL/MOL
REMARK 922        TOTAL FREE ENERGY PREDICTED BY IDOCK:   -6.51 KCAL/MOL
REMARK 923 INTER-LIGAND FREE ENERGY PREDICTED BY IDOCK:   -6.23 KCAL/MOL
REMARK 924 INTRA-LIGAND FREE ENERGY PREDICTED BY IDOCK:   -0.28 KCAL/MOL
REMARK 927      BINDING AFFINITY PREDICTED BY RF-SCORE:    0.00 PKD
ROOT
HETATM    1  O   UNL     1     -13.297  12.506  64.621  1.00  0.00    -0.804 OA 
HETATM    2  C   UNL     1     -12.299  13.228  65.218  1.00  0.00    -0.476 A  
HETATM    3  H   UNL     1     -13.460  11.611  64.898  1.00  0.00     0.000 HD 
HETATM    4  C   UNL     1     -12.060  14.541  64.812  1.00  0.00    -0.454 A  
HETATM    5  C   UNL     1     -11.039  15.270  65.424  1.00  0.00    -0.347 A  
HETATM    6  C   UNL     1     -10.239  14.685  66.403  1.00  0.00    -0.296 A  
HETATM    7 CL   UNL     1     -10.768  16.906  64.968  1.00  0.00    -0.188 Cl 
HETATM    8  C   UNL     1     -10.467  13.364  66.792  1.00  0.00    -0.275 A  
HETATM    9  C   UNL     1     -11.533  12.644  66.236  1.00  0.00    -0.364 A  
ENDROOT
BRANCH   9  10
HETATM   10  O   UNL     1     -11.816  11.345  66.598  1.00  0.00    -0.399 OA 
BRANCH  10  11
HETATM   11  C   UNL     1     -11.472  10.883  67.855  1.00  0.00    -0.266 A  
HETATM   12  C   UNL     1     -10.626   9.768  67.929  1.00  0.00    -0.259 A  
HETATM   13  C   UNL     1     -10.293   9.204  69.166  1.00  0.00    -0.223 A  
HETATM   14 CL   UNL     1      -9.960   9.045  66.506  1.00  0.00    -0.339 Cl 
HETATM   15  C   UNL     1     -10.804   9.763  70.334  1.00  0.00    -0.311 A  
HETATM   16  C   UNL     1     -11.644  10.873  70.278  1.00  0.00    -0.426 A  
HETATM   17 CL   UNL     1     -10.417   9.062  71.857  1.00  0.00    -0.416 Cl 
HETATM   18  C   UNL     1     -11.995  11.420  69.039  1.00  0.00    -0.387 A  
ENDBRANCH  10  11
ENDBRANCH   9  10
TORSDOF 2
ENDMDL
MODEL       21
REMARK 921   NORMALIZED FREE ENERGY PREDICTED BY IDOCK:   -5.56 KCAL/MOL
REMARK 922        TOTAL FREE ENERGY PREDICTED BY IDOCK:   -6.51 KCAL/MOL
REMARK 923 INTER-LIGAND FREE ENERGY PREDICTED BY IDOCK:   -6.14 KCAL/MOL
REMARK 924 INTRA-LIGAND FREE ENERGY PREDICTED BY IDOCK:   -0.37 KCAL/MOL
REMARK 927      BINDING AFFINITY PREDICTED BY RF-SCORE:    0.00 PKD
ROOT
HETATM    1  O   UNL     1     -12.417  14.457  63.556  1.00  0.00    -1.102 OA 
HETATM    2  C   UNL     1     -11.756  14.894  64.672  1.00  0.00    -0.404 A  
HETATM    3  H   UNL     1     -12.738  13.564  63.520  1.00  0.00     0.000 HD 
HETATM    4  C   UNL     1     -11.285  16.206  64.725  1.00  0.00    -0.313 A  
HETATM    5  C   UNL     1     -10.609  16.643  65.866  1.00  0.00    -0.249 A  
HETATM    6  C   UNL     1     -10.370  15.771  66.926  1.00  0.00    -0.295 A  
HETATM    7 CL   UNL     1     -10.069  18.273  65.964  1.00  0.00    -0.322 Cl 
HETATM    8  C   UNL     1     -10.823  14.454  66.860  1.00  0.00    -0.301 A  
HETATM    9  C   UNL     1     -11.564  14.021  65.752  1.00  0.00    -0.339 A  
ENDROOT
BRANCH   9  10
HETATM   10  O   UNL     1     -12.053  12.738  65.644  1.00  0.00    -0.429 OA 
BRANCH  10  11
HETATM   11  C   UNL     1     -11.252  11.659  65.972  1.00  0.00    -0.240 A  
HETATM   12  C   UNL     1     -10.480  11.089  64.950  1.00  0.00    -0.303 A  
HETATM   13  C   UNL     1      -9.699   9.953  65.194  1.00  0.00    -0.376 A  
HETATM   14 CL   UNL     1     -10.456  11.759  63.357  1.00  0.00    -0.463 Cl 
HETATM   15  C   UNL     1      -9.687   9.390  66.467  1.00  0.00    -0.236 A  
HETATM   16  C   UNL     1     -10.447   9.945  67.493  1.00  0.00    -0.310 A  
HETATM   17 CL   UNL     1      -8.748   7.980  66.768  1.00  0.00    -0.132 Cl 
HETATM   18  C   UNL     1     -11.245  11.067  67.241  1.00  0.00    -0.330 A  
ENDBRANCH  10  11
ENDBRANCH   9  10
TORSDOF 2
ENDMDL
MODEL       22
REMARK 921   NORMALIZED FREE ENERGY PREDICTED BY IDOCK:   -5.56 KCAL/MOL
REMARK 922        TOTAL FREE ENERGY PREDICTED BY IDOCK:   -6.51 KCAL/MOL
REMARK 923 INTER-LIGAND FREE ENERGY PREDICTED BY IDOCK:   -6.28 KCAL/MOL
REMARK 924 INTRA-LIGAND FREE ENERGY PREDICTED BY IDOCK:   -0.23 KCAL/MOL
REMARK 927      BINDING AFFINITY PREDICTED BY RF-SCORE:    0.00 PKD
ROOT
HETATM    1  O   UNL     1     -11.875  13.270  66.311  1.00  0.00    -0.357 OA 
HETATM    2  C   UNL     1     -11.632  12.383  67.325  1.00  0.00    -0.365 A  
HETATM    3  H   UNL     1     -12.192  14.142  66.516  1.00  0.00     0.000 HD 
HETATM    4  C   UNL     1     -11.167  11.102  67.024  1.00  0.00    -0.291 A  
HETATM    5  C   UNL     1     -10.924  10.203  68.063  1.00  0.00    -0.270 A  
HETATM    6  C   UNL     1     -11.178  10.562  69.386  1.00  0.00    -0.327 A  
HETATM    7 CL   UNL     1     -10.302   8.639  67.709  1.00  0.00    -0.292 Cl 
HETATM    8  C   UNL     1     -11.663  11.836  69.681  1.00  0.00    -0.413 A  
HETATM    9  C   UNL     1     -11.845  12.773  68.654  1.00  0.00    -0.304 A  
ENDROOT
BRANCH   9  10
HETATM   10  O   UNL     1     -12.302  14.050  68.892  1.00  0.00    -0.299 OA 
BRANCH  10  11
HETATM   11  C   UNL     1     -12.398  14.525  70.186  1.00  0.00    -0.342 A  
HETATM   12  C   UNL     1     -11.300  15.225  70.705  1.00  0.00    -0.331 A  
HETATM   13  C   UNL     1     -11.301  15.675  72.031  1.00  0.00    -0.404 A  
HETATM   14 CL   UNL     1      -9.908  15.564  69.738  1.00  0.00    -0.289 Cl 
HETATM   15  C   UNL     1     -12.408  15.428  72.838  1.00  0.00    -0.411 A  
HETATM   16  C   UNL     1     -13.508  14.736  72.337  1.00  0.00    -0.529 A  
HETATM   17 CL   UNL     1     -12.406  15.958  74.475  1.00  0.00    -0.778 Cl 
HETATM   18  C   UNL     1     -13.495  14.267  71.019  1.00  0.00    -0.274 A  
ENDBRANCH  10  11
ENDBRANCH   9  10
TORSDOF 2
ENDMDL
MODEL       23
REMARK 921   NORMALIZED FREE ENERGY PREDICTED BY IDOCK:   -5.54 KCAL/MOL
REMARK 922        TOTAL FREE ENERGY PREDICTED BY IDOCK:   -6.49 KCAL/MOL
REMARK 923 INTER-LIGAND FREE ENERGY PREDICTED BY IDOCK:   -6.17 KCAL/MOL
REMARK 924 INTRA-LIGAND FREE ENERGY PREDICTED BY IDOCK:   -0.32 KCAL/MOL
REMARK 927      BINDING AFFINITY PREDICTED BY RF-SCORE:    0.00 PKD
ROOT
HETATM    1  O   UNL     1     -12.117  12.556  65.838  1.00  0.00    -0.537 OA 
HETATM    2  C   UNL     1     -11.832  13.335  66.927  1.00  0.00    -0.392 A  
HETATM    3  H   UNL     1     -12.331  11.638  65.960  1.00  0.00     0.000 HD 
HETATM    4  C   UNL     1     -11.518  14.683  66.748  1.00  0.00    -0.371 A  
HETATM    5  C   UNL     1     -11.225  15.470  67.863  1.00  0.00    -0.325 A  
HETATM    6  C   UNL     1     -11.207  14.912  69.139  1.00  0.00    -0.293 A  
HETATM    7 CL   UNL     1     -10.888  17.143  67.659  1.00  0.00    -0.296 Cl 
HETATM    8  C   UNL     1     -11.500  13.559  69.312  1.00  0.00    -0.345 A  
HETATM    9  C   UNL     1     -11.865  12.773  68.211  1.00  0.00    -0.312 A  
ENDROOT
BRANCH   9  10
HETATM   10  O   UNL     1     -12.183  11.438  68.328  1.00  0.00    -0.588 OA 
BRANCH  10  11
HETATM   11  C   UNL     1     -11.795  10.726  69.447  1.00  0.00    -0.298 A  
HETATM   12  C   UNL     1     -10.574  10.040  69.390  1.00  0.00    -0.233 A  
HETATM   13  C   UNL     1     -10.151   9.243  70.461  1.00  0.00    -0.313 A  
HETATM   14 CL   UNL     1      -9.543  10.147  68.006  1.00  0.00    -0.156 Cl 
HETATM   15  C   UNL     1     -10.951   9.138  71.595  1.00  0.00    -0.374 A  
HETATM   16  C   UNL     1     -12.166   9.816  71.669  1.00  0.00    -0.488 A  
HETATM   17 CL   UNL     1     -10.448   8.143  72.906  1.00  0.00    -0.398 Cl 
HETATM   18  C   UNL     1     -12.597  10.592  70.588  1.00  0.00    -0.454 A  
ENDBRANCH  10  11
ENDBRANCH   9  10
TORSDOF 2
ENDMDL
MODEL       24
REMARK 921   NORMALIZED FREE ENERGY PREDICTED BY IDOCK:   -5.53 KCAL/MOL
REMARK 922        TOTAL FREE ENERGY PREDICTED BY IDOCK:   -6.48 KCAL/MOL
REMARK 923 INTER-LIGAND FREE ENERGY PREDICTED BY IDOCK:   -6.15 KCAL/MOL
REMARK 924 INTRA-LIGAND FREE ENERGY PREDICTED BY IDOCK:   -0.33 KCAL/MOL
REMARK 927      BINDING AFFINITY PREDICTED BY RF-SCORE:    0.00 PKD
ROOT
HETATM    1  O   UNL     1      -9.240  11.526  66.826  1.00  0.00    -0.172 OA 
HETATM    2  C   UNL     1     -10.339  12.164  66.315  1.00  0.00    -0.221 A  
HETATM    3  H   UNL     1      -8.880  11.806  67.660  1.00  0.00     0.000 HD 
HETATM    4  C   UNL     1     -10.867  11.753  65.091  1.00  0.00    -0.351 A  
HETATM    5  C   UNL     1     -11.985  12.410  64.575  1.00  0.00    -0.402 A  
HETATM    6  C   UNL     1     -12.549  13.489  65.253  1.00  0.00    -0.517 A  
HETATM    7 CL   UNL     1     -12.676  11.880  63.093  1.00  0.00    -0.522 Cl 
HETATM    8  C   UNL     1     -12.005  13.910  66.466  1.00  0.00    -0.470 A  
HETATM    9  C   UNL     1     -10.926  13.217  67.031  1.00  0.00    -0.269 A  
ENDROOT
BRANCH   9  10
HETATM   10  O   UNL     1     -10.363  13.577  68.235  1.00  0.00    -0.239 OA 
BRANCH  10  11
HETATM   11  C   UNL     1     -11.159  14.057  69.258  1.00  0.00    -0.232 A  
HETATM   12  C   UNL     1     -11.792  13.118  70.084  1.00  0.00    -0.257 A  
HETATM   13  C   UNL     1     -12.667  13.531  71.096  1.00  0.00    -0.425 A  
HETATM   14 CL   UNL     1     -11.524  11.421  69.892  1.00  0.00    -0.363 Cl 
HETATM   15  C   UNL     1     -12.902  14.890  71.287  1.00  0.00    -0.348 A  
HETATM   16  C   UNL     1     -12.279  15.836  70.476  1.00  0.00    -0.399 A  
HETATM   17 CL   UNL     1     -13.993  15.404  72.514  1.00  0.00    -0.629 Cl 
HETATM   18  C   UNL     1     -11.424  15.419  69.450  1.00  0.00    -0.335 A  
ENDBRANCH  10  11
ENDBRANCH   9  10
TORSDOF 2
ENDMDL
MODEL       25
REMARK 921   NORMALIZED FREE ENERGY PREDICTED BY IDOCK:   -5.53 KCAL/MOL
REMARK 922        TOTAL FREE ENERGY PREDICTED BY IDOCK:   -6.47 KCAL/MOL
REMARK 923 INTER-LIGAND FREE ENERGY PREDICTED BY IDOCK:   -6.11 KCAL/MOL
REMARK 924 INTRA-LIGAND FREE ENERGY PREDICTED BY IDOCK:   -0.36 KCAL/MOL
REMARK 927      BINDING AFFINITY PREDICTED BY RF-SCORE:    0.00 PKD
ROOT
HETATM    1  O   UNL     1     -12.581  14.480  69.069  1.00  0.00    -0.568 OA 
HETATM    2  C   UNL     1     -11.783  15.209  68.229  1.00  0.00    -0.314 A  
HETATM    3  H   UNL     1     -13.034  13.712  68.739  1.00  0.00     0.000 HD 
HETATM    4  C   UNL     1     -11.119  16.336  68.714  1.00  0.00    -0.355 A  
HETATM    5  C   UNL     1     -10.309  17.075  67.851  1.00  0.00    -0.338 A  
HETATM    6  C   UNL     1     -10.192  16.718  66.509  1.00  0.00    -0.319 A  
HETATM    7 CL   UNL     1      -9.445  18.436  68.449  1.00  0.00    -0.333 Cl 
HETATM    8  C   UNL     1     -10.875  15.603  66.022  1.00  0.00    -0.276 A  
HETATM    9  C   UNL     1     -11.635  14.811  66.893  1.00  0.00    -0.327 A  
ENDROOT
BRANCH   9  10
HETATM   10  O   UNL     1     -12.313  13.689  66.471  1.00  0.00    -0.412 OA 
BRANCH  10  11
HETATM   11  C   UNL     1     -11.720  12.811  65.582  1.00  0.00    -0.399 A  
HETATM   12  C   UNL     1     -10.800  11.888  66.097  1.00  0.00    -0.292 A  
HETATM   13  C   UNL     1     -10.110  11.015  65.247  1.00  0.00    -0.332 A  
HETATM   14 CL   UNL     1     -10.479  11.784  67.793  1.00  0.00    -0.208 Cl 
HETATM   15  C   UNL     1     -10.347  11.064  63.876  1.00  0.00    -0.372 A  
HETATM   16  C   UNL     1     -11.260  11.974  63.348  1.00  0.00    -0.481 A  
HETATM   17 CL   UNL     1      -9.486  10.011  62.822  1.00  0.00    -0.294 Cl 
HETATM   18  C   UNL     1     -11.931  12.861  64.198  1.00  0.00    -0.491 A  
ENDBRANCH  10  11
ENDBRANCH   9  10
TORSDOF 2
ENDMDL
MODEL       26
REMARK 921   NORMALIZED FREE ENERGY PREDICTED BY IDOCK:   -5.53 KCAL/MOL
REMARK 922        TOTAL FREE ENERGY PREDICTED BY IDOCK:   -6.47 KCAL/MOL
REMARK 923 INTER-LIGAND FREE ENERGY PREDICTED BY IDOCK:   -6.22 KCAL/MOL
REMARK 924 INTRA-LIGAND FREE ENERGY PREDICTED BY IDOCK:   -0.26 KCAL/MOL
REMARK 927      BINDING AFFINITY PREDICTED BY RF-SCORE:    0.00 PKD
ROOT
HETATM    1  O   UNL     1      -8.330  16.237  69.020  1.00  0.00    -0.232 OA 
HETATM    2  C   UNL     1      -8.775  17.375  68.404  1.00  0.00    -0.271 A  
HETATM    3  H   UNL     1      -8.926  15.507  69.146  1.00  0.00     0.000 HD 
HETATM    4  C   UNL     1      -7.900  18.446  68.219  1.00  0.00    -0.314 A  
HETATM    5  C   UNL     1      -8.362  19.605  67.592  1.00  0.00    -0.308 A  
HETATM    6  C   UNL     1      -9.692  19.711  67.189  1.00  0.00    -0.471 A  
HETATM    7 CL   UNL     1      -7.281  20.912  67.313  1.00  0.00    -0.419 Cl 
HETATM    8  C   UNL     1     -10.569  18.646  67.395  1.00  0.00    -0.490 A  
HETATM    9  C   UNL     1     -10.102  17.451  67.959  1.00  0.00    -0.326 A  
ENDROOT
BRANCH   9  10
HETATM   10  O   UNL     1     -10.920  16.362  68.166  1.00  0.00    -0.337 OA 
BRANCH  10  11
HETATM   11  C   UNL     1     -11.124  15.443  67.154  1.00  0.00    -0.291 A  
HETATM   12  C   UNL     1     -11.712  14.218  67.497  1.00  0.00    -0.384 A  
HETATM   13  C   UNL     1     -11.886  13.214  66.536  1.00  0.00    -0.456 A  
HETATM   14 CL   UNL     1     -12.246  13.894  69.109  1.00  0.00    -0.367 Cl 
HETATM   15  C   UNL     1     -11.475  13.441  65.226  1.00  0.00    -0.298 A  
HETATM   16  C   UNL     1     -10.891  14.654  64.868  1.00  0.00    -0.436 A  
HETATM   17 CL   UNL     1     -11.664  12.204  64.045  1.00  0.00    -0.479 Cl 
HETATM   18  C   UNL     1     -10.697  15.647  65.835  1.00  0.00    -0.336 A  
ENDBRANCH  10  11
ENDBRANCH   9  10
TORSDOF 2
ENDMDL
MODEL       27
REMARK 921   NORMALIZED FREE ENERGY PREDICTED BY IDOCK:   -5.52 KCAL/MOL
REMARK 922        TOTAL FREE ENERGY PREDICTED BY IDOCK:   -6.47 KCAL/MOL
REMARK 923 INTER-LIGAND FREE ENERGY PREDICTED BY IDOCK:   -6.14 KCAL/MOL
REMARK 924 INTRA-LIGAND FREE ENERGY PREDICTED BY IDOCK:   -0.33 KCAL/MOL
REMARK 927      BINDING AFFINITY PREDICTED BY RF-SCORE:    0.00 PKD
ROOT
HETATM    1  O   UNL     1     -11.772  12.735  62.901  1.00  0.00    -0.762 OA 
HETATM    2  C   UNL     1     -10.996  11.892  63.651  1.00  0.00    -0.440 A  
HETATM    3  H   UNL     1     -12.445  13.255  63.323  1.00  0.00     0.000 HD 
HETATM    4  C   UNL     1     -10.008  11.128  63.030  1.00  0.00    -0.347 A  
HETATM    5  C   UNL     1      -9.223  10.269  63.801  1.00  0.00    -0.275 A  
HETATM    6  C   UNL     1      -9.447  10.143  65.170  1.00  0.00    -0.319 A  
HETATM    7 CL   UNL     1      -7.968   9.362  63.055  1.00  0.00    -0.134 Cl 
HETATM    8  C   UNL     1     -10.451  10.892  65.784  1.00  0.00    -0.275 A  
HETATM    9  C   UNL     1     -11.199  11.811  65.035  1.00  0.00    -0.257 A  
ENDROOT
BRANCH   9  10
HETATM   10  O   UNL     1     -12.188  12.590  65.594  1.00  0.00    -0.554 OA 
BRANCH  10  11
HETATM   11  C   UNL     1     -11.917  13.366  66.705  1.00  0.00    -0.399 A  
HETATM   12  C   UNL     1     -11.435  14.665  66.489  1.00  0.00    -0.351 A  
HETATM   13  C   UNL     1     -11.074  15.483  67.566  1.00  0.00    -0.305 A  
HETATM   14 CL   UNL     1     -11.267  15.310  64.894  1.00  0.00    -0.422 Cl 
HETATM   15  C   UNL     1     -11.203  15.000  68.866  1.00  0.00    -0.277 A  
HETATM   16  C   UNL     1     -11.683  13.713  69.098  1.00  0.00    -0.376 A  
HETATM   17 CL   UNL     1     -10.740  15.991  70.194  1.00  0.00    -0.324 Cl 
HETATM   18  C   UNL     1     -12.020  12.890  68.019  1.00  0.00    -0.323 A  
ENDBRANCH  10  11
ENDBRANCH   9  10
TORSDOF 2
ENDMDL
MODEL       28
REMARK 921   NORMALIZED FREE ENERGY PREDICTED BY IDOCK:   -5.52 KCAL/MOL
REMARK 922        TOTAL FREE ENERGY PREDICTED BY IDOCK:   -6.46 KCAL/MOL
REMARK 923 INTER-LIGAND FREE ENERGY PREDICTED BY IDOCK:   -5.96 KCAL/MOL
REMARK 924 INTRA-LIGAND FREE ENERGY PREDICTED BY IDOCK:   -0.50 KCAL/MOL
REMARK 927      BINDING AFFINITY PREDICTED BY RF-SCORE:    0.00 PKD
ROOT
HETATM    1  O   UNL     1     -13.333  10.059  70.650  1.00  0.00    -0.602 OA 
HETATM    2  C   UNL     1     -11.985   9.915  70.463  1.00  0.00    -0.239 A  
HETATM    3  H   UNL     1     -13.836  10.597  70.049  1.00  0.00     0.000 HD 
HETATM    4  C   UNL     1     -11.247   9.125  71.345  1.00  0.00    -0.419 A  
HETATM    5  C   UNL     1      -9.872   8.985  71.150  1.00  0.00    -0.300 A  
HETATM    6  C   UNL     1      -9.232   9.656  70.110  1.00  0.00    -0.287 A  
HETATM    7 CL   UNL     1      -8.961   7.973  72.199  1.00  0.00    -0.199 Cl 
HETATM    8  C   UNL     1      -9.970  10.462  69.242  1.00  0.00    -0.246 A  
HETATM    9  C   UNL     1     -11.361  10.556  69.384  1.00  0.00    -0.269 A  
ENDROOT
BRANCH   9  10
HETATM   10  O   UNL     1     -12.140  11.321  68.544  1.00  0.00    -0.573 OA 
BRANCH  10  11
HETATM   11  C   UNL     1     -11.942  12.686  68.464  1.00  0.00    -0.214 A  
HETATM   12  C   UNL     1     -11.709  13.236  67.196  1.00  0.00    -0.376 A  
HETATM   13  C   UNL     1     -11.432  14.601  67.048  1.00  0.00    -0.379 A  
HETATM   14 CL   UNL     1     -11.755  12.262  65.769  1.00  0.00    -0.454 Cl 
HETATM   15  C   UNL     1     -11.395  15.419  68.174  1.00  0.00    -0.348 A  
HETATM   16  C   UNL     1     -11.626  14.888  69.441  1.00  0.00    -0.337 A  
HETATM   17 CL   UNL     1     -11.032  17.092  68.002  1.00  0.00    -0.324 Cl 
HETATM   18  C   UNL     1     -11.879  13.520  69.589  1.00  0.00    -0.398 A  
ENDBRANCH  10  11
ENDBRANCH   9  10
TORSDOF 2
ENDMDL
MODEL       29
REMARK 921   NORMALIZED FREE ENERGY PREDICTED BY IDOCK:   -5.52 KCAL/MOL
REMARK 922        TOTAL FREE ENERGY PREDICTED BY IDOCK:   -6.46 KCAL/MOL
REMARK 923 INTER-LIGAND FREE ENERGY PREDICTED BY IDOCK:   -6.02 KCAL/MOL
REMARK 924 INTRA-LIGAND FREE ENERGY PREDICTED BY IDOCK:   -0.44 KCAL/MOL
REMARK 927      BINDING AFFINITY PREDICTED BY RF-SCORE:    0.00 PKD
ROOT
HETATM    1  O   UNL     1     -11.673  11.847  70.252  1.00  0.00    -0.469 OA 
HETATM    2  C   UNL     1     -11.946  13.183  70.374  1.00  0.00    -0.266 A  
HETATM    3  H   UNL     1     -11.062  11.550  69.588  1.00  0.00     0.000 HD 
HETATM    4  C   UNL     1     -12.843  13.617  71.350  1.00  0.00    -0.442 A  
HETATM    5  C   UNL     1     -13.118  14.980  71.467  1.00  0.00    -0.374 A  
HETATM    6  C   UNL     1     -12.536  15.898  70.594  1.00  0.00    -0.274 A  
HETATM    7 CL   UNL     1     -14.182  15.533  72.699  1.00  0.00    -0.534 Cl 
HETATM    8  C   UNL     1     -11.656  15.457  69.605  1.00  0.00    -0.344 A  
HETATM    9  C   UNL     1     -11.316  14.100  69.522  1.00  0.00    -0.259 A  
ENDROOT
BRANCH   9  10
HETATM   10  O   UNL     1     -10.438  13.614  68.579  1.00  0.00    -0.237 OA 
BRANCH  10  11
HETATM   11  C   UNL     1     -10.849  13.441  67.270  1.00  0.00    -0.269 A  
HETATM   12  C   UNL     1     -10.257  14.250  66.291  1.00  0.00    -0.301 A  
HETATM   13  C   UNL     1     -10.674  14.177  64.956  1.00  0.00    -0.429 A  
HETATM   14 CL   UNL     1      -8.995  15.364  66.683  1.00  0.00    -0.293 Cl 
HETATM   15  C   UNL     1     -11.682  13.286  64.600  1.00  0.00    -0.364 A  
HETATM   16  C   UNL     1     -12.279  12.474  65.561  1.00  0.00    -0.442 A  
HETATM   17 CL   UNL     1     -12.215  13.208  62.966  1.00  0.00    -0.316 Cl 
HETATM   18  C   UNL     1     -11.878  12.565  66.898  1.00  0.00    -0.404 A  
ENDBRANCH  10  11
ENDBRANCH   9  10
TORSDOF 2
ENDMDL
MODEL       30
REMARK 921   NORMALIZED FREE ENERGY PREDICTED BY IDOCK:   -5.51 KCAL/MOL
REMARK 922        TOTAL FREE ENERGY PREDICTED BY IDOCK:   -6.46 KCAL/MOL
REMARK 923 INTER-LIGAND FREE ENERGY PREDICTED BY IDOCK:   -6.13 KCAL/MOL
REMARK 924 INTRA-LIGAND FREE ENERGY PREDICTED BY IDOCK:   -0.33 KCAL/MOL
REMARK 927      BINDING AFFINITY PREDICTED BY RF-SCORE:    0.00 PKD
ROOT
HETATM    1  O   UNL     1     -13.317  10.065  70.703  1.00  0.00    -0.602 OA 
HETATM    2  C   UNL     1     -11.966   9.959  70.513  1.00  0.00    -0.239 A  
HETATM    3  H   UNL     1     -13.851  10.504  70.051  1.00  0.00     0.000 HD 
HETATM    4  C   UNL     1     -11.183   9.315  71.471  1.00  0.00    -0.457 A  
HETATM    5  C   UNL     1      -9.805   9.214  71.272  1.00  0.00    -0.293 A  
HETATM    6  C   UNL     1      -9.208   9.784  70.149  1.00  0.00    -0.253 A  
HETATM    7 CL   UNL     1      -8.837   8.377  72.419  1.00  0.00    -0.286 Cl 
HETATM    8  C   UNL     1      -9.992  10.446  69.204  1.00  0.00    -0.237 A  
HETATM    9  C   UNL     1     -11.384  10.494  69.355  1.00  0.00    -0.269 A  
ENDROOT
BRANCH   9  10
HETATM   10  O   UNL     1     -12.206  11.117  68.443  1.00  0.00    -0.610 OA 
BRANCH  10  11
HETATM   11  C   UNL     1     -11.772  12.246  67.773  1.00  0.00    -0.337 A  
HETATM   12  C   UNL     1     -11.778  13.460  68.472  1.00  0.00    -0.357 A  
HETATM   13  C   UNL     1     -11.417  14.654  67.836  1.00  0.00    -0.350 A  
HETATM   14 CL   UNL     1     -12.227  13.538  70.140  1.00  0.00    -0.408 Cl 
HETATM   15  C   UNL     1     -11.042  14.630  66.495  1.00  0.00    -0.329 A  
HETATM   16  C   UNL     1     -11.029  13.430  65.786  1.00  0.00    -0.288 A  
HETATM   17 CL   UNL     1     -10.619  16.096  65.700  1.00  0.00    -0.381 Cl 
HETATM   18  C   UNL     1     -11.413  12.243  66.419  1.00  0.00    -0.434 A  
ENDBRANCH  10  11
ENDBRANCH   9  10
TORSDOF 2
ENDMDL
MODEL       31
REMARK 921   NORMALIZED FREE ENERGY PREDICTED BY IDOCK:   -5.50 KCAL/MOL
REMARK 922        TOTAL FREE ENERGY PREDICTED BY IDOCK:   -6.44 KCAL/MOL
REMARK 923 INTER-LIGAND FREE ENERGY PREDICTED BY IDOCK:   -6.22 KCAL/MOL
REMARK 924 INTRA-LIGAND FREE ENERGY PREDICTED BY IDOCK:   -0.22 KCAL/MOL
REMARK 927      BINDING AFFINITY PREDICTED BY RF-SCORE:    0.00 PKD
ROOT
HETATM    1  O   UNL     1     -10.794  17.150  69.464  1.00  0.00    -0.380 OA 
HETATM    2  C   UNL     1     -11.410  16.122  70.125  1.00  0.00    -0.340 A  
HETATM    3  H   UNL     1     -10.653  17.088  68.526  1.00  0.00     0.000 HD 
HETATM    4  C   UNL     1     -11.617  16.214  71.502  1.00  0.00    -0.502 A  
HETATM    5  C   UNL     1     -12.244  15.161  72.169  1.00  0.00    -0.373 A  
HETATM    6  C   UNL     1     -12.626  14.012  71.480  1.00  0.00    -0.432 A  
HETATM    7 CL   UNL     1     -12.550  15.283  73.857  1.00  0.00    -0.706 Cl 
HETATM    8  C   UNL     1     -12.399  13.915  70.107  1.00  0.00    -0.400 A  
HETATM    9  C   UNL     1     -11.834  14.993  69.411  1.00  0.00    -0.329 A  
ENDROOT
BRANCH   9  10
HETATM   10  O   UNL     1     -11.606  14.959  68.054  1.00  0.00    -0.324 OA 
BRANCH  10  11
HETATM   11  C   UNL     1     -11.107  13.814  67.461  1.00  0.00    -0.278 A  
HETATM   12  C   UNL     1     -11.724  13.370  66.283  1.00  0.00    -0.366 A  
HETATM   13  C   UNL     1     -11.315  12.181  65.666  1.00  0.00    -0.395 A  
HETATM   14 CL   UNL     1     -13.005  14.265  65.543  1.00  0.00    -0.386 Cl 
HETATM   15  C   UNL     1     -10.281  11.438  66.228  1.00  0.00    -0.233 A  
HETATM   16  C   UNL     1      -9.657  11.867  67.398  1.00  0.00    -0.176 A  
HETATM   17 CL   UNL     1      -9.789   9.964  65.489  1.00  0.00    -0.370 Cl 
HETATM   18  C   UNL     1     -10.082  13.042  68.024  1.00  0.00    -0.235 A  
ENDBRANCH  10  11
ENDBRANCH   9  10
TORSDOF 2
ENDMDL
MODEL       32
REMARK 921   NORMALIZED FREE ENERGY PREDICTED BY IDOCK:   -5.50 KCAL/MOL
REMARK 922        TOTAL FREE ENERGY PREDICTED BY IDOCK:   -6.44 KCAL/MOL
REMARK 923 INTER-LIGAND FREE ENERGY PREDICTED BY IDOCK:   -6.00 KCAL/MOL
REMARK 924 INTRA-LIGAND FREE ENERGY PREDICTED BY IDOCK:   -0.45 KCAL/MOL
REMARK 927      BINDING AFFINITY PREDICTED BY RF-SCORE:    0.00 PKD
ROOT
HETATM    1  O   UNL     1     -11.137  19.131  67.948  1.00  0.00    -0.297 OA 
HETATM    2  C   UNL     1      -9.888  18.654  68.239  1.00  0.00    -0.371 A  
HETATM    3  H   UNL     1     -11.854  18.521  67.815  1.00  0.00     0.000 HD 
HETATM    4  C   UNL     1      -8.836  19.549  68.433  1.00  0.00    -0.389 A  
HETATM    5  C   UNL     1      -7.564  19.055  68.728  1.00  0.00    -0.340 A  
HETATM    6  C   UNL     1      -7.334  17.682  68.789  1.00  0.00    -0.261 A  
HETATM    7 CL   UNL     1      -6.271  20.149  69.020  1.00  0.00    -0.344 Cl 
HETATM    8  C   UNL     1      -8.384  16.789  68.573  1.00  0.00    -0.243 A  
HETATM    9  C   UNL     1      -9.680  17.272  68.346  1.00  0.00    -0.293 A  
ENDROOT
BRANCH   9  10
HETATM   10  O   UNL     1     -10.756  16.436  68.146  1.00  0.00    -0.309 OA 
BRANCH  10  11
HETATM   11  C   UNL     1     -11.312  15.751  69.211  1.00  0.00    -0.350 A  
HETATM   12  C   UNL     1     -11.768  14.446  68.978  1.00  0.00    -0.310 A  
HETATM   13  C   UNL     1     -12.403  13.719  69.991  1.00  0.00    -0.364 A  
HETATM   14 CL   UNL     1     -11.567  13.682  67.440  1.00  0.00    -0.365 Cl 
HETATM   15  C   UNL     1     -12.576  14.298  71.245  1.00  0.00    -0.364 A  
HETATM   16  C   UNL     1     -12.126  15.593  71.494  1.00  0.00    -0.488 A  
HETATM   17 CL   UNL     1     -13.377  13.419  72.489  1.00  0.00    -0.624 Cl 
HETATM   18  C   UNL     1     -11.513  16.326  70.472  1.00  0.00    -0.282 A  
ENDBRANCH  10  11
ENDBRANCH   9  10
TORSDOF 2
ENDMDL
MODEL       33
REMARK 921   NORMALIZED FREE ENERGY PREDICTED BY IDOCK:   -5.49 KCAL/MOL
REMARK 922        TOTAL FREE ENERGY PREDICTED BY IDOCK:   -6.43 KCAL/MOL
REMARK 923 INTER-LIGAND FREE ENERGY PREDICTED BY IDOCK:   -6.21 KCAL/MOL
REMARK 924 INTRA-LIGAND FREE ENERGY PREDICTED BY IDOCK:   -0.22 KCAL/MOL
REMARK 927      BINDING AFFINITY PREDICTED BY RF-SCORE:    0.00 PKD
ROOT
HETATM    1  O   UNL     1     -14.265   9.020  72.961  1.00  0.00    -1.107 OA 
HETATM    2  C   UNL     1     -13.355   9.589  72.112  1.00  0.00    -0.461 A  
HETATM    3  H   UNL     1     -14.257   8.080  73.098  1.00  0.00     0.000 HD 
HETATM    4  C   UNL     1     -13.367  10.969  71.911  1.00  0.00    -0.423 A  
HETATM    5  C   UNL     1     -12.437  11.541  71.041  1.00  0.00    -0.356 A  
HETATM    6  C   UNL     1     -11.530  10.741  70.348  1.00  0.00    -0.397 A  
HETATM    7 CL   UNL     1     -12.408  13.246  70.825  1.00  0.00    -0.446 Cl 
HETATM    8  C   UNL     1     -11.536   9.359  70.534  1.00  0.00    -0.317 A  
HETATM    9  C   UNL     1     -12.416   8.779  71.458  1.00  0.00    -0.326 A  
ENDROOT
BRANCH   9  10
HETATM   10  O   UNL     1     -12.450   7.423  71.696  1.00  0.00    -0.318 OA 
BRANCH  10  11
HETATM   11  C   UNL     1     -11.408   6.617  71.278  1.00  0.00    -0.299 A  
HETATM   12  C   UNL     1     -10.391   6.337  72.201  1.00  0.00    -0.191 A  
HETATM   13  C   UNL     1      -9.271   5.585  71.827  1.00  0.00    -0.158 A  
HETATM   14 CL   UNL     1     -10.475   6.903  73.833  1.00  0.00    -0.401 Cl 
HETATM   15  C   UNL     1      -9.172   5.106  70.523  1.00  0.00    -0.146 A  
HETATM   16  C   UNL     1     -10.175   5.373  69.594  1.00  0.00    -0.345 A  
HETATM   17 CL   UNL     1      -7.788   4.201  70.049  1.00  0.00    -0.052 Cl 
HETATM   18  C   UNL     1     -11.281   6.145  69.964  1.00  0.00    -0.471 A  
ENDBRANCH  10  11
ENDBRANCH   9  10
TORSDOF 2
ENDMDL
MODEL       34
REMARK 921   NORMALIZED FREE ENERGY PREDICTED BY IDOCK:   -5.49 KCAL/MOL
REMARK 922        TOTAL FREE ENERGY PREDICTED BY IDOCK:   -6.43 KCAL/MOL
REMARK 923 INTER-LIGAND FREE ENERGY PREDICTED BY IDOCK:   -6.24 KCAL/MOL
REMARK 924 INTRA-LIGAND FREE ENERGY PREDICTED BY IDOCK:   -0.19 KCAL/MOL
REMARK 927      BINDING AFFINITY PREDICTED BY RF-SCORE:    0.00 PKD
ROOT
HETATM    1  O   UNL     1     -10.250  15.297  70.008  1.00  0.00    -0.410 OA 
HETATM    2  C   UNL     1     -11.346  15.206  70.824  1.00  0.00    -0.304 A  
HETATM    3  H   UNL     1     -10.288  14.941  69.128  1.00  0.00     0.000 HD 
HETATM    4  C   UNL     1     -11.289  15.730  72.116  1.00  0.00    -0.311 A  
HETATM    5  C   UNL     1     -12.410  15.632  72.942  1.00  0.00    -0.447 A  
HETATM    6  C   UNL     1     -13.562  14.983  72.500  1.00  0.00    -0.569 A  
HETATM    7 CL   UNL     1     -12.371  16.318  74.517  1.00  0.00    -0.641 Cl 
HETATM    8  C   UNL     1     -13.607  14.442  71.215  1.00  0.00    -0.389 A  
HETATM    9  C   UNL     1     -12.515  14.595  70.350  1.00  0.00    -0.352 A  
ENDROOT
BRANCH   9  10
HETATM   10  O   UNL     1     -12.513  14.098  69.065  1.00  0.00    -0.211 OA 
BRANCH  10  11
HETATM   11  C   UNL     1     -12.010  12.837  68.808  1.00  0.00    -0.240 A  
HETATM   12  C   UNL     1     -11.633  12.544  67.490  1.00  0.00    -0.361 A  
HETATM   13  C   UNL     1     -11.179  11.265  67.144  1.00  0.00    -0.344 A  
HETATM   14 CL   UNL     1     -11.710  13.738  66.243  1.00  0.00    -0.374 Cl 
HETATM   15  C   UNL     1     -11.096  10.279  68.123  1.00  0.00    -0.264 A  
HETATM   16  C   UNL     1     -11.465  10.555  69.438  1.00  0.00    -0.329 A  
HETATM   17 CL   UNL     1     -10.562   8.699  67.700  1.00  0.00    -0.300 Cl 
HETATM   18  C   UNL     1     -11.940  11.827  69.776  1.00  0.00    -0.392 A  
ENDBRANCH  10  11
ENDBRANCH   9  10
TORSDOF 2
ENDMDL
MODEL       35
REMARK 921   NORMALIZED FREE ENERGY PREDICTED BY IDOCK:   -5.45 KCAL/MOL
REMARK 922        TOTAL FREE ENERGY PREDICTED BY IDOCK:   -6.39 KCAL/MOL
REMARK 923 INTER-LIGAND FREE ENERGY PREDICTED BY IDOCK:   -5.88 KCAL/MOL
REMARK 924 INTRA-LIGAND FREE ENERGY PREDICTED BY IDOCK:   -0.51 KCAL/MOL
REMARK 927      BINDING AFFINITY PREDICTED BY RF-SCORE:    0.00 PKD
ROOT
HETATM    1  O   UNL     1     -11.893  11.664  67.019  1.00  0.00    -0.591 OA 
HETATM    2  C   UNL     1     -11.879  12.594  68.024  1.00  0.00    -0.323 A  
HETATM    3  H   UNL     1     -12.086  10.756  67.221  1.00  0.00     0.000 HD 
HETATM    4  C   UNL     1     -11.595  13.927  67.726  1.00  0.00    -0.381 A  
HETATM    5  C   UNL     1     -11.581  14.868  68.757  1.00  0.00    -0.323 A  
HETATM    6  C   UNL     1     -11.808  14.479  70.075  1.00  0.00    -0.372 A  
HETATM    7 CL   UNL     1     -11.283  16.522  68.395  1.00  0.00    -0.337 Cl 
HETATM    8  C   UNL     1     -12.070  13.141  70.372  1.00  0.00    -0.392 A  
HETATM    9  C   UNL     1     -12.158  12.198  69.339  1.00  0.00    -0.190 A  
ENDROOT
BRANCH   9  10
HETATM   10  O   UNL     1     -12.433  10.869  69.574  1.00  0.00    -0.305 OA 
BRANCH  10  11
HETATM   11  C   UNL     1     -11.531  10.083  70.266  1.00  0.00    -0.300 A  
HETATM   12  C   UNL     1     -11.994   9.414  71.407  1.00  0.00    -0.371 A  
HETATM   13  C   UNL     1     -11.120   8.656  72.196  1.00  0.00    -0.434 A  
HETATM   14 CL   UNL     1     -13.653   9.492  71.888  1.00  0.00    -0.465 Cl 
HETATM   15  C   UNL     1      -9.778   8.563  71.836  1.00  0.00    -0.287 A  
HETATM   16  C   UNL     1      -9.303   9.221  70.704  1.00  0.00    -0.329 A  
HETATM   17 CL   UNL     1      -8.693   7.653  72.813  1.00  0.00    -0.171 Cl 
HETATM   18  C   UNL     1     -10.173   9.996  69.931  1.00  0.00    -0.304 A  
ENDBRANCH  10  11
ENDBRANCH   9  10
TORSDOF 2
ENDMDL
MODEL       36
REMARK 921   NORMALIZED FREE ENERGY PREDICTED BY IDOCK:   -5.40 KCAL/MOL
REMARK 922        TOTAL FREE ENERGY PREDICTED BY IDOCK:   -6.33 KCAL/MOL
REMARK 923 INTER-LIGAND FREE ENERGY PREDICTED BY IDOCK:   -6.07 KCAL/MOL
REMARK 924 INTRA-LIGAND FREE ENERGY PREDICTED BY IDOCK:   -0.26 KCAL/MOL
REMARK 927      BINDING AFFINITY PREDICTED BY RF-SCORE:    0.00 PKD
ROOT
HETATM    1  O   UNL     1      -9.898  10.085  68.175  1.00  0.00    -0.139 OA 
HETATM    2  C   UNL     1     -10.638  10.009  69.325  1.00  0.00    -0.227 A  
HETATM    3  H   UNL     1     -10.203  10.625  67.455  1.00  0.00     0.000 HD 
HETATM    4  C   UNL     1     -10.191   9.216  70.382  1.00  0.00    -0.268 A  
HETATM    5  C   UNL     1     -10.952   9.141  71.549  1.00  0.00    -0.364 A  
HETATM    6  C   UNL     1     -12.166   9.818  71.648  1.00  0.00    -0.488 A  
HETATM    7 CL   UNL     1     -10.385   8.209  72.878  1.00  0.00    -0.382 Cl 
HETATM    8  C   UNL     1     -12.621  10.593  70.581  1.00  0.00    -0.454 A  
HETATM    9  C   UNL     1     -11.833  10.734  69.430  1.00  0.00    -0.298 A  
ENDROOT
BRANCH   9  10
HETATM   10  O   UNL     1     -12.225  11.502  68.356  1.00  0.00    -0.540 OA 
BRANCH  10  11
HETATM   11  C   UNL     1     -11.923  12.850  68.319  1.00  0.00    -0.254 A  
HETATM   12  C   UNL     1     -11.789  13.452  67.060  1.00  0.00    -0.394 A  
HETATM   13  C   UNL     1     -11.418  14.797  66.946  1.00  0.00    -0.354 A  
HETATM   14 CL   UNL     1     -12.075  12.568  65.603  1.00  0.00    -0.491 Cl 
HETATM   15  C   UNL     1     -11.186  15.544  68.098  1.00  0.00    -0.343 A  
HETATM   16  C   UNL     1     -11.317  14.962  69.357  1.00  0.00    -0.312 A  
HETATM   17 CL   UNL     1     -10.707  17.191  67.966  1.00  0.00    -0.383 Cl 
HETATM   18  C   UNL     1     -11.665  13.611  69.467  1.00  0.00    -0.380 A  
ENDBRANCH  10  11
ENDBRANCH   9  10
TORSDOF 2
ENDMDL
MODEL       37
REMARK 921   NORMALIZED FREE ENERGY PREDICTED BY IDOCK:   -5.39 KCAL/MOL
REMARK 922        TOTAL FREE ENERGY PREDICTED BY IDOCK:   -6.32 KCAL/MOL
REMARK 923 INTER-LIGAND FREE ENERGY PREDICTED BY IDOCK:   -6.00 KCAL/MOL
REMARK 924 INTRA-LIGAND FREE ENERGY PREDICTED BY IDOCK:   -0.33 KCAL/MOL
REMARK 927      BINDING AFFINITY PREDICTED BY RF-SCORE:    0.00 PKD
ROOT
HETATM    1  O   UNL     1     -12.257  14.312  67.924  1.00  0.00    -0.573 OA 
HETATM    2  C   UNL     1     -11.877  13.329  67.051  1.00  0.00    -0.390 A  
HETATM    3  H   UNL     1     -11.938  14.295  68.819  1.00  0.00     0.000 HD 
HETATM    4  C   UNL     1     -12.346  13.354  65.738  1.00  0.00    -0.513 A  
HETATM    5  C   UNL     1     -11.956  12.346  64.854  1.00  0.00    -0.398 A  
HETATM    6  C   UNL     1     -11.139  11.302  65.285  1.00  0.00    -0.146 A  
HETATM    7 CL   UNL     1     -12.485  12.394  63.219  1.00  0.00    -0.556 Cl 
HETATM    8  C   UNL     1     -10.690  11.269  66.606  1.00  0.00    -0.321 A  
HETATM    9  C   UNL     1     -11.016  12.311  67.484  1.00  0.00    -0.254 A  
ENDROOT
BRANCH   9  10
HETATM   10  O   UNL     1     -10.583  12.339  68.792  1.00  0.00    -0.230 OA 
BRANCH  10  11
HETATM   11  C   UNL     1     -11.206  11.558  69.747  1.00  0.00    -0.161 A  
HETATM   12  C   UNL     1     -10.652  10.301  70.022  1.00  0.00    -0.269 A  
HETATM   13  C   UNL     1     -11.269   9.429  70.927  1.00  0.00    -0.393 A  
HETATM   14 CL   UNL     1      -9.191   9.774  69.263  1.00  0.00    -0.181 Cl 
HETATM   15  C   UNL     1     -12.443   9.821  71.564  1.00  0.00    -0.403 A  
HETATM   16  C   UNL     1     -13.006  11.069  71.304  1.00  0.00    -0.472 A  
HETATM   17 CL   UNL     1     -13.220   8.747  72.661  1.00  0.00    -0.400 Cl 
HETATM   18  C   UNL     1     -12.400  11.928  70.381  1.00  0.00    -0.334 A  
ENDBRANCH  10  11
ENDBRANCH   9  10
TORSDOF 2
ENDMDL
MODEL       38
REMARK 921   NORMALIZED FREE ENERGY PREDICTED BY IDOCK:   -5.34 KCAL/MOL
REMARK 922        TOTAL FREE ENERGY PREDICTED BY IDOCK:   -6.27 KCAL/MOL
REMARK 923 INTER-LIGAND FREE ENERGY PREDICTED BY IDOCK:   -5.84 KCAL/MOL
REMARK 924 INTRA-LIGAND FREE ENERGY PREDICTED BY IDOCK:   -0.43 KCAL/MOL
REMARK 927      BINDING AFFINITY PREDICTED BY RF-SCORE:    0.00 PKD
ROOT
HETATM    1  O   UNL     1     -12.379  15.415  69.134  1.00  0.00    -0.588 OA 
HETATM    2  C   UNL     1     -11.364  15.879  68.342  1.00  0.00    -0.361 A  
HETATM    3  H   UNL     1     -12.912  14.687  68.837  1.00  0.00     0.000 HD 
HETATM    4  C   UNL     1     -10.581  16.948  68.779  1.00  0.00    -0.355 A  
HETATM    5  C   UNL     1      -9.549  17.417  67.965  1.00  0.00    -0.276 A  
HETATM    6  C   UNL     1      -9.325  16.853  66.710  1.00  0.00    -0.267 A  
HETATM    7 CL   UNL     1      -8.545  18.699  68.515  1.00  0.00    -0.364 Cl 
HETATM    8  C   UNL     1     -10.124  15.799  66.267  1.00  0.00    -0.320 A  
HETATM    9  C   UNL     1     -11.117  15.272  67.103  1.00  0.00    -0.323 A  
ENDROOT
BRANCH   9  10
HETATM   10  O   UNL     1     -11.920  14.219  66.724  1.00  0.00    -0.414 OA 
BRANCH  10  11
HETATM   11  C   UNL     1     -11.482  12.918  66.883  1.00  0.00    -0.341 A  
HETATM   12  C   UNL     1     -10.990  12.255  65.750  1.00  0.00    -0.301 A  
HETATM   13  C   UNL     1     -10.594  10.914  65.822  1.00  0.00    -0.230 A  
HETATM   14 CL   UNL     1     -10.851  13.057  64.225  1.00  0.00    -0.400 Cl 
HETATM   15  C   UNL     1     -10.684  10.236  67.035  1.00  0.00    -0.216 A  
HETATM   16  C   UNL     1     -11.169  10.882  68.170  1.00  0.00    -0.363 A  
HETATM   17 CL   UNL     1     -10.220   8.582  67.125  1.00  0.00    -0.326 Cl 
HETATM   18  C   UNL     1     -11.586  12.214  68.090  1.00  0.00    -0.397 A  
ENDBRANCH  10  11
ENDBRANCH   9  10
TORSDOF 2
ENDMDL
MODEL       39
REMARK 921   NORMALIZED FREE ENERGY PREDICTED BY IDOCK:   -5.34 KCAL/MOL
REMARK 922        TOTAL FREE ENERGY PREDICTED BY IDOCK:   -6.27 KCAL/MOL
REMARK 923 INTER-LIGAND FREE ENERGY PREDICTED BY IDOCK:   -5.94 KCAL/MOL
REMARK 924 INTRA-LIGAND FREE ENERGY PREDICTED BY IDOCK:   -0.33 KCAL/MOL
REMARK 927      BINDING AFFINITY PREDICTED BY RF-SCORE:    0.00 PKD
ROOT
HETATM    1  O   UNL     1      -9.436  10.937  67.044  1.00  0.00    -0.163 OA 
HETATM    2  C   UNL     1     -10.420  11.815  66.677  1.00  0.00    -0.224 A  
HETATM    3  H   UNL     1      -9.198  10.853  67.961  1.00  0.00     0.000 HD 
HETATM    4  C   UNL     1     -10.768  11.937  65.332  1.00  0.00    -0.330 A  
HETATM    5  C   UNL     1     -11.771  12.837  64.966  1.00  0.00    -0.354 A  
HETATM    6  C   UNL     1     -12.391  13.636  65.924  1.00  0.00    -0.516 A  
HETATM    7 CL   UNL     1     -12.245  12.959  63.318  1.00  0.00    -0.590 Cl 
HETATM    8  C   UNL     1     -12.024  13.526  67.266  1.00  0.00    -0.408 A  
HETATM    9  C   UNL     1     -11.070  12.577  67.657  1.00  0.00    -0.258 A  
ENDROOT
BRANCH   9  10
HETATM   10  O   UNL     1     -10.686  12.413  68.970  1.00  0.00    -0.192 OA 
BRANCH  10  11
HETATM   11  C   UNL     1     -11.368  11.533  69.789  1.00  0.00    -0.226 A  
HETATM   12  C   UNL     1     -12.329  12.066  70.659  1.00  0.00    -0.304 A  
HETATM   13  C   UNL     1     -13.008  11.243  71.565  1.00  0.00    -0.520 A  
HETATM   14 CL   UNL     1     -12.717  13.750  70.651  1.00  0.00    -0.363 Cl 
HETATM   15  C   UNL     1     -12.728   9.879  71.595  1.00  0.00    -0.429 A  
HETATM   16  C   UNL     1     -11.777   9.333  70.736  1.00  0.00    -0.328 A  
HETATM   17 CL   UNL     1     -13.542   8.865  72.722  1.00  0.00    -0.385 Cl 
HETATM   18  C   UNL     1     -11.083  10.162  69.848  1.00  0.00    -0.346 A  
ENDBRANCH  10  11
ENDBRANCH   9  10
TORSDOF 2
ENDMDL
MODEL       40
REMARK 921   NORMALIZED FREE ENERGY PREDICTED BY IDOCK:   -5.30 KCAL/MOL
REMARK 922        TOTAL FREE ENERGY PREDICTED BY IDOCK:   -6.22 KCAL/MOL
REMARK 923 INTER-LIGAND FREE ENERGY PREDICTED BY IDOCK:   -5.71 KCAL/MOL
REMARK 924 INTRA-LIGAND FREE ENERGY PREDICTED BY IDOCK:   -0.51 KCAL/MOL
REMARK 927      BINDING AFFINITY PREDICTED BY RF-SCORE:    0.00 PKD
ROOT
HETATM    1  O   UNL     1     -11.237  14.884  65.608  1.00  0.00    -0.341 OA 
HETATM    2  C   UNL     1     -10.373  15.488  66.482  1.00  0.00    -0.288 A  
HETATM    3  H   UNL     1     -12.071  14.555  65.924  1.00  0.00     0.000 HD 
HETATM    4  C   UNL     1      -9.150  15.971  66.018  1.00  0.00    -0.361 A  
HETATM    5  C   UNL     1      -8.273  16.584  66.915  1.00  0.00    -0.215 A  
HETATM    6  C   UNL     1      -8.594  16.677  68.267  1.00  0.00    -0.212 A  
HETATM    7 CL   UNL     1      -6.785  17.230  66.346  1.00  0.00    -0.278 Cl 
HETATM    8  C   UNL     1      -9.809  16.173  68.731  1.00  0.00    -0.230 A  
HETATM    9  C   UNL     1     -10.729  15.620  67.831  1.00  0.00    -0.294 A  
ENDROOT
BRANCH   9  10
HETATM   10  O   UNL     1     -11.951  15.126  68.232  1.00  0.00    -0.298 OA 
BRANCH  10  11
HETATM   11  C   UNL     1     -12.023  13.939  68.938  1.00  0.00    -0.358 A  
HETATM   12  C   UNL     1     -12.484  13.997  70.260  1.00  0.00    -0.338 A  
HETATM   13  C   UNL     1     -12.518  12.845  71.056  1.00  0.00    -0.374 A  
HETATM   14 CL   UNL     1     -13.028  15.480  70.962  1.00  0.00    -0.534 Cl 
HETATM   15  C   UNL     1     -12.096  11.631  70.523  1.00  0.00    -0.366 A  
HETATM   16  C   UNL     1     -11.637  11.556  69.210  1.00  0.00    -0.388 A  
HETATM   17 CL   UNL     1     -12.113  10.216  71.503  1.00  0.00    -0.463 Cl 
HETATM   18  C   UNL     1     -11.581  12.713  68.425  1.00  0.00    -0.370 A  
ENDBRANCH  10  11
ENDBRANCH   9  10
TORSDOF 2
ENDMDL
MODEL       41
REMARK 921   NORMALIZED FREE ENERGY PREDICTED BY IDOCK:   -5.30 KCAL/MOL
REMARK 922        TOTAL FREE ENERGY PREDICTED BY IDOCK:   -6.22 KCAL/MOL
REMARK 923 INTER-LIGAND FREE ENERGY PREDICTED BY IDOCK:   -5.70 KCAL/MOL
REMARK 924 INTRA-LIGAND FREE ENERGY PREDICTED BY IDOCK:   -0.52 KCAL/MOL
REMARK 927      BINDING AFFINITY PREDICTED BY RF-SCORE:    0.00 PKD
ROOT
HETATM    1  O   UNL     1     -12.099  10.734  68.267  1.00  0.00    -0.805 OA 
HETATM    2  C   UNL     1     -11.214  10.476  67.255  1.00  0.00    -0.125 A  
HETATM    3  H   UNL     1     -12.711  11.456  68.184  1.00  0.00     0.000 HD 
HETATM    4  C   UNL     1     -10.316   9.416  67.377  1.00  0.00    -0.325 A  
HETATM    5  C   UNL     1      -9.415   9.161  66.342  1.00  0.00    -0.227 A  
HETATM    6  C   UNL     1      -9.383   9.978  65.214  1.00  0.00    -0.294 A  
HETATM    7 CL   UNL     1      -8.338   7.826  66.458  1.00  0.00    -0.123 Cl 
HETATM    8  C   UNL     1     -10.268  11.051  65.104  1.00  0.00    -0.352 A  
HETATM    9  C   UNL     1     -11.225  11.276  66.103  1.00  0.00    -0.065 A  
ENDROOT
BRANCH   9  10
HETATM   10  O   UNL     1     -12.135  12.307  66.037  1.00  0.00    -0.623 OA 
BRANCH  10  11
HETATM   11  C   UNL     1     -11.707  13.619  66.116  1.00  0.00    -0.364 A  
HETATM   12  C   UNL     1     -11.645  14.356  64.925  1.00  0.00    -0.395 A  
HETATM   13  C   UNL     1     -11.155  15.668  64.920  1.00  0.00    -0.414 A  
HETATM   14 CL   UNL     1     -12.167  13.684  63.421  1.00  0.00    -0.406 Cl 
HETATM   15  C   UNL     1     -10.732  16.245  66.114  1.00  0.00    -0.197 A  
HETATM   16  C   UNL     1     -10.789  15.528  67.307  1.00  0.00    -0.313 A  
HETATM   17 CL   UNL     1     -10.108  17.849  66.112  1.00  0.00    -0.344 Cl 
HETATM   18  C   UNL     1     -11.257  14.209  67.305  1.00  0.00    -0.330 A  
ENDBRANCH  10  11
ENDBRANCH   9  10
TORSDOF 2
ENDMDL
MODEL       42
REMARK 921   NORMALIZED FREE ENERGY PREDICTED BY IDOCK:   -5.30 KCAL/MOL
REMARK 922        TOTAL FREE ENERGY PREDICTED BY IDOCK:   -6.22 KCAL/MOL
REMARK 923 INTER-LIGAND FREE ENERGY PREDICTED BY IDOCK:   -5.76 KCAL/MOL
REMARK 924 INTRA-LIGAND FREE ENERGY PREDICTED BY IDOCK:   -0.46 KCAL/MOL
REMARK 927      BINDING AFFINITY PREDICTED BY RF-SCORE:    0.00 PKD
ROOT
HETATM    1  O   UNL     1     -11.138  13.703  67.840  1.00  0.00    -0.248 OA 
HETATM    2  C   UNL     1     -11.424  14.340  69.017  1.00  0.00    -0.284 A  
HETATM    3  H   UNL     1     -10.673  14.168  67.154  1.00  0.00     0.000 HD 
HETATM    4  C   UNL     1     -12.107  13.657  70.024  1.00  0.00    -0.417 A  
HETATM    5  C   UNL     1     -12.397  14.315  71.220  1.00  0.00    -0.363 A  
HETATM    6  C   UNL     1     -12.046  15.651  71.397  1.00  0.00    -0.476 A  
HETATM    7 CL   UNL     1     -13.192  13.467  72.487  1.00  0.00    -0.579 Cl 
HETATM    8  C   UNL     1     -11.383  16.338  70.379  1.00  0.00    -0.313 A  
HETATM    9  C   UNL     1     -11.022  15.671  69.201  1.00  0.00    -0.259 A  
ENDROOT
BRANCH   9  10
HETATM   10  O   UNL     1     -10.350  16.294  68.174  1.00  0.00    -0.258 OA 
BRANCH  10  11
HETATM   11  C   UNL     1      -9.292  17.141  68.448  1.00  0.00    -0.273 A  
HETATM   12  C   UNL     1      -9.429  18.489  68.091  1.00  0.00    -0.317 A  
HETATM   13  C   UNL     1      -8.372  19.389  68.277  1.00  0.00    -0.379 A  
HETATM   14 CL   UNL     1     -10.898  19.098  67.413  1.00  0.00    -0.569 Cl 
HETATM   15  C   UNL     1      -7.176  18.937  68.827  1.00  0.00    -0.318 A  
HETATM   16  C   UNL     1      -7.024  17.601  69.190  1.00  0.00    -0.217 A  
HETATM   17 CL   UNL     1      -5.865  20.032  69.037  1.00  0.00    -0.289 Cl 
HETATM   18  C   UNL     1      -8.074  16.699  68.982  1.00  0.00    -0.199 A  
ENDBRANCH  10  11
ENDBRANCH   9  10
TORSDOF 2
ENDMDL
MODEL       43
REMARK 921   NORMALIZED FREE ENERGY PREDICTED BY IDOCK:   -5.29 KCAL/MOL
REMARK 922        TOTAL FREE ENERGY PREDICTED BY IDOCK:   -6.21 KCAL/MOL
REMARK 923 INTER-LIGAND FREE ENERGY PREDICTED BY IDOCK:   -5.79 KCAL/MOL
REMARK 924 INTRA-LIGAND FREE ENERGY PREDICTED BY IDOCK:   -0.42 KCAL/MOL
REMARK 927      BINDING AFFINITY PREDICTED BY RF-SCORE:    0.00 PKD
ROOT
HETATM    1  O   UNL     1     -11.954  13.215  70.636  1.00  0.00    -0.502 OA 
HETATM    2  C   UNL     1     -12.040  11.848  70.622  1.00  0.00    -0.294 A  
HETATM    3  H   UNL     1     -11.407  13.658  69.997  1.00  0.00     0.000 HD 
HETATM    4  C   UNL     1     -12.843  11.198  71.559  1.00  0.00    -0.542 A  
HETATM    5  C   UNL     1     -12.924   9.805  71.539  1.00  0.00    -0.407 A  
HETATM    6  C   UNL     1     -12.183   9.065  70.621  1.00  0.00    -0.017 A  
HETATM    7 CL   UNL     1     -13.950   8.995  72.656  1.00  0.00    -0.466 Cl 
HETATM    8  C   UNL     1     -11.364   9.718  69.699  1.00  0.00    -0.165 A  
HETATM    9  C   UNL     1     -11.328  11.118  69.661  1.00  0.00    -0.294 A  
ENDROOT
BRANCH   9  10
HETATM   10  O   UNL     1     -10.553  11.813  68.759  1.00  0.00    -0.208 OA 
BRANCH  10  11
HETATM   11  C   UNL     1     -11.040  12.096  67.496  1.00  0.00    -0.275 A  
HETATM   12  C   UNL     1     -10.569  11.320  66.429  1.00  0.00    -0.266 A  
HETATM   13  C   UNL     1     -10.967  11.595  65.115  1.00  0.00    -0.326 A  
HETATM   14 CL   UNL     1      -9.485   9.998  66.684  1.00  0.00    -0.202 Cl 
HETATM   15  C   UNL     1     -11.845  12.647  64.870  1.00  0.00    -0.387 A  
HETATM   16  C   UNL     1     -12.325  13.426  65.921  1.00  0.00    -0.493 A  
HETATM   17 CL   UNL     1     -12.320  13.005  63.256  1.00  0.00    -0.525 Cl 
HETATM   18  C   UNL     1     -11.907  13.164  67.230  1.00  0.00    -0.420 A  
ENDBRANCH  10  11
ENDBRANCH   9  10
TORSDOF 2
ENDMDL
MODEL       44
REMARK 921   NORMALIZED FREE ENERGY PREDICTED BY IDOCK:   -5.29 KCAL/MOL
REMARK 922        TOTAL FREE ENERGY PREDICTED BY IDOCK:   -6.21 KCAL/MOL
REMARK 923 INTER-LIGAND FREE ENERGY PREDICTED BY IDOCK:   -5.70 KCAL/MOL
REMARK 924 INTRA-LIGAND FREE ENERGY PREDICTED BY IDOCK:   -0.51 KCAL/MOL
REMARK 927      BINDING AFFINITY PREDICTED BY RF-SCORE:    0.00 PKD
ROOT
HETATM    1  O   UNL     1     -12.548  12.346  65.480  1.00  0.00    -0.616 OA 
HETATM    2  C   UNL     1     -11.850  13.178  66.313  1.00  0.00    -0.401 A  
HETATM    3  H   UNL     1     -12.927  11.545  65.825  1.00  0.00     0.000 HD 
HETATM    4  C   UNL     1     -11.294  14.353  65.806  1.00  0.00    -0.330 A  
HETATM    5  C   UNL     1     -10.582  15.195  66.662  1.00  0.00    -0.304 A  
HETATM    6  C   UNL     1     -10.392  14.852  67.999  1.00  0.00    -0.244 A  
HETATM    7 CL   UNL     1      -9.935  16.671  66.061  1.00  0.00    -0.346 Cl 
HETATM    8  C   UNL     1     -10.932  13.665  68.497  1.00  0.00    -0.289 A  
HETATM    9  C   UNL     1     -11.709  12.845  67.667  1.00  0.00    -0.370 A  
ENDROOT
BRANCH   9  10
HETATM   10  O   UNL     1     -12.281  11.674  68.112  1.00  0.00    -0.537 OA 
BRANCH  10  11
HETATM   11  C   UNL     1     -11.496  10.688  68.679  1.00  0.00    -0.263 A  
HETATM   12  C   UNL     1     -11.544  10.539  70.072  1.00  0.00    -0.313 A  
HETATM   13  C   UNL     1     -10.725   9.607  70.720  1.00  0.00    -0.401 A  
HETATM   14 CL   UNL     1     -12.610  11.491  71.044  1.00  0.00    -0.484 Cl 
HETATM   15  C   UNL     1      -9.859   8.817  69.970  1.00  0.00    -0.178 A  
HETATM   16  C   UNL     1      -9.800   8.951  68.584  1.00  0.00    -0.179 A  
HETATM   17 CL   UNL     1      -8.832   7.685  70.762  1.00  0.00    -0.143 Cl 
HETATM   18  C   UNL     1     -10.603   9.899  67.942  1.00  0.00    -0.303 A  
ENDBRANCH  10  11
ENDBRANCH   9  10
TORSDOF 2
ENDMDL
MODEL       45
REMARK 921   NORMALIZED FREE ENERGY PREDICTED BY IDOCK:   -5.27 KCAL/MOL
REMARK 922        TOTAL FREE ENERGY PREDICTED BY IDOCK:   -6.19 KCAL/MOL
REMARK 923 INTER-LIGAND FREE ENERGY PREDICTED BY IDOCK:   -6.04 KCAL/MOL
REMARK 924 INTRA-LIGAND FREE ENERGY PREDICTED BY IDOCK:   -0.15 KCAL/MOL
REMARK 927      BINDING AFFINITY PREDICTED BY RF-SCORE:    0.00 PKD
ROOT
HETATM    1  O   UNL     1     -11.694  12.000  66.597  1.00  0.00    -0.522 OA 
HETATM    2  C   UNL     1     -11.841  12.297  67.925  1.00  0.00    -0.293 A  
HETATM    3  H   UNL     1     -11.689  12.701  65.956  1.00  0.00     0.000 HD 
HETATM    4  C   UNL     1     -11.848  11.266  68.865  1.00  0.00    -0.413 A  
HETATM    5  C   UNL     1     -12.001  11.577  70.217  1.00  0.00    -0.368 A  
HETATM    6  C   UNL     1     -12.185  12.897  70.625  1.00  0.00    -0.386 A  
HETATM    7 CL   UNL     1     -11.959  10.321  71.390  1.00  0.00    -0.446 Cl 
HETATM    8  C   UNL     1     -12.199  13.922  69.679  1.00  0.00    -0.374 A  
HETATM    9  C   UNL     1     -11.976  13.633  68.326  1.00  0.00    -0.350 A  
ENDROOT
BRANCH   9  10
HETATM   10  O   UNL     1     -11.960  14.608  67.354  1.00  0.00    -0.384 OA 
BRANCH  10  11
HETATM   11  C   UNL     1     -10.963  15.566  67.346  1.00  0.00    -0.306 A  
HETATM   12  C   UNL     1     -10.060  15.555  66.274  1.00  0.00    -0.295 A  
HETATM   13  C   UNL     1      -8.985  16.451  66.236  1.00  0.00    -0.368 A  
HETATM   14 CL   UNL     1     -10.233  14.445  64.961  1.00  0.00    -0.439 Cl 
HETATM   15  C   UNL     1      -8.817  17.365  67.273  1.00  0.00    -0.232 A  
HETATM   16  C   UNL     1      -9.707  17.390  68.344  1.00  0.00    -0.304 A  
HETATM   17 CL   UNL     1      -7.485  18.454  67.244  1.00  0.00    -0.219 Cl 
HETATM   18  C   UNL     1     -10.767  16.478  68.392  1.00  0.00    -0.339 A  
ENDBRANCH  10  11
ENDBRANCH   9  10
TORSDOF 2
ENDMDL
MODEL       46
REMARK 921   NORMALIZED FREE ENERGY PREDICTED BY IDOCK:   -5.25 KCAL/MOL
REMARK 922        TOTAL FREE ENERGY PREDICTED BY IDOCK:   -6.17 KCAL/MOL
REMARK 923 INTER-LIGAND FREE ENERGY PREDICTED BY IDOCK:   -5.66 KCAL/MOL
REMARK 924 INTRA-LIGAND FREE ENERGY PREDICTED BY IDOCK:   -0.50 KCAL/MOL
REMARK 927      BINDING AFFINITY PREDICTED BY RF-SCORE:    0.00 PKD
ROOT
HETATM    1  O   UNL     1     -13.330  15.682  70.791  1.00  0.00    -0.727 OA 
HETATM    2  C   UNL     1     -12.843  14.448  70.456  1.00  0.00    -0.294 A  
HETATM    3  H   UNL     1     -13.149  16.428  70.230  1.00  0.00     0.000 HD 
HETATM    4  C   UNL     1     -13.109  13.354  71.279  1.00  0.00    -0.317 A  
HETATM    5  C   UNL     1     -12.606  12.099  70.932  1.00  0.00    -0.247 A  
HETATM    6  C   UNL     1     -11.813  11.943  69.797  1.00  0.00    -0.411 A  
HETATM    7 CL   UNL     1     -12.972  10.734  71.911  1.00  0.00    -0.568 Cl 
HETATM    8  C   UNL     1     -11.530  13.043  68.988  1.00  0.00    -0.353 A  
HETATM    9  C   UNL     1     -12.086  14.295  69.285  1.00  0.00    -0.313 A  
ENDROOT
BRANCH   9  10
HETATM   10  O   UNL     1     -11.857  15.409  68.510  1.00  0.00    -0.345 OA 
BRANCH  10  11
HETATM   11  C   UNL     1     -10.564  15.781  68.192  1.00  0.00    -0.275 A  
HETATM   12  C   UNL     1     -10.144  15.604  66.866  1.00  0.00    -0.263 A  
HETATM   13  C   UNL     1      -8.828  15.894  66.488  1.00  0.00    -0.340 A  
HETATM   14 CL   UNL     1     -11.226  15.026  65.647  1.00  0.00    -0.341 Cl 
HETATM   15  C   UNL     1      -7.930  16.368  67.440  1.00  0.00    -0.155 A  
HETATM   16  C   UNL     1      -8.331  16.551  68.761  1.00  0.00    -0.248 A  
HETATM   17 CL   UNL     1      -6.304  16.704  66.988  1.00  0.00    -0.212 Cl 
HETATM   18  C   UNL     1      -9.641  16.239  69.141  1.00  0.00    -0.251 A  
ENDBRANCH  10  11
ENDBRANCH   9  10
TORSDOF 2
ENDMDL
MODEL       47
REMARK 921   NORMALIZED FREE ENERGY PREDICTED BY IDOCK:   -5.22 KCAL/MOL
REMARK 922        TOTAL FREE ENERGY PREDICTED BY IDOCK:   -6.13 KCAL/MOL
REMARK 923 INTER-LIGAND FREE ENERGY PREDICTED BY IDOCK:   -5.93 KCAL/MOL
REMARK 924 INTRA-LIGAND FREE ENERGY PREDICTED BY IDOCK:   -0.21 KCAL/MOL
REMARK 927      BINDING AFFINITY PREDICTED BY RF-SCORE:    0.00 PKD
ROOT
HETATM    1  O   UNL     1     -14.150  12.498  72.769  1.00  0.00    -0.544 OA 
HETATM    2  C   UNL     1     -13.316  13.504  72.360  1.00  0.00    -0.540 A  
HETATM    3  H   UNL     1     -14.271  11.734  72.217  1.00  0.00     0.000 HD 
HETATM    4  C   UNL     1     -13.139  14.625  73.171  1.00  0.00    -0.580 A  
HETATM    5  C   UNL     1     -12.289  15.648  72.745  1.00  0.00    -0.435 A  
HETATM    6  C   UNL     1     -11.653  15.572  71.508  1.00  0.00    -0.487 A  
HETATM    7 CL   UNL     1     -12.022  17.011  73.759  1.00  0.00    -0.216 Cl 
HETATM    8  C   UNL     1     -11.849  14.458  70.691  1.00  0.00    -0.361 A  
HETATM    9  C   UNL     1     -12.644  13.393  71.135  1.00  0.00    -0.345 A  
ENDROOT
BRANCH   9  10
HETATM   10  O   UNL     1     -12.856  12.262  70.378  1.00  0.00     0.045 OA 
BRANCH  10  11
HETATM   11  C   UNL     1     -12.059  11.147  70.556  1.00  0.00    -0.381 A  
HETATM   12  C   UNL     1     -10.990  10.963  69.668  1.00  0.00    -0.252 A  
HETATM   13  C   UNL     1     -10.184   9.821  69.746  1.00  0.00    -0.271 A  
HETATM   14 CL   UNL     1     -10.621  12.129  68.447  1.00  0.00    -0.230 Cl 
HETATM   15  C   UNL     1     -10.445   8.863  70.722  1.00  0.00    -0.227 A  
HETATM   16  C   UNL     1     -11.502   9.032  71.613  1.00  0.00    -0.431 A  
HETATM   17 CL   UNL     1      -9.473   7.446  70.810  1.00  0.00    -0.167 Cl 
HETATM   18  C   UNL     1     -12.321  10.162  71.518  1.00  0.00    -0.505 A  
ENDBRANCH  10  11
ENDBRANCH   9  10
TORSDOF 2
ENDMDL
MODEL       48
REMARK 921   NORMALIZED FREE ENERGY PREDICTED BY IDOCK:   -5.20 KCAL/MOL
REMARK 922        TOTAL FREE ENERGY PREDICTED BY IDOCK:   -6.11 KCAL/MOL
REMARK 923 INTER-LIGAND FREE ENERGY PREDICTED BY IDOCK:   -5.84 KCAL/MOL
REMARK 924 INTRA-LIGAND FREE ENERGY PREDICTED BY IDOCK:   -0.27 KCAL/MOL
REMARK 927      BINDING AFFINITY PREDICTED BY RF-SCORE:    0.00 PKD
ROOT
HETATM    1  O   UNL     1     -10.990  18.417  65.142  1.00  0.00    -0.604 OA 
HETATM    2  C   UNL     1     -10.093  18.400  66.176  1.00  0.00    -0.360 A  
HETATM    3  H   UNL     1     -11.588  17.688  65.026  1.00  0.00     0.000 HD 
HETATM    4  C   UNL     1      -9.215  19.470  66.345  1.00  0.00    -0.426 A  
HETATM    5  C   UNL     1      -8.302  19.444  67.400  1.00  0.00    -0.292 A  
HETATM    6  C   UNL     1      -8.237  18.345  68.255  1.00  0.00    -0.317 A  
HETATM    7 CL   UNL     1      -7.250  20.781  67.650  1.00  0.00    -0.354 Cl 
HETATM    8  C   UNL     1      -9.103  17.267  68.069  1.00  0.00    -0.249 A  
HETATM    9  C   UNL     1     -10.072  17.310  67.058  1.00  0.00    -0.303 A  
ENDROOT
BRANCH   9  10
HETATM   10  O   UNL     1     -10.963  16.283  66.843  1.00  0.00    -0.213 OA 
BRANCH  10  11
HETATM   11  C   UNL     1     -11.242  15.381  67.853  1.00  0.00    -0.329 A  
HETATM   12  C   UNL     1     -10.930  14.034  67.627  1.00  0.00    -0.269 A  
HETATM   13  C   UNL     1     -11.247  13.057  68.578  1.00  0.00    -0.309 A  
HETATM   14 CL   UNL     1     -10.143  13.522  66.175  1.00  0.00    -0.298 Cl 
HETATM   15  C   UNL     1     -11.874  13.432  69.763  1.00  0.00    -0.326 A  
HETATM   16  C   UNL     1     -12.189  14.767  70.005  1.00  0.00    -0.383 A  
HETATM   17 CL   UNL     1     -12.288  12.233  70.927  1.00  0.00    -0.440 Cl 
HETATM   18  C   UNL     1     -11.892  15.738  69.042  1.00  0.00    -0.367 A  
ENDBRANCH  10  11
ENDBRANCH   9  10
TORSDOF 2
ENDMDL
MODEL       49
REMARK 921   NORMALIZED FREE ENERGY PREDICTED BY IDOCK:   -5.19 KCAL/MOL
REMARK 922        TOTAL FREE ENERGY PREDICTED BY IDOCK:   -6.10 KCAL/MOL
REMARK 923 INTER-LIGAND FREE ENERGY PREDICTED BY IDOCK:   -5.88 KCAL/MOL
REMARK 924 INTRA-LIGAND FREE ENERGY PREDICTED BY IDOCK:   -0.22 KCAL/MOL
REMARK 927      BINDING AFFINITY PREDICTED BY RF-SCORE:    0.00 PKD
ROOT
HETATM    1  O   UNL     1     -12.586  10.647  69.142  1.00  0.00    -0.734 OA 
HETATM    2  C   UNL     1     -11.491  11.363  68.739  1.00  0.00    -0.290 A  
HETATM    3  H   UNL     1     -13.316  11.096  69.551  1.00  0.00     0.000 HD 
HETATM    4  C   UNL     1     -10.418  10.702  68.138  1.00  0.00    -0.215 A  
HETATM    5  C   UNL     1      -9.304  11.439  67.732  1.00  0.00    -0.162 A  
HETATM    6  C   UNL     1      -9.242  12.812  67.958  1.00  0.00    -0.208 A  
HETATM    7 CL   UNL     1      -7.999  10.644  66.944  1.00  0.00    -0.120 Cl 
HETATM    8  C   UNL     1     -10.307  13.465  68.578  1.00  0.00    -0.240 A  
HETATM    9  C   UNL     1     -11.461  12.751  68.927  1.00  0.00    -0.305 A  
ENDROOT
BRANCH   9  10
HETATM   10  O   UNL     1     -12.549  13.349  69.524  1.00  0.00    -0.068 OA 
BRANCH  10  11
HETATM   11  C   UNL     1     -12.381  14.132  70.651  1.00  0.00    -0.365 A  
HETATM   12  C   UNL     1     -12.793  13.599  71.880  1.00  0.00    -0.287 A  
HETATM   13  C   UNL     1     -12.716  14.362  73.052  1.00  0.00    -0.453 A  
HETATM   14 CL   UNL     1     -13.407  11.989  72.004  1.00  0.00    -0.557 Cl 
HETATM   15  C   UNL     1     -12.219  15.661  72.993  1.00  0.00    -0.466 A  
HETATM   16  C   UNL     1     -11.803  16.205  71.779  1.00  0.00    -0.581 A  
HETATM   17 CL   UNL     1     -12.143  16.612  74.424  1.00  0.00    -0.442 Cl 
HETATM   18  C   UNL     1     -11.903  15.449  70.606  1.00  0.00    -0.388 A  
ENDBRANCH  10  11
ENDBRANCH   9  10
TORSDOF 2
ENDMDL
MODEL       50
REMARK 921   NORMALIZED FREE ENERGY PREDICTED BY IDOCK:   -5.19 KCAL/MOL
REMARK 922        TOTAL FREE ENERGY PREDICTED BY IDOCK:   -6.09 KCAL/MOL
REMARK 923 INTER-LIGAND FREE ENERGY PREDICTED BY IDOCK:   -5.80 KCAL/MOL
REMARK 924 INTRA-LIGAND FREE ENERGY PREDICTED BY IDOCK:   -0.29 KCAL/MOL
REMARK 927      BINDING AFFINITY PREDICTED BY RF-SCORE:    0.00 PKD
ROOT
HETATM    1  O   UNL     1     -11.139  13.681  65.966  1.00  0.00    -0.292 OA 
HETATM    2  C   UNL     1     -11.355  14.242  67.196  1.00  0.00    -0.337 A  
HETATM    3  H   UNL     1     -10.858  14.229  65.242  1.00  0.00     0.000 HD 
HETATM    4  C   UNL     1     -11.767  13.437  68.258  1.00  0.00    -0.391 A  
HETATM    5  C   UNL     1     -11.988  14.016  69.508  1.00  0.00    -0.339 A  
HETATM    6  C   UNL     1     -11.839  15.390  69.689  1.00  0.00    -0.368 A  
HETATM    7 CL   UNL     1     -12.446  13.027  70.838  1.00  0.00    -0.440 Cl 
HETATM    8  C   UNL     1     -11.448  16.195  68.619  1.00  0.00    -0.340 A  
HETATM    9  C   UNL     1     -11.154  15.617  67.377  1.00  0.00    -0.260 A  
ENDROOT
BRANCH   9  10
HETATM   10  O   UNL     1     -10.745  16.362  66.293  1.00  0.00    -0.266 OA 
BRANCH  10  11
HETATM   11  C   UNL     1      -9.964  17.487  66.477  1.00  0.00    -0.321 A  
HETATM   12  C   UNL     1      -8.614  17.296  66.801  1.00  0.00    -0.249 A  
HETATM   13  C   UNL     1      -7.781  18.389  67.070  1.00  0.00    -0.234 A  
HETATM   14 CL   UNL     1      -7.921  15.714  66.883  1.00  0.00    -0.275 Cl 
HETATM   15  C   UNL     1      -8.301  19.679  67.007  1.00  0.00    -0.294 A  
HETATM   16  C   UNL     1      -9.640  19.886  66.684  1.00  0.00    -0.527 A  
HETATM   17 CL   UNL     1      -7.289  21.026  67.358  1.00  0.00    -0.388 Cl 
HETATM   18  C   UNL     1     -10.476  18.791  66.439  1.00  0.00    -0.485 A  
ENDBRANCH  10  11
ENDBRANCH   9  10
TORSDOF 2
ENDMDL
MODEL       51
REMARK 921   NORMALIZED FREE ENERGY PREDICTED BY IDOCK:   -5.18 KCAL/MOL
REMARK 922        TOTAL FREE ENERGY PREDICTED BY IDOCK:   -6.09 KCAL/MOL
REMARK 923 INTER-LIGAND FREE ENERGY PREDICTED BY IDOCK:   -5.77 KCAL/MOL
REMARK 924 INTRA-LIGAND FREE ENERGY PREDICTED BY IDOCK:   -0.31 KCAL/MOL
REMARK 927      BINDING AFFINITY PREDICTED BY RF-SCORE:    0.00 PKD
ROOT
HETATM    1  O   UNL     1     -11.023  18.951  67.376  1.00  0.00    -0.437 OA 
HETATM    2  C   UNL     1      -9.786  18.561  66.939  1.00  0.00    -0.334 A  
HETATM    3  H   UNL     1     -11.625  18.304  67.726  1.00  0.00     0.000 HD 
HETATM    4  C   UNL     1      -8.904  19.512  66.425  1.00  0.00    -0.400 A  
HETATM    5  C   UNL     1      -7.646  19.105  65.980  1.00  0.00    -0.260 A  
HETATM    6  C   UNL     1      -7.284  17.760  66.009  1.00  0.00    -0.322 A  
HETATM    7 CL   UNL     1      -6.531  20.275  65.392  1.00  0.00    -0.279 Cl 
HETATM    8  C   UNL     1      -8.177  16.809  66.503  1.00  0.00    -0.325 A  
HETATM    9  C   UNL     1      -9.416  17.211  67.019  1.00  0.00    -0.252 A  
ENDROOT
BRANCH   9  10
HETATM   10  O   UNL     1     -10.327  16.317  67.537  1.00  0.00    -0.275 OA 
BRANCH  10  11
HETATM   11  C   UNL     1     -10.962  15.412  66.708  1.00  0.00    -0.282 A  
HETATM   12  C   UNL     1     -11.360  14.189  67.264  1.00  0.00    -0.332 A  
HETATM   13  C   UNL     1     -11.946  13.198  66.468  1.00  0.00    -0.459 A  
HETATM   14 CL   UNL     1     -11.148  13.852  68.947  1.00  0.00    -0.281 Cl 
HETATM   15  C   UNL     1     -12.140  13.435  65.110  1.00  0.00    -0.409 A  
HETATM   16  C   UNL     1     -11.752  14.647  64.542  1.00  0.00    -0.410 A  
HETATM   17 CL   UNL     1     -12.839  12.214  64.120  1.00  0.00    -0.444 Cl 
HETATM   18  C   UNL     1     -11.145  15.626  65.335  1.00  0.00    -0.271 A  
ENDBRANCH  10  11
ENDBRANCH   9  10
TORSDOF 2
ENDMDL
MODEL       52
REMARK 921   NORMALIZED FREE ENERGY PREDICTED BY IDOCK:   -5.17 KCAL/MOL
REMARK 922        TOTAL FREE ENERGY PREDICTED BY IDOCK:   -6.08 KCAL/MOL
REMARK 923 INTER-LIGAND FREE ENERGY PREDICTED BY IDOCK:   -5.56 KCAL/MOL
REMARK 924 INTRA-LIGAND FREE ENERGY PREDICTED BY IDOCK:   -0.51 KCAL/MOL
REMARK 927      BINDING AFFINITY PREDICTED BY RF-SCORE:    0.00 PKD
ROOT
HETATM    1  O   UNL     1     -12.849  10.666  69.480  1.00  0.00    -0.608 OA 
HETATM    2  C   UNL     1     -11.534  10.343  69.284  1.00  0.00    -0.215 A  
HETATM    3  H   UNL     1     -13.360  11.017  68.760  1.00  0.00     0.000 HD 
HETATM    4  C   UNL     1     -10.785   9.827  70.341  1.00  0.00    -0.368 A  
HETATM    5  C   UNL     1      -9.443   9.503  70.134  1.00  0.00    -0.246 A  
HETATM    6  C   UNL     1      -8.843   9.726  68.896  1.00  0.00    -0.140 A  
HETATM    7 CL   UNL     1      -8.523   8.818  71.415  1.00  0.00    -0.236 Cl 
HETATM    8  C   UNL     1      -9.590  10.262  67.846  1.00  0.00    -0.161 A  
HETATM    9  C   UNL     1     -10.955  10.527  68.020  1.00  0.00    -0.290 A  
ENDROOT
BRANCH   9  10
HETATM   10  O   UNL     1     -11.744  11.037  67.013  1.00  0.00    -0.399 OA 
BRANCH  10  11
HETATM   11  C   UNL     1     -11.602  12.355  66.619  1.00  0.00    -0.385 A  
HETATM   12  C   UNL     1     -11.063  12.599  65.348  1.00  0.00    -0.292 A  
HETATM   13  C   UNL     1     -10.827  13.908  64.911  1.00  0.00    -0.413 A  
HETATM   14 CL   UNL     1     -10.670  11.305  64.271  1.00  0.00    -0.416 Cl 
HETATM   15  C   UNL     1     -11.139  14.976  65.747  1.00  0.00    -0.346 A  
HETATM   16  C   UNL     1     -11.677  14.751  67.012  1.00  0.00    -0.330 A  
HETATM   17 CL   UNL     1     -10.830  16.587  65.225  1.00  0.00    -0.309 Cl 
HETATM   18  C   UNL     1     -11.889  13.441  67.455  1.00  0.00    -0.408 A  
ENDBRANCH  10  11
ENDBRANCH   9  10
TORSDOF 2
ENDMDL
MODEL       53
REMARK 921   NORMALIZED FREE ENERGY PREDICTED BY IDOCK:   -5.14 KCAL/MOL
REMARK 922        TOTAL FREE ENERGY PREDICTED BY IDOCK:   -6.04 KCAL/MOL
REMARK 923 INTER-LIGAND FREE ENERGY PREDICTED BY IDOCK:   -5.77 KCAL/MOL
REMARK 924 INTRA-LIGAND FREE ENERGY PREDICTED BY IDOCK:   -0.27 KCAL/MOL
REMARK 927      BINDING AFFINITY PREDICTED BY RF-SCORE:    0.00 PKD
ROOT
HETATM    1  O   UNL     1     -12.149  13.223  70.848  1.00  0.00    -0.463 OA 
HETATM    2  C   UNL     1     -11.776  12.819  69.595  1.00  0.00    -0.302 A  
HETATM    3  H   UNL     1     -12.535  12.596  71.449  1.00  0.00     0.000 HD 
HETATM    4  C   UNL     1     -11.208  13.739  68.713  1.00  0.00    -0.303 A  
HETATM    5  C   UNL     1     -10.833  13.319  67.436  1.00  0.00    -0.267 A  
HETATM    6  C   UNL     1     -11.057  12.006  67.027  1.00  0.00    -0.351 A  
HETATM    7 CL   UNL     1     -10.085  14.431  66.359  1.00  0.00    -0.281 Cl 
HETATM    8  C   UNL     1     -11.645  11.094  67.904  1.00  0.00    -0.328 A  
HETATM    9  C   UNL     1     -11.962  11.483  69.212  1.00  0.00    -0.330 A  
ENDROOT
BRANCH   9  10
HETATM   10  O   UNL     1     -12.525  10.618  70.125  1.00  0.00    -0.322 OA 
BRANCH  10  11
HETATM   11  C   UNL     1     -11.723   9.766  70.861  1.00  0.00    -0.347 A  
HETATM   12  C   UNL     1     -12.340   8.982  71.846  1.00  0.00    -0.384 A  
HETATM   13  C   UNL     1     -11.581   8.148  72.676  1.00  0.00    -0.441 A  
HETATM   14 CL   UNL     1     -14.053   9.010  72.078  1.00  0.00    -0.444 Cl 
HETATM   15  C   UNL     1     -10.200   8.094  72.514  1.00  0.00    -0.313 A  
HETATM   16  C   UNL     1      -9.571   8.864  71.538  1.00  0.00    -0.362 A  
HETATM   17 CL   UNL     1      -9.258   7.088  73.544  1.00  0.00    -0.177 Cl 
HETATM   18  C   UNL     1     -10.330   9.715  70.726  1.00  0.00    -0.356 A  
ENDBRANCH  10  11
ENDBRANCH   9  10
TORSDOF 2
ENDMDL
MODEL       54
REMARK 921   NORMALIZED FREE ENERGY PREDICTED BY IDOCK:   -5.14 KCAL/MOL
REMARK 922        TOTAL FREE ENERGY PREDICTED BY IDOCK:   -6.04 KCAL/MOL
REMARK 923 INTER-LIGAND FREE ENERGY PREDICTED BY IDOCK:   -5.85 KCAL/MOL
REMARK 924 INTRA-LIGAND FREE ENERGY PREDICTED BY IDOCK:   -0.18 KCAL/MOL
REMARK 927      BINDING AFFINITY PREDICTED BY RF-SCORE:    0.00 PKD
ROOT
HETATM    1  O   UNL     1     -12.541  14.691  69.223  1.00  0.00    -0.563 OA 
HETATM    2  C   UNL     1     -11.767  15.287  68.264  1.00  0.00    -0.301 A  
HETATM    3  H   UNL     1     -12.980  13.871  69.030  1.00  0.00     0.000 HD 
HETATM    4  C   UNL     1     -11.122  16.491  68.549  1.00  0.00    -0.335 A  
HETATM    5  C   UNL     1     -10.337  17.094  67.566  1.00  0.00    -0.341 A  
HETATM    6  C   UNL     1     -10.227  16.525  66.299  1.00  0.00    -0.343 A  
HETATM    7 CL   UNL     1      -9.495  18.551  67.921  1.00  0.00    -0.302 Cl 
HETATM    8  C   UNL     1     -10.891  15.332  66.011  1.00  0.00    -0.331 A  
HETATM    9  C   UNL     1     -11.625  14.679  67.009  1.00  0.00    -0.371 A  
ENDROOT
BRANCH   9  10
HETATM   10  O   UNL     1     -12.283  13.490  66.786  1.00  0.00    -0.390 OA 
BRANCH  10  11
HETATM   11  C   UNL     1     -11.570  12.351  66.463  1.00  0.00    -0.387 A  
HETATM   12  C   UNL     1     -11.380  11.395  67.471  1.00  0.00    -0.292 A  
HETATM   13  C   UNL     1     -10.610  10.250  67.235  1.00  0.00    -0.324 A  
HETATM   14 CL   UNL     1     -12.084  11.586  69.039  1.00  0.00    -0.358 Cl 
HETATM   15  C   UNL     1     -10.034  10.058  65.982  1.00  0.00    -0.267 A  
HETATM   16  C   UNL     1     -10.215  10.997  64.969  1.00  0.00    -0.360 A  
HETATM   17 CL   UNL     1      -9.067   8.664  65.692  1.00  0.00    -0.240 Cl 
HETATM   18  C   UNL     1     -10.965  12.152  65.215  1.00  0.00    -0.349 A  
ENDBRANCH  10  11
ENDBRANCH   9  10
TORSDOF 2
ENDMDL
MODEL       55
REMARK 921   NORMALIZED FREE ENERGY PREDICTED BY IDOCK:   -5.13 KCAL/MOL
REMARK 922        TOTAL FREE ENERGY PREDICTED BY IDOCK:   -6.03 KCAL/MOL
REMARK 923 INTER-LIGAND FREE ENERGY PREDICTED BY IDOCK:   -5.97 KCAL/MOL
REMARK 924 INTRA-LIGAND FREE ENERGY PREDICTED BY IDOCK:   -0.05 KCAL/MOL
REMARK 927      BINDING AFFINITY PREDICTED BY RF-SCORE:    0.00 PKD
ROOT
HETATM    1  O   UNL     1     -13.654   9.699  70.745  1.00  0.00    -0.596 OA 
HETATM    2  C   UNL     1     -12.351   9.388  71.026  1.00  0.00    -0.258 A  
HETATM    3  H   UNL     1     -13.854  10.280  70.020  1.00  0.00     0.000 HD 
HETATM    4  C   UNL     1     -12.059   8.536  72.090  1.00  0.00    -0.449 A  
HETATM    5  C   UNL     1     -10.727   8.225  72.371  1.00  0.00    -0.341 A  
HETATM    6  C   UNL     1      -9.695   8.790  71.624  1.00  0.00    -0.366 A  
HETATM    7 CL   UNL     1     -10.357   7.135  73.648  1.00  0.00    -0.400 Cl 
HETATM    8  C   UNL     1      -9.990   9.659  70.574  1.00  0.00    -0.318 A  
HETATM    9  C   UNL     1     -11.324   9.924  70.235  1.00  0.00    -0.291 A  
ENDROOT
BRANCH   9  10
HETATM   10  O   UNL     1     -11.672  10.758  69.196  1.00  0.00    -0.292 OA 
BRANCH  10  11
HETATM   11  C   UNL     1     -11.079  10.609  67.957  1.00  0.00    -0.301 A  
HETATM   12  C   UNL     1     -11.119  11.702  67.081  1.00  0.00    -0.299 A  
HETATM   13  C   UNL     1     -10.599  11.600  65.785  1.00  0.00    -0.320 A  
HETATM   14 CL   UNL     1     -11.806  13.215  67.558  1.00  0.00    -0.412 Cl 
HETATM   15  C   UNL     1     -10.031  10.400  65.367  1.00  0.00    -0.295 A  
HETATM   16  C   UNL     1      -9.981   9.304  66.226  1.00  0.00    -0.357 A  
HETATM   17 CL   UNL     1      -9.411  10.260  63.768  1.00  0.00    -0.335 Cl 
HETATM   18  C   UNL     1     -10.523   9.402  67.512  1.00  0.00    -0.343 A  
ENDBRANCH  10  11
ENDBRANCH   9  10
TORSDOF 2
ENDMDL
MODEL       56
REMARK 921   NORMALIZED FREE ENERGY PREDICTED BY IDOCK:   -5.13 KCAL/MOL
REMARK 922        TOTAL FREE ENERGY PREDICTED BY IDOCK:   -6.03 KCAL/MOL
REMARK 923 INTER-LIGAND FREE ENERGY PREDICTED BY IDOCK:   -5.87 KCAL/MOL
REMARK 924 INTRA-LIGAND FREE ENERGY PREDICTED BY IDOCK:   -0.16 KCAL/MOL
REMARK 927      BINDING AFFINITY PREDICTED BY RF-SCORE:    0.00 PKD
ROOT
HETATM    1  O   UNL     1      -9.766  12.119  67.251  1.00  0.00    -0.188 OA 
HETATM    2  C   UNL     1     -10.380  12.050  66.030  1.00  0.00    -0.238 A  
HETATM    3  H   UNL     1     -10.160  12.633  67.947  1.00  0.00     0.000 HD 
HETATM    4  C   UNL     1      -9.801  11.296  65.009  1.00  0.00    -0.307 A  
HETATM    5  C   UNL     1     -10.432  11.234  63.765  1.00  0.00    -0.399 A  
HETATM    6  C   UNL     1     -11.605  11.947  63.529  1.00  0.00    -0.537 A  
HETATM    7 CL   UNL     1      -9.756  10.266  62.515  1.00  0.00    -0.217 Cl 
HETATM    8  C   UNL     1     -12.169  12.717  64.546  1.00  0.00    -0.514 A  
HETATM    9  C   UNL     1     -11.586  12.733  65.820  1.00  0.00    -0.376 A  
ENDROOT
BRANCH   9  10
HETATM   10  O   UNL     1     -12.112  13.460  66.865  1.00  0.00    -0.388 OA 
BRANCH  10  11
HETATM   11  C   UNL     1     -11.545  14.668  67.226  1.00  0.00    -0.387 A  
HETATM   12  C   UNL     1     -11.656  15.063  68.566  1.00  0.00    -0.326 A  
HETATM   13  C   UNL     1     -11.166  16.305  68.989  1.00  0.00    -0.326 A  
HETATM   14 CL   UNL     1     -12.396  14.043  69.749  1.00  0.00    -0.380 Cl 
HETATM   15  C   UNL     1     -10.556  17.151  68.066  1.00  0.00    -0.374 A  
HETATM   16  C   UNL     1     -10.435  16.772  66.731  1.00  0.00    -0.258 A  
HETATM   17 CL   UNL     1      -9.972  18.688  68.573  1.00  0.00    -0.409 Cl 
HETATM   18  C   UNL     1     -10.947  15.540  66.307  1.00  0.00    -0.242 A  
ENDBRANCH  10  11
ENDBRANCH   9  10
TORSDOF 2
ENDMDL
MODEL       57
REMARK 921   NORMALIZED FREE ENERGY PREDICTED BY IDOCK:   -5.10 KCAL/MOL
REMARK 922        TOTAL FREE ENERGY PREDICTED BY IDOCK:   -6.00 KCAL/MOL
REMARK 923 INTER-LIGAND FREE ENERGY PREDICTED BY IDOCK:   -5.94 KCAL/MOL
REMARK 924 INTRA-LIGAND FREE ENERGY PREDICTED BY IDOCK:   -0.06 KCAL/MOL
REMARK 927      BINDING AFFINITY PREDICTED BY RF-SCORE:    0.00 PKD
ROOT
HETATM    1  O   UNL     1     -12.076   6.608  69.593  1.00  0.00    -0.615 OA 
HETATM    2  C   UNL     1     -11.478   6.906  70.787  1.00  0.00    -0.335 A  
HETATM    3  H   UNL     1     -12.196   7.291  68.943  1.00  0.00     0.000 HD 
HETATM    4  C   UNL     1     -11.302   5.903  71.740  1.00  0.00    -0.289 A  
HETATM    5  C   UNL     1     -10.693   6.215  72.957  1.00  0.00    -0.252 A  
HETATM    6  C   UNL     1     -10.298   7.522  73.237  1.00  0.00    -0.412 A  
HETATM    7 CL   UNL     1     -10.425   4.977  74.119  1.00  0.00    -0.309 Cl 
HETATM    8  C   UNL     1     -10.495   8.527  72.289  1.00  0.00    -0.402 A  
HETATM    9  C   UNL     1     -11.040   8.214  71.037  1.00  0.00    -0.253 A  
ENDROOT
BRANCH   9  10
HETATM   10  O   UNL     1     -11.238   9.163  70.059  1.00  0.00    -0.231 OA 
BRANCH  10  11
HETATM   11  C   UNL     1     -11.807  10.382  70.377  1.00  0.00    -0.328 A  
HETATM   12  C   UNL     1     -11.425  11.496  69.617  1.00  0.00    -0.301 A  
HETATM   13  C   UNL     1     -11.909  12.773  69.927  1.00  0.00    -0.371 A  
HETATM   14 CL   UNL     1     -10.348  11.345  68.274  1.00  0.00    -0.197 Cl 
HETATM   15  C   UNL     1     -12.785  12.933  70.998  1.00  0.00    -0.251 A  
HETATM   16  C   UNL     1     -13.176  11.835  71.761  1.00  0.00    -0.434 A  
HETATM   17 CL   UNL     1     -13.366  14.502  71.399  1.00  0.00    -0.405 Cl 
HETATM   18  C   UNL     1     -12.672  10.564  71.464  1.00  0.00    -0.558 A  
ENDBRANCH  10  11
ENDBRANCH   9  10
TORSDOF 2
ENDMDL
MODEL       58
REMARK 921   NORMALIZED FREE ENERGY PREDICTED BY IDOCK:   -5.08 KCAL/MOL
REMARK 922        TOTAL FREE ENERGY PREDICTED BY IDOCK:   -5.97 KCAL/MOL
REMARK 923 INTER-LIGAND FREE ENERGY PREDICTED BY IDOCK:   -5.68 KCAL/MOL
REMARK 924 INTRA-LIGAND FREE ENERGY PREDICTED BY IDOCK:   -0.29 KCAL/MOL
REMARK 927      BINDING AFFINITY PREDICTED BY RF-SCORE:    0.00 PKD
ROOT
HETATM    1  O   UNL     1      -8.565  11.978  66.490  1.00  0.00    -0.286 OA 
HETATM    2  C   UNL     1      -9.854  12.373  66.251  1.00  0.00    -0.247 A  
HETATM    3  H   UNL     1      -8.264  11.870  67.385  1.00  0.00     0.000 HD 
HETATM    4  C   UNL     1     -10.294  12.531  64.937  1.00  0.00    -0.323 A  
HETATM    5  C   UNL     1     -11.609  12.936  64.702  1.00  0.00    -0.346 A  
HETATM    6  C   UNL     1     -12.464  13.219  65.765  1.00  0.00    -0.480 A  
HETATM    7 CL   UNL     1     -12.179  13.085  63.087  1.00  0.00    -0.503 Cl 
HETATM    8  C   UNL     1     -12.013  13.080  67.078  1.00  0.00    -0.409 A  
HETATM    9  C   UNL     1     -10.719  12.607  67.329  1.00  0.00    -0.237 A  
ENDROOT
BRANCH   9  10
HETATM   10  O   UNL     1     -10.230  12.432  68.605  1.00  0.00    -0.218 OA 
BRANCH  10  11
HETATM   11  C   UNL     1     -10.972  11.744  69.546  1.00  0.00    -0.064 A  
HETATM   12  C   UNL     1     -10.694  10.382  69.725  1.00  0.00    -0.278 A  
HETATM   13  C   UNL     1     -11.453   9.608  70.611  1.00  0.00    -0.376 A  
HETATM   14 CL   UNL     1      -9.412   9.603  68.866  1.00  0.00    -0.153 Cl 
HETATM   15  C   UNL     1     -12.489  10.201  71.326  1.00  0.00    -0.406 A  
HETATM   16  C   UNL     1     -12.777  11.555  71.161  1.00  0.00    -0.458 A  
HETATM   17 CL   UNL     1     -13.440   9.251  72.399  1.00  0.00    -0.528 Cl 
HETATM   18  C   UNL     1     -12.033  12.321  70.258  1.00  0.00    -0.373 A  
ENDBRANCH  10  11
ENDBRANCH   9  10
TORSDOF 2
ENDMDL
MODEL       59
REMARK 921   NORMALIZED FREE ENERGY PREDICTED BY IDOCK:   -5.06 KCAL/MOL
REMARK 922        TOTAL FREE ENERGY PREDICTED BY IDOCK:   -5.95 KCAL/MOL
REMARK 923 INTER-LIGAND FREE ENERGY PREDICTED BY IDOCK:   -5.45 KCAL/MOL
REMARK 924 INTRA-LIGAND FREE ENERGY PREDICTED BY IDOCK:   -0.50 KCAL/MOL
REMARK 927      BINDING AFFINITY PREDICTED BY RF-SCORE:    0.00 PKD
ROOT
HETATM    1  O   UNL     1      -8.622   9.977  69.440  1.00  0.00    -0.149 OA 
HETATM    2  C   UNL     1      -9.914   9.983  69.893  1.00  0.00    -0.237 A  
HETATM    3  H   UNL     1      -8.325  10.665  68.856  1.00  0.00     0.000 HD 
HETATM    4  C   UNL     1     -10.349   8.972  70.751  1.00  0.00    -0.305 A  
HETATM    5  C   UNL     1     -11.668   8.984  71.206  1.00  0.00    -0.313 A  
HETATM    6  C   UNL     1     -12.556   9.971  70.781  1.00  0.00    -0.372 A  
HETATM    7 CL   UNL     1     -12.202   7.774  72.304  1.00  0.00    -0.317 Cl 
HETATM    8  C   UNL     1     -12.123  10.967  69.906  1.00  0.00    -0.435 A  
HETATM    9  C   UNL     1     -10.784  11.009  69.496  1.00  0.00    -0.183 A  
ENDROOT
BRANCH   9  10
HETATM   10  O   UNL     1     -10.298  11.981  68.650  1.00  0.00    -0.216 OA 
BRANCH  10  11
HETATM   11  C   UNL     1     -10.752  12.058  67.347  1.00  0.00    -0.229 A  
HETATM   12  C   UNL     1     -11.716  13.031  67.051  1.00  0.00    -0.383 A  
HETATM   13  C   UNL     1     -12.271  13.121  65.768  1.00  0.00    -0.514 A  
HETATM   14 CL   UNL     1     -12.259  14.156  68.246  1.00  0.00    -0.293 Cl 
HETATM   15  C   UNL     1     -11.853  12.237  64.777  1.00  0.00    -0.364 A  
HETATM   16  C   UNL     1     -10.894  11.266  65.055  1.00  0.00    -0.285 A  
HETATM   17 CL   UNL     1     -12.547  12.327  63.205  1.00  0.00    -0.558 Cl 
HETATM   18  C   UNL     1     -10.359  11.163  66.343  1.00  0.00    -0.300 A  
ENDBRANCH  10  11
ENDBRANCH   9  10
TORSDOF 2
ENDMDL
MODEL       60
REMARK 921   NORMALIZED FREE ENERGY PREDICTED BY IDOCK:   -5.05 KCAL/MOL
REMARK 922        TOTAL FREE ENERGY PREDICTED BY IDOCK:   -5.94 KCAL/MOL
REMARK 923 INTER-LIGAND FREE ENERGY PREDICTED BY IDOCK:   -5.77 KCAL/MOL
REMARK 924 INTRA-LIGAND FREE ENERGY PREDICTED BY IDOCK:   -0.17 KCAL/MOL
REMARK 927      BINDING AFFINITY PREDICTED BY RF-SCORE:    0.00 PKD
ROOT
HETATM    1  O   UNL     1     -11.161  19.408  67.315  1.00  0.00    -0.458 OA 
HETATM    2  C   UNL     1     -10.075  18.607  67.084  1.00  0.00    -0.359 A  
HETATM    3  H   UNL     1     -11.927  19.048  67.748  1.00  0.00     0.000 HD 
HETATM    4  C   UNL     1      -8.951  19.135  66.449  1.00  0.00    -0.356 A  
HETATM    5  C   UNL     1      -7.848  18.312  66.215  1.00  0.00    -0.245 A  
HETATM    6  C   UNL     1      -7.880  16.966  66.575  1.00  0.00    -0.330 A  
HETATM    7 CL   UNL     1      -6.438  18.964  65.480  1.00  0.00    -0.296 Cl 
HETATM    8  C   UNL     1      -9.014  16.436  67.191  1.00  0.00    -0.218 A  
HETATM    9  C   UNL     1     -10.101  17.267  67.496  1.00  0.00    -0.315 A  
ENDROOT
BRANCH   9  10
HETATM   10  O   UNL     1     -11.236  16.801  68.120  1.00  0.00    -0.325 OA 
BRANCH  10  11
HETATM   11  C   UNL     1     -11.454  15.441  68.242  1.00  0.00    -0.353 A  
HETATM   12  C   UNL     1     -11.405  14.888  69.529  1.00  0.00    -0.281 A  
HETATM   13  C   UNL     1     -11.548  13.509  69.721  1.00  0.00    -0.313 A  
HETATM   14 CL   UNL     1     -11.169  15.877  70.928  1.00  0.00    -0.388 Cl 
HETATM   15  C   UNL     1     -11.748  12.681  68.619  1.00  0.00    -0.325 A  
HETATM   16  C   UNL     1     -11.801  13.215  67.334  1.00  0.00    -0.412 A  
HETATM   17 CL   UNL     1     -11.901  10.982  68.844  1.00  0.00    -0.391 Cl 
HETATM   18  C   UNL     1     -11.634  14.591  67.143  1.00  0.00    -0.406 A  
ENDBRANCH  10  11
ENDBRANCH   9  10
TORSDOF 2
ENDMDL
MODEL       61
REMARK 921   NORMALIZED FREE ENERGY PREDICTED BY IDOCK:   -5.05 KCAL/MOL
REMARK 922        TOTAL FREE ENERGY PREDICTED BY IDOCK:   -5.94 KCAL/MOL
REMARK 923 INTER-LIGAND FREE ENERGY PREDICTED BY IDOCK:   -5.79 KCAL/MOL
REMARK 924 INTRA-LIGAND FREE ENERGY PREDICTED BY IDOCK:   -0.15 KCAL/MOL
REMARK 927      BINDING AFFINITY PREDICTED BY RF-SCORE:    0.00 PKD
ROOT
HETATM    1  O   UNL     1     -12.302  11.058  68.820  1.00  0.00    -0.730 OA 
HETATM    2  C   UNL     1     -11.470  11.120  67.734  1.00  0.00    -0.272 A  
HETATM    3  H   UNL     1     -12.828  11.814  69.053  1.00  0.00     0.000 HD 
HETATM    4  C   UNL     1     -10.699  10.009  67.392  1.00  0.00    -0.336 A  
HETATM    5  C   UNL     1      -9.851  10.082  66.285  1.00  0.00    -0.236 A  
HETATM    6  C   UNL     1      -9.743  11.261  65.551  1.00  0.00    -0.268 A  
HETATM    7 CL   UNL     1      -8.935   8.703  65.822  1.00  0.00    -0.235 Cl 
HETATM    8  C   UNL     1     -10.500  12.377  65.910  1.00  0.00    -0.284 A  
HETATM    9  C   UNL     1     -11.408  12.297  66.974  1.00  0.00    -0.334 A  
ENDROOT
BRANCH   9  10
HETATM   10  O   UNL     1     -12.193  13.360  67.358  1.00  0.00    -0.326 OA 
BRANCH  10  11
HETATM   11  C   UNL     1     -11.612  14.567  67.700  1.00  0.00    -0.378 A  
HETATM   12  C   UNL     1     -11.692  14.971  69.040  1.00  0.00    -0.325 A  
HETATM   13  C   UNL     1     -11.186  16.212  69.444  1.00  0.00    -0.335 A  
HETATM   14 CL   UNL     1     -12.414  13.963  70.244  1.00  0.00    -0.396 Cl 
HETATM   15  C   UNL     1     -10.591  17.049  68.504  1.00  0.00    -0.370 A  
HETATM   16  C   UNL     1     -10.500  16.661  67.169  1.00  0.00    -0.300 A  
HETATM   17 CL   UNL     1      -9.987  18.585  68.989  1.00  0.00    -0.381 Cl 
HETATM   18  C   UNL     1     -11.028  15.430  66.764  1.00  0.00    -0.282 A  
ENDBRANCH  10  11
ENDBRANCH   9  10
TORSDOF 2
ENDMDL
MODEL       62
REMARK 921   NORMALIZED FREE ENERGY PREDICTED BY IDOCK:   -5.05 KCAL/MOL
REMARK 922        TOTAL FREE ENERGY PREDICTED BY IDOCK:   -5.94 KCAL/MOL
REMARK 923 INTER-LIGAND FREE ENERGY PREDICTED BY IDOCK:   -5.74 KCAL/MOL
REMARK 924 INTRA-LIGAND FREE ENERGY PREDICTED BY IDOCK:   -0.20 KCAL/MOL
REMARK 927      BINDING AFFINITY PREDICTED BY RF-SCORE:    0.00 PKD
ROOT
HETATM    1  O   UNL     1     -13.004  13.358  64.850  1.00  0.00    -0.717 OA 
HETATM    2  C   UNL     1     -11.987  12.763  65.547  1.00  0.00    -0.449 A  
HETATM    3  H   UNL     1     -13.411  14.145  65.193  1.00  0.00     0.000 HD 
HETATM    4  C   UNL     1     -11.389  11.607  65.044  1.00  0.00    -0.237 A  
HETATM    5  C   UNL     1     -10.355  11.005  65.762  1.00  0.00    -0.257 A  
HETATM    6  C   UNL     1      -9.947  11.525  66.988  1.00  0.00    -0.225 A  
HETATM    7 CL   UNL     1      -9.576   9.610  65.127  1.00  0.00    -0.353 Cl 
HETATM    8  C   UNL     1     -10.562  12.669  67.499  1.00  0.00    -0.236 A  
HETATM    9  C   UNL     1     -11.553  13.324  66.756  1.00  0.00    -0.365 A  
ENDROOT
BRANCH   9  10
HETATM   10  O   UNL     1     -12.178  14.467  67.203  1.00  0.00    -0.390 OA 
BRANCH  10  11
HETATM   11  C   UNL     1     -11.430  15.562  67.594  1.00  0.00    -0.209 A  
HETATM   12  C   UNL     1     -10.763  16.284  66.594  1.00  0.00    -0.197 A  
HETATM   13  C   UNL     1      -9.933  17.362  66.923  1.00  0.00    -0.300 A  
HETATM   14 CL   UNL     1     -10.936  15.879  64.922  1.00  0.00    -0.465 Cl 
HETATM   15  C   UNL     1      -9.775  17.722  68.258  1.00  0.00    -0.320 A  
HETATM   16  C   UNL     1     -10.432  17.017  69.264  1.00  0.00    -0.293 A  
HETATM   17 CL   UNL     1      -8.738  19.031  68.673  1.00  0.00    -0.391 Cl 
HETATM   18  C   UNL     1     -11.243  15.925  68.934  1.00  0.00    -0.343 A  
ENDBRANCH  10  11
ENDBRANCH   9  10
TORSDOF 2
ENDMDL
MODEL       63
REMARK 921   NORMALIZED FREE ENERGY PREDICTED BY IDOCK:   -5.02 KCAL/MOL
REMARK 922        TOTAL FREE ENERGY PREDICTED BY IDOCK:   -5.90 KCAL/MOL
REMARK 923 INTER-LIGAND FREE ENERGY PREDICTED BY IDOCK:   -5.41 KCAL/MOL
REMARK 924 INTRA-LIGAND FREE ENERGY PREDICTED BY IDOCK:   -0.50 KCAL/MOL
REMARK 927      BINDING AFFINITY PREDICTED BY RF-SCORE:    0.00 PKD
ROOT
HETATM    1  O   UNL     1     -10.827  16.851  65.064  1.00  0.00    -0.666 OA 
HETATM    2  C   UNL     1     -10.116  16.896  66.233  1.00  0.00    -0.324 A  
HETATM    3  H   UNL     1     -11.586  16.283  64.996  1.00  0.00     0.000 HD 
HETATM    4  C   UNL     1      -9.002  17.730  66.332  1.00  0.00    -0.252 A  
HETATM    5  C   UNL     1      -8.282  17.767  67.527  1.00  0.00    -0.225 A  
HETATM    6  C   UNL     1      -8.643  16.954  68.599  1.00  0.00    -0.267 A  
HETATM    7 CL   UNL     1      -6.938  18.829  67.679  1.00  0.00    -0.213 Cl 
HETATM    8  C   UNL     1      -9.745  16.105  68.489  1.00  0.00    -0.217 A  
HETATM    9  C   UNL     1     -10.520  16.108  67.321  1.00  0.00    -0.309 A  
ENDROOT
BRANCH   9  10
HETATM   10  O   UNL     1     -11.628  15.306  67.166  1.00  0.00    -0.265 OA 
BRANCH  10  11
HETATM   11  C   UNL     1     -11.493  13.930  67.140  1.00  0.00    -0.347 A  
HETATM   12  C   UNL     1     -11.799  13.224  68.311  1.00  0.00    -0.354 A  
HETATM   13  C   UNL     1     -11.619  11.837  68.377  1.00  0.00    -0.380 A  
HETATM   14 CL   UNL     1     -12.409  14.027  69.715  1.00  0.00    -0.380 Cl 
HETATM   15  C   UNL     1     -11.136  11.154  67.264  1.00  0.00    -0.302 A  
HETATM   16  C   UNL     1     -10.829  11.841  66.092  1.00  0.00    -0.336 A  
HETATM   17 CL   UNL     1     -10.891   9.453  67.346  1.00  0.00    -0.278 Cl 
HETATM   18  C   UNL     1     -10.988  13.230  66.036  1.00  0.00    -0.292 A  
ENDBRANCH  10  11
ENDBRANCH   9  10
TORSDOF 2
ENDMDL
MODEL       64
REMARK 921   NORMALIZED FREE ENERGY PREDICTED BY IDOCK:   -5.01 KCAL/MOL
REMARK 922        TOTAL FREE ENERGY PREDICTED BY IDOCK:   -5.89 KCAL/MOL
REMARK 923 INTER-LIGAND FREE ENERGY PREDICTED BY IDOCK:   -5.51 KCAL/MOL
REMARK 924 INTRA-LIGAND FREE ENERGY PREDICTED BY IDOCK:   -0.38 KCAL/MOL
REMARK 927      BINDING AFFINITY PREDICTED BY RF-SCORE:    0.00 PKD
ROOT
HETATM    1  O   UNL     1     -12.008  16.111  63.988  1.00  0.00    -1.196 OA 
HETATM    2  C   UNL     1     -11.491  15.071  64.711  1.00  0.00    -0.403 A  
HETATM    3  H   UNL     1     -12.047  16.979  64.374  1.00  0.00     0.000 HD 
HETATM    4  C   UNL     1     -11.434  13.797  64.144  1.00  0.00    -0.318 A  
HETATM    5  C   UNL     1     -10.908  12.741  64.889  1.00  0.00    -0.299 A  
HETATM    6  C   UNL     1     -10.479  12.942  66.199  1.00  0.00    -0.283 A  
HETATM    7 CL   UNL     1     -10.785  11.178  64.182  1.00  0.00    -0.441 Cl 
HETATM    8  C   UNL     1     -10.558  14.212  66.771  1.00  0.00    -0.277 A  
HETATM    9  C   UNL     1     -11.018  15.296  66.011  1.00  0.00    -0.317 A  
ENDROOT
BRANCH   9  10
HETATM   10  O   UNL     1     -11.097  16.574  66.519  1.00  0.00    -0.006 OA 
BRANCH  10  11
HETATM   11  C   UNL     1      -9.962  17.206  66.992  1.00  0.00    -0.287 A  
HETATM   12  C   UNL     1      -9.750  17.210  68.377  1.00  0.00    -0.284 A  
HETATM   13  C   UNL     1      -8.658  17.890  68.931  1.00  0.00    -0.122 A  
HETATM   14 CL   UNL     1     -10.816  16.381  69.455  1.00  0.00    -0.327 Cl 
HETATM   15  C   UNL     1      -7.773  18.563  68.093  1.00  0.00    -0.284 A  
HETATM   16  C   UNL     1      -7.969  18.567  66.714  1.00  0.00    -0.265 A  
HETATM   17 CL   UNL     1      -6.443  19.420  68.769  1.00  0.00    -0.283 Cl 
HETATM   18  C   UNL     1      -9.074  17.907  66.165  1.00  0.00    -0.121 A  
ENDBRANCH  10  11
ENDBRANCH   9  10
TORSDOF 2
ENDMDL
MODEL       65
REMARK 921   NORMALIZED FREE ENERGY PREDICTED BY IDOCK:   -5.00 KCAL/MOL
REMARK 922        TOTAL FREE ENERGY PREDICTED BY IDOCK:   -5.88 KCAL/MOL
REMARK 923 INTER-LIGAND FREE ENERGY PREDICTED BY IDOCK:   -5.71 KCAL/MOL
REMARK 924 INTRA-LIGAND FREE ENERGY PREDICTED BY IDOCK:   -0.17 KCAL/MOL
REMARK 927      BINDING AFFINITY PREDICTED BY RF-SCORE:    0.00 PKD
ROOT
HETATM    1  O   UNL     1     -12.068  10.480  68.558  1.00  0.00    -0.793 OA 
HETATM    2  C   UNL     1     -11.180  10.241  67.544  1.00  0.00    -0.117 A  
HETATM    3  H   UNL     1     -12.619  11.254  68.529  1.00  0.00     0.000 HD 
HETATM    4  C   UNL     1     -10.372   9.105  67.588  1.00  0.00    -0.314 A  
HETATM    5  C   UNL     1      -9.467   8.870  66.552  1.00  0.00    -0.211 A  
HETATM    6  C   UNL     1      -9.341   9.778  65.502  1.00  0.00    -0.299 A  
HETATM    7 CL   UNL     1      -8.503   7.447  66.569  1.00  0.00    -0.122 Cl 
HETATM    8  C   UNL     1     -10.135  10.924  65.473  1.00  0.00    -0.325 A  
HETATM    9  C   UNL     1     -11.097  11.137  66.469  1.00  0.00    -0.167 A  
ENDROOT
BRANCH   9  10
HETATM   10  O   UNL     1     -11.921  12.240  66.478  1.00  0.00    -0.596 OA 
BRANCH  10  11
HETATM   11  C   UNL     1     -11.383  13.511  66.386  1.00  0.00    -0.316 A  
HETATM   12  C   UNL     1     -11.463  14.334  67.517  1.00  0.00    -0.345 A  
HETATM   13  C   UNL     1     -11.001  15.655  67.474  1.00  0.00    -0.309 A  
HETATM   14 CL   UNL     1     -12.129  13.760  69.006  1.00  0.00    -0.385 Cl 
HETATM   15  C   UNL     1     -10.452  16.151  66.296  1.00  0.00    -0.315 A  
HETATM   16  C   UNL     1     -10.363  15.345  65.163  1.00  0.00    -0.405 A  
HETATM   17 CL   UNL     1      -9.903  17.780  66.228  1.00  0.00    -0.314 Cl 
HETATM   18  C   UNL     1     -10.847  14.033  65.202  1.00  0.00    -0.376 A  
ENDBRANCH  10  11
ENDBRANCH   9  10
TORSDOF 2
ENDMDL
MODEL       66
REMARK 921   NORMALIZED FREE ENERGY PREDICTED BY IDOCK:   -4.98 KCAL/MOL
REMARK 922        TOTAL FREE ENERGY PREDICTED BY IDOCK:   -5.87 KCAL/MOL
REMARK 923 INTER-LIGAND FREE ENERGY PREDICTED BY IDOCK:   -5.61 KCAL/MOL
REMARK 924 INTRA-LIGAND FREE ENERGY PREDICTED BY IDOCK:   -0.26 KCAL/MOL
REMARK 927      BINDING AFFINITY PREDICTED BY RF-SCORE:    0.00 PKD
ROOT
HETATM    1  O   UNL     1      -8.169  15.554  66.532  1.00  0.00    -0.299 OA 
HETATM    2  C   UNL     1      -8.607  16.703  67.134  1.00  0.00    -0.192 A  
HETATM    3  H   UNL     1      -8.801  14.937  66.181  1.00  0.00     0.000 HD 
HETATM    4  C   UNL     1      -7.679  17.608  67.650  1.00  0.00    -0.211 A  
HETATM    5  C   UNL     1      -8.134  18.776  68.264  1.00  0.00    -0.324 A  
HETATM    6  C   UNL     1      -9.499  19.021  68.399  1.00  0.00    -0.417 A  
HETATM    7 CL   UNL     1      -6.999  19.923  68.858  1.00  0.00    -0.363 Cl 
HETATM    8  C   UNL     1     -10.424  18.103  67.901  1.00  0.00    -0.408 A  
HETATM    9  C   UNL     1      -9.982  16.961  67.219  1.00  0.00    -0.277 A  
ENDROOT
BRANCH   9  10
HETATM   10  O   UNL     1     -10.852  16.033  66.690  1.00  0.00    -0.285 OA 
BRANCH  10  11
HETATM   11  C   UNL     1     -11.122  14.864  67.376  1.00  0.00    -0.325 A  
HETATM   12  C   UNL     1     -11.090  13.664  66.653  1.00  0.00    -0.306 A  
HETATM   13  C   UNL     1     -11.421  12.449  67.267  1.00  0.00    -0.421 A  
HETATM   14 CL   UNL     1     -10.644  13.628  64.983  1.00  0.00    -0.367 Cl 
HETATM   15  C   UNL     1     -11.778  12.437  68.613  1.00  0.00    -0.326 A  
HETATM   16  C   UNL     1     -11.812  13.621  69.346  1.00  0.00    -0.392 A  
HETATM   17 CL   UNL     1     -12.208  10.952  69.368  1.00  0.00    -0.368 Cl 
HETATM   18  C   UNL     1     -11.505  14.835  68.724  1.00  0.00    -0.324 A  
ENDBRANCH  10  11
ENDBRANCH   9  10
TORSDOF 2
ENDMDL
MODEL       67
REMARK 921   NORMALIZED FREE ENERGY PREDICTED BY IDOCK:   -4.98 KCAL/MOL
REMARK 922        TOTAL FREE ENERGY PREDICTED BY IDOCK:   -5.86 KCAL/MOL
REMARK 923 INTER-LIGAND FREE ENERGY PREDICTED BY IDOCK:   -5.50 KCAL/MOL
REMARK 924 INTRA-LIGAND FREE ENERGY PREDICTED BY IDOCK:   -0.36 KCAL/MOL
REMARK 927      BINDING AFFINITY PREDICTED BY RF-SCORE:    0.00 PKD
ROOT
HETATM    1  O   UNL     1     -10.908  18.981  67.055  1.00  0.00    -0.445 OA 
HETATM    2  C   UNL     1      -9.627  18.634  66.719  1.00  0.00    -0.318 A  
HETATM    3  H   UNL     1     -11.541  18.303  67.259  1.00  0.00     0.000 HD 
HETATM    4  C   UNL     1      -8.698  19.631  66.420  1.00  0.00    -0.404 A  
HETATM    5  C   UNL     1      -7.394  19.269  66.077  1.00  0.00    -0.279 A  
HETATM    6  C   UNL     1      -7.030  17.926  65.994  1.00  0.00    -0.346 A  
HETATM    7 CL   UNL     1      -6.227  20.489  65.756  1.00  0.00    -0.251 Cl 
HETATM    8  C   UNL     1      -7.968  16.931  66.273  1.00  0.00    -0.350 A  
HETATM    9  C   UNL     1      -9.260  17.281  66.688  1.00  0.00    -0.257 A  
ENDROOT
BRANCH   9  10
HETATM   10  O   UNL     1     -10.218  16.341  66.995  1.00  0.00    -0.269 OA 
BRANCH  10  11
HETATM   11  C   UNL     1     -10.182  15.093  66.402  1.00  0.00    -0.281 A  
HETATM   12  C   UNL     1     -10.787  14.951  65.146  1.00  0.00    -0.414 A  
HETATM   13  C   UNL     1     -10.849  13.701  64.518  1.00  0.00    -0.416 A  
HETATM   14 CL   UNL     1     -11.478  16.304  64.320  1.00  0.00    -0.267 Cl 
HETATM   15  C   UNL     1     -10.297  12.590  65.149  1.00  0.00    -0.289 A  
HETATM   16  C   UNL     1      -9.690  12.714  66.397  1.00  0.00    -0.259 A  
HETATM   17 CL   UNL     1     -10.389  11.046  64.394  1.00  0.00    -0.401 Cl 
HETATM   18  C   UNL     1      -9.651  13.959  67.032  1.00  0.00    -0.254 A  
ENDBRANCH  10  11
ENDBRANCH   9  10
TORSDOF 2
ENDMDL
MODEL       68
REMARK 921   NORMALIZED FREE ENERGY PREDICTED BY IDOCK:   -4.97 KCAL/MOL
REMARK 922        TOTAL FREE ENERGY PREDICTED BY IDOCK:   -5.85 KCAL/MOL
REMARK 923 INTER-LIGAND FREE ENERGY PREDICTED BY IDOCK:   -5.52 KCAL/MOL
REMARK 924 INTRA-LIGAND FREE ENERGY PREDICTED BY IDOCK:   -0.33 KCAL/MOL
REMARK 927      BINDING AFFINITY PREDICTED BY RF-SCORE:    0.00 PKD
ROOT
HETATM    1  O   UNL     1     -11.318  12.897  65.006  1.00  0.00    -0.294 OA 
HETATM    2  C   UNL     1     -11.325  12.224  66.198  1.00  0.00    -0.353 A  
HETATM    3  H   UNL     1     -11.619  13.797  64.973  1.00  0.00     0.000 HD 
HETATM    4  C   UNL     1     -10.882  10.902  66.246  1.00  0.00    -0.191 A  
HETATM    5  C   UNL     1     -10.895  10.221  67.465  1.00  0.00    -0.298 A  
HETATM    6  C   UNL     1     -11.381  10.839  68.616  1.00  0.00    -0.356 A  
HETATM    7 CL   UNL     1     -10.304   8.609  67.548  1.00  0.00    -0.316 Cl 
HETATM    8  C   UNL     1     -11.843  12.154  68.560  1.00  0.00    -0.365 A  
HETATM    9  C   UNL     1     -11.770  12.872  67.359  1.00  0.00    -0.372 A  
ENDROOT
BRANCH   9  10
HETATM   10  O   UNL     1     -12.194  14.178  67.251  1.00  0.00    -0.402 OA 
BRANCH  10  11
HETATM   11  C   UNL     1     -11.320  15.216  67.515  1.00  0.00    -0.320 A  
HETATM   12  C   UNL     1     -11.377  15.807  68.785  1.00  0.00    -0.362 A  
HETATM   13  C   UNL     1     -10.570  16.908  69.098  1.00  0.00    -0.330 A  
HETATM   14 CL   UNL     1     -12.437  15.208  70.012  1.00  0.00    -0.342 Cl 
HETATM   15  C   UNL     1      -9.697  17.413  68.139  1.00  0.00    -0.291 A  
HETATM   16  C   UNL     1      -9.627  16.836  66.873  1.00  0.00    -0.253 A  
HETATM   17 CL   UNL     1      -8.719  18.779  68.509  1.00  0.00    -0.371 Cl 
HETATM   18  C   UNL     1     -10.452  15.752  66.555  1.00  0.00    -0.304 A  
ENDBRANCH  10  11
ENDBRANCH   9  10
TORSDOF 2
ENDMDL
MODEL       69
REMARK 921   NORMALIZED FREE ENERGY PREDICTED BY IDOCK:   -4.95 KCAL/MOL
REMARK 922        TOTAL FREE ENERGY PREDICTED BY IDOCK:   -5.83 KCAL/MOL
REMARK 923 INTER-LIGAND FREE ENERGY PREDICTED BY IDOCK:   -5.69 KCAL/MOL
REMARK 924 INTRA-LIGAND FREE ENERGY PREDICTED BY IDOCK:   -0.13 KCAL/MOL
REMARK 927      BINDING AFFINITY PREDICTED BY RF-SCORE:    0.00 PKD
ROOT
HETATM    1  O   UNL     1     -14.292   6.966  71.968  1.00  0.00    -0.581 OA 
HETATM    2  C   UNL     1     -13.394   7.960  71.688  1.00  0.00    -0.337 A  
HETATM    3  H   UNL     1     -14.043   6.057  71.840  1.00  0.00     0.000 HD 
HETATM    4  C   UNL     1     -13.760   9.293  71.875  1.00  0.00    -0.464 A  
HETATM    5  C   UNL     1     -12.839  10.301  71.585  1.00  0.00    -0.463 A  
HETATM    6  C   UNL     1     -11.581   9.987  71.075  1.00  0.00    -0.476 A  
HETATM    7 CL   UNL     1     -13.260  11.945  71.861  1.00  0.00    -0.554 Cl 
HETATM    8  C   UNL     1     -11.226   8.654  70.868  1.00  0.00    -0.311 A  
HETATM    9  C   UNL     1     -12.114   7.628  71.222  1.00  0.00    -0.314 A  
ENDROOT
BRANCH   9  10
HETATM   10  O   UNL     1     -11.807   6.296  71.058  1.00  0.00    -0.305 OA 
BRANCH  10  11
HETATM   11  C   UNL     1     -11.064   5.882  69.968  1.00  0.00    -0.341 A  
HETATM   12  C   UNL     1     -10.021   4.976  70.199  1.00  0.00    -0.258 A  
HETATM   13  C   UNL     1      -9.183   4.567  69.153  1.00  0.00    -0.194 A  
HETATM   14 CL   UNL     1      -9.723   4.325  71.773  1.00  0.00    -0.225 Cl 
HETATM   15  C   UNL     1      -9.397   5.064  67.871  1.00  0.00    -0.124 A  
HETATM   16  C   UNL     1     -10.431   5.964  67.624  1.00  0.00    -0.301 A  
HETATM   17 CL   UNL     1      -8.358   4.584  66.585  1.00  0.00    -0.106 Cl 
HETATM   18  C   UNL     1     -11.251   6.388  68.675  1.00  0.00    -0.338 A  
ENDBRANCH  10  11
ENDBRANCH   9  10
TORSDOF 2
ENDMDL
MODEL       70
REMARK 921   NORMALIZED FREE ENERGY PREDICTED BY IDOCK:   -4.95 KCAL/MOL
REMARK 922        TOTAL FREE ENERGY PREDICTED BY IDOCK:   -5.83 KCAL/MOL
REMARK 923 INTER-LIGAND FREE ENERGY PREDICTED BY IDOCK:   -5.41 KCAL/MOL
REMARK 924 INTRA-LIGAND FREE ENERGY PREDICTED BY IDOCK:   -0.41 KCAL/MOL
REMARK 927      BINDING AFFINITY PREDICTED BY RF-SCORE:    0.00 PKD
ROOT
HETATM    1  O   UNL     1     -11.617  14.777  65.181  1.00  0.00    -0.354 OA 
HETATM    2  C   UNL     1     -11.507  14.584  66.531  1.00  0.00    -0.362 A  
HETATM    3  H   UNL     1     -11.423  15.630  64.810  1.00  0.00     0.000 HD 
HETATM    4  C   UNL     1     -11.792  13.330  67.074  1.00  0.00    -0.442 A  
HETATM    5  C   UNL     1     -11.680  13.142  68.453  1.00  0.00    -0.351 A  
HETATM    6  C   UNL     1     -11.328  14.202  69.287  1.00  0.00    -0.324 A  
HETATM    7 CL   UNL     1     -11.978  11.589  69.128  1.00  0.00    -0.389 Cl 
HETATM    8  C   UNL     1     -11.065  15.459  68.742  1.00  0.00    -0.284 A  
HETATM    9  C   UNL     1     -11.104  15.645  67.354  1.00  0.00    -0.260 A  
ENDROOT
BRANCH   9  10
HETATM   10  O   UNL     1     -10.835  16.859  66.762  1.00  0.00    -0.166 OA 
BRANCH  10  11
HETATM   11  C   UNL     1      -9.531  17.304  66.651  1.00  0.00    -0.265 A  
HETATM   12  C   UNL     1      -9.311  18.688  66.684  1.00  0.00    -0.315 A  
HETATM   13  C   UNL     1      -8.025  19.213  66.509  1.00  0.00    -0.296 A  
HETATM   14 CL   UNL     1     -10.609  19.801  66.942  1.00  0.00    -0.593 Cl 
HETATM   15  C   UNL     1      -6.954  18.347  66.306  1.00  0.00    -0.243 A  
HETATM   16  C   UNL     1      -7.155  16.969  66.273  1.00  0.00    -0.236 A  
HETATM   17 CL   UNL     1      -5.374  18.985  66.066  1.00  0.00    -0.171 Cl 
HETATM   18  C   UNL     1      -8.444  16.449  66.425  1.00  0.00    -0.364 A  
ENDBRANCH  10  11
ENDBRANCH   9  10
TORSDOF 2
ENDMDL
MODEL       71
REMARK 921   NORMALIZED FREE ENERGY PREDICTED BY IDOCK:   -4.95 KCAL/MOL
REMARK 922        TOTAL FREE ENERGY PREDICTED BY IDOCK:   -5.83 KCAL/MOL
REMARK 923 INTER-LIGAND FREE ENERGY PREDICTED BY IDOCK:   -5.58 KCAL/MOL
REMARK 924 INTRA-LIGAND FREE ENERGY PREDICTED BY IDOCK:   -0.24 KCAL/MOL
REMARK 927      BINDING AFFINITY PREDICTED BY RF-SCORE:    0.00 PKD
ROOT
HETATM    1  O   UNL     1     -12.263   6.802  69.804  1.00  0.00    -0.610 OA 
HETATM    2  C   UNL     1     -11.225   7.306  70.540  1.00  0.00    -0.279 A  
HETATM    3  H   UNL     1     -12.862   7.397  69.367  1.00  0.00     0.000 HD 
HETATM    4  C   UNL     1     -10.346   6.432  71.181  1.00  0.00    -0.244 A  
HETATM    5  C   UNL     1      -9.291   6.953  71.932  1.00  0.00    -0.141 A  
HETATM    6  C   UNL     1      -9.137   8.330  72.077  1.00  0.00    -0.267 A  
HETATM    7 CL   UNL     1      -8.171   5.886  72.683  1.00  0.00    -0.112 Cl 
HETATM    8  C   UNL     1     -10.031   9.201  71.453  1.00  0.00    -0.373 A  
HETATM    9  C   UNL     1     -11.052   8.693  70.638  1.00  0.00    -0.249 A  
ENDROOT
BRANCH   9  10
HETATM   10  O   UNL     1     -11.949   9.508  69.983  1.00  0.00    -0.019 OA 
BRANCH  10  11
HETATM   11  C   UNL     1     -12.225  10.771  70.471  1.00  0.00    -0.366 A  
HETATM   12  C   UNL     1     -13.045  10.866  71.604  1.00  0.00    -0.433 A  
HETATM   13  C   UNL     1     -13.422  12.116  72.111  1.00  0.00    -0.383 A  
HETATM   14 CL   UNL     1     -13.621   9.456  72.421  1.00  0.00    -0.520 Cl 
HETATM   15  C   UNL     1     -12.972  13.274  71.485  1.00  0.00    -0.337 A  
HETATM   16  C   UNL     1     -12.155  13.197  70.359  1.00  0.00    -0.392 A  
HETATM   17 CL   UNL     1     -13.450  14.813  72.088  1.00  0.00    -0.442 Cl 
HETATM   18  C   UNL     1     -11.799  11.948  69.840  1.00  0.00    -0.418 A  
ENDBRANCH  10  11
ENDBRANCH   9  10
TORSDOF 2
ENDMDL
MODEL       72
REMARK 921   NORMALIZED FREE ENERGY PREDICTED BY IDOCK:   -4.93 KCAL/MOL
REMARK 922        TOTAL FREE ENERGY PREDICTED BY IDOCK:   -5.81 KCAL/MOL
REMARK 923 INTER-LIGAND FREE ENERGY PREDICTED BY IDOCK:   -5.47 KCAL/MOL
REMARK 924 INTRA-LIGAND FREE ENERGY PREDICTED BY IDOCK:   -0.34 KCAL/MOL
REMARK 927      BINDING AFFINITY PREDICTED BY RF-SCORE:    0.00 PKD
ROOT
HETATM    1  O   UNL     1      -7.931  15.301  66.366  1.00  0.00    -0.286 OA 
HETATM    2  C   UNL     1      -8.781  16.195  66.959  1.00  0.00    -0.202 A  
HETATM    3  H   UNL     1      -8.120  14.370  66.414  1.00  0.00     0.000 HD 
HETATM    4  C   UNL     1      -8.503  17.561  66.888  1.00  0.00    -0.261 A  
HETATM    5  C   UNL     1      -9.373  18.467  67.497  1.00  0.00    -0.265 A  
HETATM    6  C   UNL     1     -10.486  18.015  68.203  1.00  0.00    -0.373 A  
HETATM    7 CL   UNL     1      -9.070  20.154  67.373  1.00  0.00    -0.451 Cl 
HETATM    8  C   UNL     1     -10.749  16.648  68.290  1.00  0.00    -0.351 A  
HETATM    9  C   UNL     1      -9.924  15.731  67.624  1.00  0.00    -0.239 A  
ENDROOT
BRANCH   9  10
HETATM   10  O   UNL     1     -10.148  14.373  67.660  1.00  0.00    -0.220 OA 
BRANCH  10  11
HETATM   11  C   UNL     1     -10.885  13.763  66.661  1.00  0.00    -0.288 A  
HETATM   12  C   UNL     1     -10.361  12.597  66.086  1.00  0.00    -0.256 A  
HETATM   13  C   UNL     1     -11.019  11.966  65.024  1.00  0.00    -0.365 A  
HETATM   14 CL   UNL     1      -8.890  11.891  66.659  1.00  0.00    -0.193 Cl 
HETATM   15  C   UNL     1     -12.209  12.500  64.540  1.00  0.00    -0.453 A  
HETATM   16  C   UNL     1     -12.745  13.657  65.102  1.00  0.00    -0.443 A  
HETATM   17 CL   UNL     1     -13.012  11.743  63.220  1.00  0.00    -0.396 Cl 
HETATM   18  C   UNL     1     -12.073  14.299  66.148  1.00  0.00    -0.424 A  
ENDBRANCH  10  11
ENDBRANCH   9  10
TORSDOF 2
ENDMDL
MODEL       73
REMARK 921   NORMALIZED FREE ENERGY PREDICTED BY IDOCK:   -4.92 KCAL/MOL
REMARK 922        TOTAL FREE ENERGY PREDICTED BY IDOCK:   -5.80 KCAL/MOL
REMARK 923 INTER-LIGAND FREE ENERGY PREDICTED BY IDOCK:   -5.44 KCAL/MOL
REMARK 924 INTRA-LIGAND FREE ENERGY PREDICTED BY IDOCK:   -0.36 KCAL/MOL
REMARK 927      BINDING AFFINITY PREDICTED BY RF-SCORE:    0.00 PKD
ROOT
HETATM    1  O   UNL     1     -11.471   6.931  69.155  1.00  0.00    -0.539 OA 
HETATM    2  C   UNL     1     -10.730   7.330  70.235  1.00  0.00    -0.236 A  
HETATM    3  H   UNL     1     -12.292   7.368  68.962  1.00  0.00     0.000 HD 
HETATM    4  C   UNL     1      -9.524   6.688  70.519  1.00  0.00    -0.171 A  
HETATM    5  C   UNL     1      -8.776   7.098  71.623  1.00  0.00    -0.118 A  
HETATM    6  C   UNL     1      -9.243   8.111  72.459  1.00  0.00    -0.319 A  
HETATM    7 CL   UNL     1      -7.263   6.350  71.953  1.00  0.00    -0.085 Cl 
HETATM    8  C   UNL     1     -10.460   8.735  72.185  1.00  0.00    -0.384 A  
HETATM    9  C   UNL     1     -11.187   8.382  71.040  1.00  0.00    -0.266 A  
ENDROOT
BRANCH   9  10
HETATM   10  O   UNL     1     -12.383   8.980  70.711  1.00  0.00    -0.180 OA 
BRANCH  10  11
HETATM   11  C   UNL     1     -12.525  10.352  70.808  1.00  0.00    -0.368 A  
HETATM   12  C   UNL     1     -11.971  11.137  69.788  1.00  0.00    -0.357 A  
HETATM   13  C   UNL     1     -12.017  12.534  69.856  1.00  0.00    -0.371 A  
HETATM   14 CL   UNL     1     -11.212  10.420  68.410  1.00  0.00    -0.327 Cl 
HETATM   15  C   UNL     1     -12.626  13.148  70.947  1.00  0.00    -0.295 A  
HETATM   16  C   UNL     1     -13.184  12.382  71.968  1.00  0.00    -0.514 A  
HETATM   17 CL   UNL     1     -12.666  14.865  71.049  1.00  0.00    -0.382 Cl 
HETATM   18  C   UNL     1     -13.116  10.986  71.909  1.00  0.00    -0.525 A  
ENDBRANCH  10  11
ENDBRANCH   9  10
TORSDOF 2
ENDMDL
MODEL       74
REMARK 921   NORMALIZED FREE ENERGY PREDICTED BY IDOCK:   -4.92 KCAL/MOL
REMARK 922        TOTAL FREE ENERGY PREDICTED BY IDOCK:   -5.80 KCAL/MOL
REMARK 923 INTER-LIGAND FREE ENERGY PREDICTED BY IDOCK:   -5.49 KCAL/MOL
REMARK 924 INTRA-LIGAND FREE ENERGY PREDICTED BY IDOCK:   -0.30 KCAL/MOL
REMARK 927      BINDING AFFINITY PREDICTED BY RF-SCORE:    0.00 PKD
ROOT
HETATM    1  O   UNL     1      -8.638  13.234  68.785  1.00  0.00    -0.359 OA 
HETATM    2  C   UNL     1      -9.591  13.105  67.810  1.00  0.00    -0.208 A  
HETATM    3  H   UNL     1      -8.448  12.498  69.356  1.00  0.00     0.000 HD 
HETATM    4  C   UNL     1      -9.869  14.185  66.971  1.00  0.00    -0.258 A  
HETATM    5  C   UNL     1     -10.844  14.047  65.981  1.00  0.00    -0.295 A  
HETATM    6  C   UNL     1     -11.561  12.859  65.854  1.00  0.00    -0.423 A  
HETATM    7 CL   UNL     1     -11.160  15.353  64.909  1.00  0.00    -0.433 Cl 
HETATM    8  C   UNL     1     -11.294  11.789  66.708  1.00  0.00    -0.385 A  
HETATM    9  C   UNL     1     -10.270  11.888  67.660  1.00  0.00    -0.201 A  
ENDROOT
BRANCH   9  10
HETATM   10  O   UNL     1      -9.952  10.857  68.515  1.00  0.00    -0.168 OA 
BRANCH  10  11
HETATM   11  C   UNL     1     -10.823  10.498  69.526  1.00  0.00    -0.256 A  
HETATM   12  C   UNL     1     -10.783   9.172  69.979  1.00  0.00    -0.232 A  
HETATM   13  C   UNL     1     -11.684   8.721  70.952  1.00  0.00    -0.299 A  
HETATM   14 CL   UNL     1      -9.629   8.043  69.361  1.00  0.00    -0.160 Cl 
HETATM   15  C   UNL     1     -12.623   9.603  71.478  1.00  0.00    -0.391 A  
HETATM   16  C   UNL     1     -12.674  10.925  71.041  1.00  0.00    -0.505 A  
HETATM   17 CL   UNL     1     -13.747   9.050  72.658  1.00  0.00    -0.481 Cl 
HETATM   18  C   UNL     1     -11.789  11.367  70.051  1.00  0.00    -0.440 A  
ENDBRANCH  10  11
ENDBRANCH   9  10
TORSDOF 2
ENDMDL
MODEL       75
REMARK 921   NORMALIZED FREE ENERGY PREDICTED BY IDOCK:   -4.89 KCAL/MOL
REMARK 922        TOTAL FREE ENERGY PREDICTED BY IDOCK:   -5.76 KCAL/MOL
REMARK 923 INTER-LIGAND FREE ENERGY PREDICTED BY IDOCK:   -5.25 KCAL/MOL
REMARK 924 INTRA-LIGAND FREE ENERGY PREDICTED BY IDOCK:   -0.51 KCAL/MOL
REMARK 927      BINDING AFFINITY PREDICTED BY RF-SCORE:    0.00 PKD
ROOT
HETATM    1  O   UNL     1     -10.744  18.170  68.636  1.00  0.00    -0.320 OA 
HETATM    2  C   UNL     1      -9.565  17.474  68.603  1.00  0.00    -0.303 A  
HETATM    3  H   UNL     1     -11.568  17.700  68.584  1.00  0.00     0.000 HD 
HETATM    4  C   UNL     1      -8.355  18.163  68.679  1.00  0.00    -0.289 A  
HETATM    5  C   UNL     1      -7.158  17.447  68.642  1.00  0.00    -0.237 A  
HETATM    6  C   UNL     1      -7.165  16.062  68.491  1.00  0.00    -0.138 A  
HETATM    7 CL   UNL     1      -5.661  18.280  68.788  1.00  0.00    -0.188 Cl 
HETATM    8  C   UNL     1      -8.377  15.378  68.393  1.00  0.00    -0.147 A  
HETATM    9  C   UNL     1      -9.587  16.076  68.500  1.00  0.00    -0.215 A  
ENDROOT
BRANCH   9  10
HETATM   10  O   UNL     1     -10.811  15.449  68.430  1.00  0.00    -0.250 OA 
BRANCH  10  11
HETATM   11  C   UNL     1     -11.181  14.770  67.283  1.00  0.00    -0.346 A  
HETATM   12  C   UNL     1     -11.537  13.421  67.413  1.00  0.00    -0.354 A  
HETATM   13  C   UNL     1     -11.856  12.654  66.286  1.00  0.00    -0.471 A  
HETATM   14 CL   UNL     1     -11.601  12.649  68.959  1.00  0.00    -0.344 Cl 
HETATM   15  C   UNL     1     -11.823  13.243  65.025  1.00  0.00    -0.352 A  
HETATM   16  C   UNL     1     -11.473  14.583  64.879  1.00  0.00    -0.396 A  
HETATM   17 CL   UNL     1     -12.191  12.301  63.632  1.00  0.00    -0.619 Cl 
HETATM   18  C   UNL     1     -11.132  15.341  66.005  1.00  0.00    -0.278 A  
ENDBRANCH  10  11
ENDBRANCH   9  10
TORSDOF 2
ENDMDL
MODEL       76
REMARK 921   NORMALIZED FREE ENERGY PREDICTED BY IDOCK:   -4.88 KCAL/MOL
REMARK 922        TOTAL FREE ENERGY PREDICTED BY IDOCK:   -5.75 KCAL/MOL
REMARK 923 INTER-LIGAND FREE ENERGY PREDICTED BY IDOCK:   -5.41 KCAL/MOL
REMARK 924 INTRA-LIGAND FREE ENERGY PREDICTED BY IDOCK:   -0.34 KCAL/MOL
REMARK 927      BINDING AFFINITY PREDICTED BY RF-SCORE:    0.00 PKD
ROOT
HETATM    1  O   UNL     1     -11.096  13.523  69.471  1.00  0.00    -0.417 OA 
HETATM    2  C   UNL     1     -11.281  13.573  68.116  1.00  0.00    -0.272 A  
HETATM    3  H   UNL     1     -11.301  12.725  69.945  1.00  0.00     0.000 HD 
HETATM    4  C   UNL     1     -10.981  14.745  67.421  1.00  0.00    -0.313 A  
HETATM    5  C   UNL     1     -11.174  14.788  66.039  1.00  0.00    -0.341 A  
HETATM    6  C   UNL     1     -11.699  13.689  65.363  1.00  0.00    -0.347 A  
HETATM    7 CL   UNL     1     -10.759  16.208  65.165  1.00  0.00    -0.429 Cl 
HETATM    8  C   UNL     1     -12.019  12.526  66.064  1.00  0.00    -0.456 A  
HETATM    9  C   UNL     1     -11.764  12.444  67.440  1.00  0.00    -0.347 A  
ENDROOT
BRANCH   9  10
HETATM   10  O   UNL     1     -12.041  11.314  68.177  1.00  0.00    -0.635 OA 
BRANCH  10  11
HETATM   11  C   UNL     1     -11.066  10.354  68.373  1.00  0.00    -0.268 A  
HETATM   12  C   UNL     1     -10.863   9.890  69.679  1.00  0.00    -0.253 A  
HETATM   13  C   UNL     1      -9.846   8.970  69.962  1.00  0.00    -0.203 A  
HETATM   14 CL   UNL     1     -11.852  10.428  70.991  1.00  0.00    -0.454 Cl 
HETATM   15  C   UNL     1      -9.034   8.508  68.930  1.00  0.00    -0.146 A  
HETATM   16  C   UNL     1      -9.224   8.958  67.625  1.00  0.00    -0.151 A  
HETATM   17 CL   UNL     1      -7.768   7.394  69.274  1.00  0.00    -0.104 Cl 
HETATM   18  C   UNL     1     -10.225   9.895  67.350  1.00  0.00    -0.275 A  
ENDBRANCH  10  11
ENDBRANCH   9  10
TORSDOF 2
ENDMDL
MODEL       77
REMARK 921   NORMALIZED FREE ENERGY PREDICTED BY IDOCK:   -4.87 KCAL/MOL
REMARK 922        TOTAL FREE ENERGY PREDICTED BY IDOCK:   -5.74 KCAL/MOL
REMARK 923 INTER-LIGAND FREE ENERGY PREDICTED BY IDOCK:   -5.21 KCAL/MOL
REMARK 924 INTRA-LIGAND FREE ENERGY PREDICTED BY IDOCK:   -0.52 KCAL/MOL
REMARK 927      BINDING AFFINITY PREDICTED BY RF-SCORE:    0.00 PKD
ROOT
HETATM    1  O   UNL     1     -11.544  14.672  64.164  1.00  0.00    -0.628 OA 
HETATM    2  C   UNL     1     -10.858  15.452  65.056  1.00  0.00    -0.444 A  
HETATM    3  H   UNL     1     -11.436  13.728  64.185  1.00  0.00     0.000 HD 
HETATM    4  C   UNL     1     -11.017  16.837  65.024  1.00  0.00    -0.118 A  
HETATM    5  C   UNL     1     -10.313  17.626  65.936  1.00  0.00    -0.257 A  
HETATM    6  C   UNL     1      -9.430  17.044  66.843  1.00  0.00    -0.266 A  
HETATM    7 CL   UNL     1     -10.540  19.330  65.941  1.00  0.00    -0.560 Cl 
HETATM    8  C   UNL     1      -9.258  15.660  66.857  1.00  0.00    -0.257 A  
HETATM    9  C   UNL     1     -10.010  14.850  65.996  1.00  0.00    -0.313 A  
ENDROOT
BRANCH   9  10
HETATM   10  O   UNL     1      -9.895  13.478  65.982  1.00  0.00    -0.288 OA 
BRANCH  10  11
HETATM   11  C   UNL     1     -10.320  12.733  67.066  1.00  0.00    -0.234 A  
HETATM   12  C   UNL     1      -9.379  11.908  67.698  1.00  0.00    -0.183 A  
HETATM   13  C   UNL     1      -9.755  11.075  68.758  1.00  0.00    -0.199 A  
HETATM   14 CL   UNL     1      -7.723  11.885  67.201  1.00  0.00    -0.159 Cl 
HETATM   15  C   UNL     1     -11.078  11.072  69.191  1.00  0.00    -0.243 A  
HETATM   16  C   UNL     1     -12.025  11.887  68.575  1.00  0.00    -0.273 A  
HETATM   17 CL   UNL     1     -11.553  10.034  70.478  1.00  0.00    -0.373 Cl 
HETATM   18  C   UNL     1     -11.651  12.701  67.501  1.00  0.00    -0.418 A  
ENDBRANCH  10  11
ENDBRANCH   9  10
TORSDOF 2
ENDMDL
MODEL       78
REMARK 921   NORMALIZED FREE ENERGY PREDICTED BY IDOCK:   -4.85 KCAL/MOL
REMARK 922        TOTAL FREE ENERGY PREDICTED BY IDOCK:   -5.72 KCAL/MOL
REMARK 923 INTER-LIGAND FREE ENERGY PREDICTED BY IDOCK:   -5.19 KCAL/MOL
REMARK 924 INTRA-LIGAND FREE ENERGY PREDICTED BY IDOCK:   -0.53 KCAL/MOL
REMARK 927      BINDING AFFINITY PREDICTED BY RF-SCORE:    0.00 PKD
ROOT
HETATM    1  O   UNL     1     -11.781   9.439  69.740  1.00  0.00    -0.443 OA 
HETATM    2  C   UNL     1     -10.815   9.486  68.771  1.00  0.00    -0.142 A  
HETATM    3  H   UNL     1     -12.507  10.050  69.710  1.00  0.00     0.000 HD 
HETATM    4  C   UNL     1      -9.748   8.588  68.816  1.00  0.00    -0.168 A  
HETATM    5  C   UNL     1      -8.766   8.645  67.825  1.00  0.00    -0.137 A  
HETATM    6  C   UNL     1      -8.825   9.611  66.823  1.00  0.00    -0.148 A  
HETATM    7 CL   UNL     1      -7.474   7.511  67.840  1.00  0.00    -0.102 Cl 
HETATM    8  C   UNL     1      -9.882  10.521  66.794  1.00  0.00    -0.237 A  
HETATM    9  C   UNL     1     -10.912  10.432  67.740  1.00  0.00    -0.309 A  
ENDROOT
BRANCH   9  10
HETATM   10  O   UNL     1     -11.988  11.291  67.746  1.00  0.00    -0.637 OA 
BRANCH  10  11
HETATM   11  C   UNL     1     -11.797  12.643  67.958  1.00  0.00    -0.323 A  
HETATM   12  C   UNL     1     -11.910  13.497  66.853  1.00  0.00    -0.407 A  
HETATM   13  C   UNL     1     -11.662  14.869  66.981  1.00  0.00    -0.274 A  
HETATM   14 CL   UNL     1     -12.359  12.900  65.294  1.00  0.00    -0.520 Cl 
HETATM   15  C   UNL     1     -11.305  15.389  68.222  1.00  0.00    -0.348 A  
HETATM   16  C   UNL     1     -11.191  14.553  69.332  1.00  0.00    -0.312 A  
HETATM   17 CL   UNL     1     -10.976  17.070  68.382  1.00  0.00    -0.324 Cl 
HETATM   18  C   UNL     1     -11.416  13.179  69.196  1.00  0.00    -0.358 A  
ENDBRANCH  10  11
ENDBRANCH   9  10
TORSDOF 2
ENDMDL
MODEL       79
REMARK 921   NORMALIZED FREE ENERGY PREDICTED BY IDOCK:   -4.85 KCAL/MOL
REMARK 922        TOTAL FREE ENERGY PREDICTED BY IDOCK:   -5.72 KCAL/MOL
REMARK 923 INTER-LIGAND FREE ENERGY PREDICTED BY IDOCK:   -5.30 KCAL/MOL
REMARK 924 INTRA-LIGAND FREE ENERGY PREDICTED BY IDOCK:   -0.42 KCAL/MOL
REMARK 927      BINDING AFFINITY PREDICTED BY RF-SCORE:    0.00 PKD
ROOT
HETATM    1  O   UNL     1     -14.326   7.058  72.088  1.00  0.00    -0.613 OA 
HETATM    2  C   UNL     1     -13.446   8.046  71.738  1.00  0.00    -0.341 A  
HETATM    3  H   UNL     1     -14.125   6.153  71.879  1.00  0.00     0.000 HD 
HETATM    4  C   UNL     1     -13.742   9.374  72.044  1.00  0.00    -0.466 A  
HETATM    5  C   UNL     1     -12.840  10.376  71.682  1.00  0.00    -0.474 A  
HETATM    6  C   UNL     1     -11.675  10.063  70.986  1.00  0.00    -0.479 A  
HETATM    7 CL   UNL     1     -13.169  12.011  72.100  1.00  0.00    -0.542 Cl 
HETATM    8  C   UNL     1     -11.392   8.735  70.662  1.00  0.00    -0.289 A  
HETATM    9  C   UNL     1     -12.253   7.712  71.081  1.00  0.00    -0.285 A  
ENDROOT
BRANCH   9  10
HETATM   10  O   UNL     1     -12.013   6.384  70.806  1.00  0.00    -0.338 OA 
BRANCH  10  11
HETATM   11  C   UNL     1     -10.718   5.901  70.789  1.00  0.00    -0.277 A  
HETATM   12  C   UNL     1     -10.133   5.652  69.540  1.00  0.00    -0.225 A  
HETATM   13  C   UNL     1      -8.851   5.097  69.448  1.00  0.00    -0.119 A  
HETATM   14 CL   UNL     1     -10.962   6.016  68.068  1.00  0.00    -0.378 Cl 
HETATM   15  C   UNL     1      -8.149   4.798  70.613  1.00  0.00    -0.081 A  
HETATM   16  C   UNL     1      -8.714   5.042  71.862  1.00  0.00    -0.136 A  
HETATM   17 CL   UNL     1      -6.581   4.095  70.508  1.00  0.00    -0.031 Cl 
HETATM   18  C   UNL     1     -10.005   5.574  71.951  1.00  0.00    -0.227 A  
ENDBRANCH  10  11
ENDBRANCH   9  10
TORSDOF 2
ENDMDL
MODEL       80
REMARK 921   NORMALIZED FREE ENERGY PREDICTED BY IDOCK:   -4.83 KCAL/MOL
REMARK 922        TOTAL FREE ENERGY PREDICTED BY IDOCK:   -5.69 KCAL/MOL
REMARK 923 INTER-LIGAND FREE ENERGY PREDICTED BY IDOCK:   -5.88 KCAL/MOL
REMARK 924 INTRA-LIGAND FREE ENERGY PREDICTED BY IDOCK:    0.18 KCAL/MOL
REMARK 927      BINDING AFFINITY PREDICTED BY RF-SCORE:    0.00 PKD
ROOT
HETATM    1  O   UNL     1     -12.363  14.458  69.125  1.00  0.00    -0.524 OA 
HETATM    2  C   UNL     1     -12.028  13.558  68.149  1.00  0.00    -0.341 A  
HETATM    3  H   UNL     1     -12.355  14.187  70.036  1.00  0.00     0.000 HD 
HETATM    4  C   UNL     1     -12.041  13.955  66.811  1.00  0.00    -0.476 A  
HETATM    5  C   UNL     1     -11.700  13.032  65.822  1.00  0.00    -0.382 A  
HETATM    6  C   UNL     1     -11.389  11.716  66.157  1.00  0.00    -0.275 A  
HETATM    7 CL   UNL     1     -11.661  13.523  64.175  1.00  0.00    -0.447 Cl 
HETATM    8  C   UNL     1     -11.399  11.317  67.494  1.00  0.00    -0.360 A  
HETATM    9  C   UNL     1     -11.669  12.250  68.503  1.00  0.00    -0.331 A  
ENDROOT
BRANCH   9  10
HETATM   10  O   UNL     1     -11.673  11.915  69.839  1.00  0.00    -0.310 OA 
BRANCH  10  11
HETATM   11  C   UNL     1     -11.207  10.680  70.247  1.00  0.00    -0.285 A  
HETATM   12  C   UNL     1     -11.933  10.006  71.239  1.00  0.00    -0.394 A  
HETATM   13  C   UNL     1     -11.482   8.782  71.749  1.00  0.00    -0.413 A  
HETATM   14 CL   UNL     1     -13.408  10.649  71.870  1.00  0.00    -0.507 Cl 
HETATM   15  C   UNL     1     -10.302   8.229  71.259  1.00  0.00    -0.205 A  
HETATM   16  C   UNL     1      -9.570   8.885  70.272  1.00  0.00    -0.212 A  
HETATM   17 CL   UNL     1      -9.730   6.737  71.898  1.00  0.00    -0.156 Cl 
HETATM   18  C   UNL     1     -10.010  10.118  69.781  1.00  0.00    -0.258 A  
ENDBRANCH  10  11
ENDBRANCH   9  10
TORSDOF 2
ENDMDL
MODEL       81
REMARK 921   NORMALIZED FREE ENERGY PREDICTED BY IDOCK:   -4.82 KCAL/MOL
REMARK 922        TOTAL FREE ENERGY PREDICTED BY IDOCK:   -5.68 KCAL/MOL
REMARK 923 INTER-LIGAND FREE ENERGY PREDICTED BY IDOCK:   -5.28 KCAL/MOL
REMARK 924 INTRA-LIGAND FREE ENERGY PREDICTED BY IDOCK:   -0.40 KCAL/MOL
REMARK 927      BINDING AFFINITY PREDICTED BY RF-SCORE:    0.00 PKD
ROOT
HETATM    1  O   UNL     1     -12.726  16.206  69.234  1.00  0.00    -0.347 OA 
HETATM    2  C   UNL     1     -11.470  16.161  68.691  1.00  0.00    -0.340 A  
HETATM    3  H   UNL     1     -13.315  15.470  69.115  1.00  0.00     0.000 HD 
HETATM    4  C   UNL     1     -10.605  17.242  68.865  1.00  0.00    -0.276 A  
HETATM    5  C   UNL     1      -9.327  17.190  68.307  1.00  0.00    -0.265 A  
HETATM    6  C   UNL     1      -8.928  16.091  67.550  1.00  0.00    -0.201 A  
HETATM    7 CL   UNL     1      -8.234  18.493  68.558  1.00  0.00    -0.353 Cl 
HETATM    8  C   UNL     1      -9.804  15.021  67.360  1.00  0.00    -0.224 A  
HETATM    9  C   UNL     1     -11.064  15.028  67.973  1.00  0.00    -0.300 A  
ENDROOT
BRANCH   9  10
HETATM   10  O   UNL     1     -11.959  13.991  67.836  1.00  0.00    -0.360 OA 
BRANCH  10  11
HETATM   11  C   UNL     1     -11.908  12.909  68.695  1.00  0.00    -0.312 A  
HETATM   12  C   UNL     1     -11.418  11.698  68.188  1.00  0.00    -0.313 A  
HETATM   13  C   UNL     1     -11.401  10.545  68.982  1.00  0.00    -0.319 A  
HETATM   14 CL   UNL     1     -10.814  11.575  66.573  1.00  0.00    -0.322 Cl 
HETATM   15  C   UNL     1     -11.872  10.607  70.290  1.00  0.00    -0.342 A  
HETATM   16  C   UNL     1     -12.360  11.803  70.810  1.00  0.00    -0.433 A  
HETATM   17 CL   UNL     1     -11.876   9.188  71.264  1.00  0.00    -0.371 Cl 
HETATM   18  C   UNL     1     -12.397  12.948  70.007  1.00  0.00    -0.199 A  
ENDBRANCH  10  11
ENDBRANCH   9  10
TORSDOF 2
ENDMDL
MODEL       82
REMARK 921   NORMALIZED FREE ENERGY PREDICTED BY IDOCK:   -4.78 KCAL/MOL
REMARK 922        TOTAL FREE ENERGY PREDICTED BY IDOCK:   -5.64 KCAL/MOL
REMARK 923 INTER-LIGAND FREE ENERGY PREDICTED BY IDOCK:   -5.29 KCAL/MOL
REMARK 924 INTRA-LIGAND FREE ENERGY PREDICTED BY IDOCK:   -0.36 KCAL/MOL
REMARK 927      BINDING AFFINITY PREDICTED BY RF-SCORE:    0.00 PKD
ROOT
HETATM    1  O   UNL     1     -10.415   9.470  67.654  1.00  0.00    -0.232 OA 
HETATM    2  C   UNL     1      -9.942   9.243  68.918  1.00  0.00    -0.181 A  
HETATM    3  H   UNL     1     -11.260   9.886  67.535  1.00  0.00     0.000 HD 
HETATM    4  C   UNL     1      -8.700   8.631  69.091  1.00  0.00    -0.136 A  
HETATM    5  C   UNL     1      -8.227   8.401  70.384  1.00  0.00    -0.115 A  
HETATM    6  C   UNL     1      -9.000   8.740  71.493  1.00  0.00    -0.306 A  
HETATM    7 CL   UNL     1      -6.676   7.695  70.610  1.00  0.00    -0.042 Cl 
HETATM    8  C   UNL     1     -10.251   9.332  71.315  1.00  0.00    -0.383 A  
HETATM    9  C   UNL     1     -10.708   9.634  70.026  1.00  0.00    -0.259 A  
ENDROOT
BRANCH   9  10
HETATM   10  O   UNL     1     -11.925  10.235  69.794  1.00  0.00    -0.202 OA 
BRANCH  10  11
HETATM   11  C   UNL     1     -12.234  11.436  70.404  1.00  0.00    -0.362 A  
HETATM   12  C   UNL     1     -13.031  11.394  71.556  1.00  0.00    -0.399 A  
HETATM   13  C   UNL     1     -13.441  12.576  72.187  1.00  0.00    -0.523 A  
HETATM   14 CL   UNL     1     -13.540   9.893  72.247  1.00  0.00    -0.430 Cl 
HETATM   15  C   UNL     1     -13.044  13.803  71.665  1.00  0.00    -0.375 A  
HETATM   16  C   UNL     1     -12.250  13.863  70.521  1.00  0.00    -0.443 A  
HETATM   17 CL   UNL     1     -13.562  15.260  72.420  1.00  0.00    -0.532 Cl 
HETATM   18  C   UNL     1     -11.863  12.681  69.880  1.00  0.00    -0.364 A  
ENDBRANCH  10  11
ENDBRANCH   9  10
TORSDOF 2
ENDMDL
MODEL       83
REMARK 921   NORMALIZED FREE ENERGY PREDICTED BY IDOCK:   -4.75 KCAL/MOL
REMARK 922        TOTAL FREE ENERGY PREDICTED BY IDOCK:   -5.60 KCAL/MOL
REMARK 923 INTER-LIGAND FREE ENERGY PREDICTED BY IDOCK:   -5.53 KCAL/MOL
REMARK 924 INTRA-LIGAND FREE ENERGY PREDICTED BY IDOCK:   -0.08 KCAL/MOL
REMARK 927      BINDING AFFINITY PREDICTED BY RF-SCORE:    0.00 PKD
ROOT
HETATM    1  O   UNL     1     -11.744  16.191  69.729  1.00  0.00    -0.298 OA 
HETATM    2  C   UNL     1     -11.537  15.099  68.930  1.00  0.00    -0.341 A  
HETATM    3  H   UNL     1     -11.513  17.056  69.411  1.00  0.00     0.000 HD 
HETATM    4  C   UNL     1     -11.876  13.829  69.397  1.00  0.00    -0.392 A  
HETATM    5  C   UNL     1     -11.660  12.720  68.578  1.00  0.00    -0.321 A  
HETATM    6  C   UNL     1     -11.075  12.870  67.322  1.00  0.00    -0.309 A  
HETATM    7 CL   UNL     1     -12.121  11.155  69.122  1.00  0.00    -0.401 Cl 
HETATM    8  C   UNL     1     -10.717  14.139  66.867  1.00  0.00    -0.286 A  
HETATM    9  C   UNL     1     -10.993  15.269  67.650  1.00  0.00    -0.311 A  
ENDROOT
BRANCH   9  10
HETATM   10  O   UNL     1     -10.680  16.546  67.241  1.00  0.00    -0.313 OA 
BRANCH  10  11
HETATM   11  C   UNL     1      -9.612  17.215  67.809  1.00  0.00    -0.256 A  
HETATM   12  C   UNL     1      -9.649  18.616  67.811  1.00  0.00    -0.304 A  
HETATM   13  C   UNL     1      -8.571  19.360  68.307  1.00  0.00    -0.376 A  
HETATM   14 CL   UNL     1     -11.018  19.483  67.208  1.00  0.00    -0.563 Cl 
HETATM   15  C   UNL     1      -7.455  18.697  68.809  1.00  0.00    -0.295 A  
HETATM   16  C   UNL     1      -7.403  17.305  68.816  1.00  0.00    -0.250 A  
HETATM   17 CL   UNL     1      -6.117  19.604  69.399  1.00  0.00    -0.311 Cl 
HETATM   18  C   UNL     1      -8.471  16.565  68.298  1.00  0.00    -0.199 A  
ENDBRANCH  10  11
ENDBRANCH   9  10
TORSDOF 2
ENDMDL
MODEL       84
REMARK 921   NORMALIZED FREE ENERGY PREDICTED BY IDOCK:   -4.74 KCAL/MOL
REMARK 922        TOTAL FREE ENERGY PREDICTED BY IDOCK:   -5.60 KCAL/MOL
REMARK 923 INTER-LIGAND FREE ENERGY PREDICTED BY IDOCK:   -5.12 KCAL/MOL
REMARK 924 INTRA-LIGAND FREE ENERGY PREDICTED BY IDOCK:   -0.48 KCAL/MOL
REMARK 927      BINDING AFFINITY PREDICTED BY RF-SCORE:    0.00 PKD
ROOT
HETATM    1  O   UNL     1      -8.667  14.469  69.268  1.00  0.00    -0.374 OA 
HETATM    2  C   UNL     1      -9.561  14.588  68.238  1.00  0.00    -0.212 A  
HETATM    3  H   UNL     1      -8.251  15.247  69.621  1.00  0.00     0.000 HD 
HETATM    4  C   UNL     1     -10.171  13.445  67.719  1.00  0.00    -0.235 A  
HETATM    5  C   UNL     1     -11.080  13.574  66.668  1.00  0.00    -0.298 A  
HETATM    6  C   UNL     1     -11.348  14.823  66.112  1.00  0.00    -0.330 A  
HETATM    7 CL   UNL     1     -11.877  12.180  66.055  1.00  0.00    -0.406 Cl 
HETATM    8  C   UNL     1     -10.720  15.961  66.619  1.00  0.00    -0.270 A  
HETATM    9  C   UNL     1      -9.860  15.856  67.720  1.00  0.00    -0.222 A  
ENDROOT
BRANCH   9  10
HETATM   10  O   UNL     1      -9.229  16.948  68.273  1.00  0.00    -0.227 OA 
BRANCH  10  11
HETATM   11  C   UNL     1      -8.471  17.789  67.479  1.00  0.00    -0.227 A  
HETATM   12  C   UNL     1      -9.045  19.008  67.091  1.00  0.00    -0.283 A  
HETATM   13  C   UNL     1      -8.363  19.877  66.232  1.00  0.00    -0.371 A  
HETATM   14 CL   UNL     1     -10.608  19.488  67.652  1.00  0.00    -0.569 Cl 
HETATM   15  C   UNL     1      -7.099  19.528  65.765  1.00  0.00    -0.298 A  
HETATM   16  C   UNL     1      -6.514  18.321  66.143  1.00  0.00    -0.266 A  
HETATM   17 CL   UNL     1      -6.264  20.581  64.690  1.00  0.00    -0.315 Cl 
HETATM   18  C   UNL     1      -7.207  17.444  66.983  1.00  0.00    -0.214 A  
ENDBRANCH  10  11
ENDBRANCH   9  10
TORSDOF 2
ENDMDL
MODEL       85
REMARK 921   NORMALIZED FREE ENERGY PREDICTED BY IDOCK:   -4.74 KCAL/MOL
REMARK 922        TOTAL FREE ENERGY PREDICTED BY IDOCK:   -5.59 KCAL/MOL
REMARK 923 INTER-LIGAND FREE ENERGY PREDICTED BY IDOCK:   -5.44 KCAL/MOL
REMARK 924 INTRA-LIGAND FREE ENERGY PREDICTED BY IDOCK:   -0.15 KCAL/MOL
REMARK 927      BINDING AFFINITY PREDICTED BY RF-SCORE:    0.00 PKD
ROOT
HETATM    1  O   UNL     1     -12.561  12.299  65.301  1.00  0.00    -0.583 OA 
HETATM    2  C   UNL     1     -11.280  12.280  65.784  1.00  0.00    -0.337 A  
HETATM    3  H   UNL     1     -13.198  12.892  65.683  1.00  0.00     0.000 HD 
HETATM    4  C   UNL     1     -10.345  11.410  65.223  1.00  0.00    -0.336 A  
HETATM    5  C   UNL     1      -9.042  11.394  65.722  1.00  0.00    -0.184 A  
HETATM    6  C   UNL     1      -8.684  12.208  66.794  1.00  0.00    -0.183 A  
HETATM    7 CL   UNL     1      -7.867  10.364  65.004  1.00  0.00    -0.138 Cl 
HETATM    8  C   UNL     1      -9.627  13.061  67.367  1.00  0.00    -0.211 A  
HETATM    9  C   UNL     1     -10.920  13.139  66.831  1.00  0.00    -0.276 A  
ENDROOT
BRANCH   9  10
HETATM   10  O   UNL     1     -11.884  13.978  67.345  1.00  0.00    -0.367 OA 
BRANCH  10  11
HETATM   11  C   UNL     1     -11.802  14.412  68.654  1.00  0.00    -0.331 A  
HETATM   12  C   UNL     1     -12.067  13.480  69.667  1.00  0.00    -0.306 A  
HETATM   13  C   UNL     1     -12.070  13.867  71.012  1.00  0.00    -0.357 A  
HETATM   14 CL   UNL     1     -12.400  11.823  69.302  1.00  0.00    -0.159 Cl 
HETATM   15  C   UNL     1     -11.799  15.191  71.345  1.00  0.00    -0.362 A  
HETATM   16  C   UNL     1     -11.530  16.130  70.351  1.00  0.00    -0.344 A  
HETATM   17 CL   UNL     1     -11.823  15.679  72.995  1.00  0.00    -0.561 Cl 
HETATM   18  C   UNL     1     -11.552  15.746  69.006  1.00  0.00    -0.406 A  
ENDBRANCH  10  11
ENDBRANCH   9  10
TORSDOF 2
ENDMDL
MODEL       86
REMARK 921   NORMALIZED FREE ENERGY PREDICTED BY IDOCK:   -4.74 KCAL/MOL
REMARK 922        TOTAL FREE ENERGY PREDICTED BY IDOCK:   -5.59 KCAL/MOL
REMARK 923 INTER-LIGAND FREE ENERGY PREDICTED BY IDOCK:   -5.33 KCAL/MOL
REMARK 924 INTRA-LIGAND FREE ENERGY PREDICTED BY IDOCK:   -0.27 KCAL/MOL
REMARK 927      BINDING AFFINITY PREDICTED BY RF-SCORE:    0.00 PKD
ROOT
HETATM    1  O   UNL     1     -11.670   9.795  69.563  1.00  0.00    -0.453 OA 
HETATM    2  C   UNL     1     -10.899   9.573  68.454  1.00  0.00    -0.137 A  
HETATM    3  H   UNL     1     -12.283  10.521  69.572  1.00  0.00     0.000 HD 
HETATM    4  C   UNL     1     -10.000   8.506  68.442  1.00  0.00    -0.208 A  
HETATM    5  C   UNL     1      -9.215   8.288  67.308  1.00  0.00    -0.138 A  
HETATM    6  C   UNL     1      -9.297   9.146  66.213  1.00  0.00    -0.274 A  
HETATM    7 CL   UNL     1      -8.141   6.946  67.261  1.00  0.00    -0.117 Cl 
HETATM    8  C   UNL     1     -10.182  10.224  66.238  1.00  0.00    -0.287 A  
HETATM    9  C   UNL     1     -11.026  10.414  67.340  1.00  0.00    -0.270 A  
ENDROOT
BRANCH   9  10
HETATM   10  O   UNL     1     -11.932  11.450  67.408  1.00  0.00    -0.606 OA 
BRANCH  10  11
HETATM   11  C   UNL     1     -11.774  12.565  66.606  1.00  0.00    -0.387 A  
HETATM   12  C   UNL     1     -11.202  13.706  67.185  1.00  0.00    -0.309 A  
HETATM   13  C   UNL     1     -11.076  14.892  66.452  1.00  0.00    -0.342 A  
HETATM   14 CL   UNL     1     -10.630  13.700  68.816  1.00  0.00    -0.258 Cl 
HETATM   15  C   UNL     1     -11.518  14.934  65.133  1.00  0.00    -0.357 A  
HETATM   16  C   UNL     1     -12.087  13.807  64.542  1.00  0.00    -0.463 A  
HETATM   17 CL   UNL     1     -11.387  16.395  64.233  1.00  0.00    -0.185 Cl 
HETATM   18  C   UNL     1     -12.234  12.630  65.284  1.00  0.00    -0.532 A  
ENDBRANCH  10  11
ENDBRANCH   9  10
TORSDOF 2
ENDMDL
MODEL       87
REMARK 921   NORMALIZED FREE ENERGY PREDICTED BY IDOCK:   -4.74 KCAL/MOL
REMARK 922        TOTAL FREE ENERGY PREDICTED BY IDOCK:   -5.59 KCAL/MOL
REMARK 923 INTER-LIGAND FREE ENERGY PREDICTED BY IDOCK:   -5.38 KCAL/MOL
REMARK 924 INTRA-LIGAND FREE ENERGY PREDICTED BY IDOCK:   -0.21 KCAL/MOL
REMARK 927      BINDING AFFINITY PREDICTED BY RF-SCORE:    0.00 PKD
ROOT
HETATM    1  O   UNL     1     -12.022   6.784  69.606  1.00  0.00    -0.650 OA 
HETATM    2  C   UNL     1     -11.066   7.408  70.361  1.00  0.00    -0.265 A  
HETATM    3  H   UNL     1     -12.160   7.054  68.705  1.00  0.00     0.000 HD 
HETATM    4  C   UNL     1     -10.864   7.011  71.683  1.00  0.00    -0.249 A  
HETATM    5  C   UNL     1      -9.888   7.654  72.447  1.00  0.00    -0.181 A  
HETATM    6  C   UNL     1      -9.149   8.707  71.913  1.00  0.00    -0.326 A  
HETATM    7 CL   UNL     1      -9.594   7.139  74.061  1.00  0.00    -0.307 Cl 
HETATM    8  C   UNL     1      -9.369   9.115  70.597  1.00  0.00    -0.312 A  
HETATM    9  C   UNL     1     -10.295   8.434  69.796  1.00  0.00    -0.216 A  
ENDROOT
BRANCH   9  10
HETATM   10  O   UNL     1     -10.537   8.782  68.486  1.00  0.00    -0.200 OA 
BRANCH  10  11
HETATM   11  C   UNL     1     -10.910  10.074  68.167  1.00  0.00    -0.255 A  
HETATM   12  C   UNL     1     -10.520  10.574  66.917  1.00  0.00    -0.246 A  
HETATM   13  C   UNL     1     -10.803  11.897  66.556  1.00  0.00    -0.317 A  
HETATM   14 CL   UNL     1      -9.678   9.588  65.774  1.00  0.00    -0.342 Cl 
HETATM   15  C   UNL     1     -11.487  12.719  67.447  1.00  0.00    -0.340 A  
HETATM   16  C   UNL     1     -11.884  12.237  68.692  1.00  0.00    -0.354 A  
HETATM   17 CL   UNL     1     -11.819  14.353  67.020  1.00  0.00    -0.428 Cl 
HETATM   18  C   UNL     1     -11.579  10.922  69.060  1.00  0.00    -0.387 A  
ENDBRANCH  10  11
ENDBRANCH   9  10
TORSDOF 2
ENDMDL
MODEL       88
REMARK 921   NORMALIZED FREE ENERGY PREDICTED BY IDOCK:   -4.73 KCAL/MOL
REMARK 922        TOTAL FREE ENERGY PREDICTED BY IDOCK:   -5.58 KCAL/MOL
REMARK 923 INTER-LIGAND FREE ENERGY PREDICTED BY IDOCK:   -5.25 KCAL/MOL
REMARK 924 INTRA-LIGAND FREE ENERGY PREDICTED BY IDOCK:   -0.33 KCAL/MOL
REMARK 927      BINDING AFFINITY PREDICTED BY RF-SCORE:    0.00 PKD
ROOT
HETATM    1  O   UNL     1     -11.030  14.211  70.217  1.00  0.00    -0.465 OA 
HETATM    2  C   UNL     1     -11.066  14.303  68.852  1.00  0.00    -0.262 A  
HETATM    3  H   UNL     1     -11.485  13.499  70.652  1.00  0.00     0.000 HD 
HETATM    4  C   UNL     1     -10.398  15.349  68.214  1.00  0.00    -0.238 A  
HETATM    5  C   UNL     1     -10.441  15.437  66.821  1.00  0.00    -0.299 A  
HETATM    6  C   UNL     1     -11.173  14.516  66.075  1.00  0.00    -0.337 A  
HETATM    7 CL   UNL     1      -9.580  16.691  66.020  1.00  0.00    -0.316 Cl 
HETATM    8  C   UNL     1     -11.857  13.484  66.718  1.00  0.00    -0.450 A  
HETATM    9  C   UNL     1     -11.765  13.342  68.109  1.00  0.00    -0.362 A  
ENDROOT
BRANCH   9  10
HETATM   10  O   UNL     1     -12.403  12.330  68.793  1.00  0.00    -0.083 OA 
BRANCH  10  11
HETATM   11  C   UNL     1     -11.704  11.202  69.178  1.00  0.00    -0.338 A  
HETATM   12  C   UNL     1     -11.917  10.716  70.475  1.00  0.00    -0.352 A  
HETATM   13  C   UNL     1     -11.192   9.618  70.955  1.00  0.00    -0.445 A  
HETATM   14 CL   UNL     1     -13.076  11.442  71.532  1.00  0.00    -0.498 Cl 
HETATM   15  C   UNL     1     -10.255   9.002  70.130  1.00  0.00    -0.197 A  
HETATM   16  C   UNL     1     -10.033   9.471  68.838  1.00  0.00    -0.187 A  
HETATM   17 CL   UNL     1      -9.343   7.667  70.722  1.00  0.00    -0.161 Cl 
HETATM   18  C   UNL     1     -10.742  10.583  68.369  1.00  0.00    -0.262 A  
ENDBRANCH  10  11
ENDBRANCH   9  10
TORSDOF 2
ENDMDL
MODEL       89
REMARK 921   NORMALIZED FREE ENERGY PREDICTED BY IDOCK:   -4.72 KCAL/MOL
REMARK 922        TOTAL FREE ENERGY PREDICTED BY IDOCK:   -5.57 KCAL/MOL
REMARK 923 INTER-LIGAND FREE ENERGY PREDICTED BY IDOCK:   -5.12 KCAL/MOL
REMARK 924 INTRA-LIGAND FREE ENERGY PREDICTED BY IDOCK:   -0.45 KCAL/MOL
REMARK 927      BINDING AFFINITY PREDICTED BY RF-SCORE:    0.00 PKD
ROOT
HETATM    1  O   UNL     1      -9.134   7.905  74.136  1.00  0.00    -0.404 OA 
HETATM    2  C   UNL     1     -10.094   7.159  73.509  1.00  0.00    -0.331 A  
HETATM    3  H   UNL     1      -9.085   8.840  73.975  1.00  0.00     0.000 HD 
HETATM    4  C   UNL     1     -10.166   5.786  73.746  1.00  0.00    -0.245 A  
HETATM    5  C   UNL     1     -11.147   5.031  73.101  1.00  0.00    -0.326 A  
HETATM    6  C   UNL     1     -12.022   5.631  72.198  1.00  0.00     0.013 A  
HETATM    7 CL   UNL     1     -11.278   3.348  73.425  1.00  0.00    -0.293 Cl 
HETATM    8  C   UNL     1     -11.933   7.000  71.946  1.00  0.00    -0.355 A  
HETATM    9  C   UNL     1     -11.000   7.783  72.640  1.00  0.00    -0.364 A  
ENDROOT
BRANCH   9  10
HETATM   10  O   UNL     1     -10.883   9.141  72.445  1.00  0.00    -0.070 OA 
BRANCH  10  11
HETATM   11  C   UNL     1     -10.855   9.660  71.164  1.00  0.00    -0.334 A  
HETATM   12  C   UNL     1     -11.899  10.516  70.786  1.00  0.00    -0.365 A  
HETATM   13  C   UNL     1     -11.972  11.024  69.483  1.00  0.00    -0.413 A  
HETATM   14 CL   UNL     1     -13.132  10.982  71.904  1.00  0.00    -0.589 Cl 
HETATM   15  C   UNL     1     -10.992  10.677  68.557  1.00  0.00    -0.248 A  
HETATM   16  C   UNL     1      -9.947   9.829  68.917  1.00  0.00    -0.183 A  
HETATM   17 CL   UNL     1     -11.087  11.278  66.948  1.00  0.00    -0.350 Cl 
HETATM   18  C   UNL     1      -9.890   9.304  70.213  1.00  0.00    -0.265 A  
ENDBRANCH  10  11
ENDBRANCH   9  10
TORSDOF 2
ENDMDL
MODEL       90
REMARK 921   NORMALIZED FREE ENERGY PREDICTED BY IDOCK:   -4.72 KCAL/MOL
REMARK 922        TOTAL FREE ENERGY PREDICTED BY IDOCK:   -5.57 KCAL/MOL
REMARK 923 INTER-LIGAND FREE ENERGY PREDICTED BY IDOCK:   -5.06 KCAL/MOL
REMARK 924 INTRA-LIGAND FREE ENERGY PREDICTED BY IDOCK:   -0.51 KCAL/MOL
REMARK 927      BINDING AFFINITY PREDICTED BY RF-SCORE:    0.00 PKD
ROOT
HETATM    1  O   UNL     1     -11.927   6.661  69.512  1.00  0.00    -0.642 OA 
HETATM    2  C   UNL     1     -11.023   6.982  70.488  1.00  0.00    -0.265 A  
HETATM    3  H   UNL     1     -12.571   7.304  69.238  1.00  0.00     0.000 HD 
HETATM    4  C   UNL     1     -10.078   6.039  70.890  1.00  0.00    -0.246 A  
HETATM    5  C   UNL     1      -9.161   6.373  71.889  1.00  0.00    -0.149 A  
HETATM    6  C   UNL     1      -9.211   7.620  72.508  1.00  0.00    -0.208 A  
HETATM    7 CL   UNL     1      -7.958   5.237  72.356  1.00  0.00    -0.102 Cl 
HETATM    8  C   UNL     1     -10.173   8.553  72.119  1.00  0.00    -0.403 A  
HETATM    9  C   UNL     1     -11.053   8.258  71.070  1.00  0.00    -0.251 A  
ENDROOT
BRANCH   9  10
HETATM   10  O   UNL     1     -12.008   9.149  70.632  1.00  0.00    -0.239 OA 
BRANCH  10  11
HETATM   11  C   UNL     1     -11.629  10.364  70.092  1.00  0.00    -0.312 A  
HETATM   12  C   UNL     1     -12.186  11.524  70.646  1.00  0.00    -0.378 A  
HETATM   13  C   UNL     1     -11.901  12.783  70.105  1.00  0.00    -0.326 A  
HETATM   14 CL   UNL     1     -13.242  11.453  72.013  1.00  0.00    -0.560 Cl 
HETATM   15  C   UNL     1     -11.049  12.881  69.008  1.00  0.00    -0.233 A  
HETATM   16  C   UNL     1     -10.485  11.738  68.447  1.00  0.00    -0.231 A  
HETATM   17 CL   UNL     1     -10.712  14.423  68.324  1.00  0.00    -0.238 Cl 
HETATM   18  C   UNL     1     -10.790  10.479  68.975  1.00  0.00    -0.272 A  
ENDBRANCH  10  11
ENDBRANCH   9  10
TORSDOF 2
ENDMDL
MODEL       91
REMARK 921   NORMALIZED FREE ENERGY PREDICTED BY IDOCK:   -4.68 KCAL/MOL
REMARK 922        TOTAL FREE ENERGY PREDICTED BY IDOCK:   -5.53 KCAL/MOL
REMARK 923 INTER-LIGAND FREE ENERGY PREDICTED BY IDOCK:   -5.33 KCAL/MOL
REMARK 924 INTRA-LIGAND FREE ENERGY PREDICTED BY IDOCK:   -0.20 KCAL/MOL
REMARK 927      BINDING AFFINITY PREDICTED BY RF-SCORE:    0.00 PKD
ROOT
HETATM    1  O   UNL     1      -8.491  12.255  67.014  1.00  0.00    -0.180 OA 
HETATM    2  C   UNL     1      -9.393  12.110  65.994  1.00  0.00    -0.170 A  
HETATM    3  H   UNL     1      -8.718  12.783  67.771  1.00  0.00     0.000 HD 
HETATM    4  C   UNL     1      -9.059  11.334  64.884  1.00  0.00    -0.059 A  
HETATM    5  C   UNL     1      -9.983  11.194  63.847  1.00  0.00    -0.329 A  
HETATM    6  C   UNL     1     -11.210  11.850  63.897  1.00  0.00    -0.497 A  
HETATM    7 CL   UNL     1      -9.603  10.199  62.497  1.00  0.00    -0.271 Cl 
HETATM    8  C   UNL     1     -11.532  12.642  65.000  1.00  0.00    -0.366 A  
HETATM    9  C   UNL     1     -10.644  12.736  66.080  1.00  0.00    -0.268 A  
ENDROOT
BRANCH   9  10
HETATM   10  O   UNL     1     -10.919  13.487  67.201  1.00  0.00    -0.284 OA 
BRANCH  10  11
HETATM   11  C   UNL     1     -11.476  12.892  68.317  1.00  0.00    -0.311 A  
HETATM   12  C   UNL     1     -11.818  13.721  69.394  1.00  0.00    -0.341 A  
HETATM   13  C   UNL     1     -12.323  13.179  70.582  1.00  0.00    -0.405 A  
HETATM   14 CL   UNL     1     -11.634  15.438  69.304  1.00  0.00    -0.328 Cl 
HETATM   15  C   UNL     1     -12.492  11.802  70.690  1.00  0.00    -0.274 A  
HETATM   16  C   UNL     1     -12.159  10.963  69.628  1.00  0.00    -0.400 A  
HETATM   17 CL   UNL     1     -13.090  11.126  72.155  1.00  0.00    -0.473 Cl 
HETATM   18  C   UNL     1     -11.633  11.506  68.450  1.00  0.00    -0.375 A  
ENDBRANCH  10  11
ENDBRANCH   9  10
TORSDOF 2
ENDMDL
MODEL       92
REMARK 921   NORMALIZED FREE ENERGY PREDICTED BY IDOCK:   -4.66 KCAL/MOL
REMARK 922        TOTAL FREE ENERGY PREDICTED BY IDOCK:   -5.51 KCAL/MOL
REMARK 923 INTER-LIGAND FREE ENERGY PREDICTED BY IDOCK:   -5.43 KCAL/MOL
REMARK 924 INTRA-LIGAND FREE ENERGY PREDICTED BY IDOCK:   -0.08 KCAL/MOL
REMARK 927      BINDING AFFINITY PREDICTED BY RF-SCORE:    0.00 PKD
ROOT
HETATM    1  O   UNL     1     -12.254  14.623  65.027  1.00  0.00    -0.381 OA 
HETATM    2  C   UNL     1     -11.056  14.727  65.681  1.00  0.00    -0.342 A  
HETATM    3  H   UNL     1     -12.767  13.827  65.109  1.00  0.00     0.000 HD 
HETATM    4  C   UNL     1     -10.304  15.896  65.559  1.00  0.00    -0.425 A  
HETATM    5  C   UNL     1      -9.082  15.994  66.226  1.00  0.00    -0.344 A  
HETATM    6  C   UNL     1      -8.596  14.924  66.976  1.00  0.00    -0.265 A  
HETATM    7 CL   UNL     1      -8.170  17.447  66.126  1.00  0.00    -0.275 Cl 
HETATM    8  C   UNL     1      -9.341  13.749  67.078  1.00  0.00    -0.250 A  
HETATM    9  C   UNL     1     -10.602  13.662  66.471  1.00  0.00    -0.282 A  
ENDROOT
BRANCH   9  10
HETATM   10  O   UNL     1     -11.388  12.535  66.556  1.00  0.00    -0.297 OA 
BRANCH  10  11
HETATM   11  C   UNL     1     -11.332  11.731  67.680  1.00  0.00    -0.302 A  
HETATM   12  C   UNL     1     -11.746  12.288  68.898  1.00  0.00    -0.328 A  
HETATM   13  C   UNL     1     -11.651  11.555  70.087  1.00  0.00    -0.336 A  
HETATM   14 CL   UNL     1     -12.387  13.891  68.986  1.00  0.00    -0.259 Cl 
HETATM   15  C   UNL     1     -11.147  10.258  70.055  1.00  0.00    -0.311 A  
HETATM   16  C   UNL     1     -10.733   9.690  68.852  1.00  0.00    -0.230 A  
HETATM   17 CL   UNL     1     -11.007   9.360  71.516  1.00  0.00    -0.442 Cl 
HETATM   18  C   UNL     1     -10.807  10.432  67.669  1.00  0.00    -0.361 A  
ENDBRANCH  10  11
ENDBRANCH   9  10
TORSDOF 2
ENDMDL
MODEL       93
REMARK 921   NORMALIZED FREE ENERGY PREDICTED BY IDOCK:   -4.64 KCAL/MOL
REMARK 922        TOTAL FREE ENERGY PREDICTED BY IDOCK:   -5.49 KCAL/MOL
REMARK 923 INTER-LIGAND FREE ENERGY PREDICTED BY IDOCK:   -5.39 KCAL/MOL
REMARK 924 INTRA-LIGAND FREE ENERGY PREDICTED BY IDOCK:   -0.10 KCAL/MOL
REMARK 927      BINDING AFFINITY PREDICTED BY RF-SCORE:    0.00 PKD
ROOT
HETATM    1  O   UNL     1     -12.429  12.994  69.489  1.00  0.00    -0.082 OA 
HETATM    2  C   UNL     1     -11.888  11.736  69.468  1.00  0.00    -0.337 A  
HETATM    3  H   UNL     1     -12.490  13.493  68.683  1.00  0.00     0.000 HD 
HETATM    4  C   UNL     1     -11.798  11.004  70.651  1.00  0.00    -0.434 A  
HETATM    5  C   UNL     1     -11.243   9.723  70.621  1.00  0.00    -0.334 A  
HETATM    6  C   UNL     1     -10.746   9.194  69.432  1.00  0.00    -0.210 A  
HETATM    7 CL   UNL     1     -11.173   8.790  72.064  1.00  0.00    -0.434 Cl 
HETATM    8  C   UNL     1     -10.818   9.938  68.254  1.00  0.00    -0.275 A  
HETATM    9  C   UNL     1     -11.436  11.196  68.255  1.00  0.00    -0.303 A  
ENDROOT
BRANCH   9  10
HETATM   10  O   UNL     1     -11.552  11.964  67.118  1.00  0.00    -0.444 OA 
BRANCH  10  11
HETATM   11  C   UNL     1     -10.760  13.085  66.952  1.00  0.00    -0.262 A  
HETATM   12  C   UNL     1     -11.281  14.143  66.195  1.00  0.00    -0.326 A  
HETATM   13  C   UNL     1     -10.509  15.280  65.929  1.00  0.00    -0.345 A  
HETATM   14 CL   UNL     1     -12.889  14.093  65.562  1.00  0.00    -0.498 Cl 
HETATM   15  C   UNL     1      -9.212  15.360  66.428  1.00  0.00    -0.305 A  
HETATM   16  C   UNL     1      -8.680  14.318  67.185  1.00  0.00    -0.243 A  
HETATM   17 CL   UNL     1      -8.248  16.744  66.086  1.00  0.00    -0.347 Cl 
HETATM   18  C   UNL     1      -9.446  13.173  67.429  1.00  0.00    -0.214 A  
ENDBRANCH  10  11
ENDBRANCH   9  10
TORSDOF 2
ENDMDL
MODEL       94
REMARK 921   NORMALIZED FREE ENERGY PREDICTED BY IDOCK:   -4.64 KCAL/MOL
REMARK 922        TOTAL FREE ENERGY PREDICTED BY IDOCK:   -5.48 KCAL/MOL
REMARK 923 INTER-LIGAND FREE ENERGY PREDICTED BY IDOCK:   -4.99 KCAL/MOL
REMARK 924 INTRA-LIGAND FREE ENERGY PREDICTED BY IDOCK:   -0.48 KCAL/MOL
REMARK 927      BINDING AFFINITY PREDICTED BY RF-SCORE:    0.00 PKD
ROOT
HETATM    1  O   UNL     1     -13.443   8.692  72.886  1.00  0.00    -0.684 OA 
HETATM    2  C   UNL     1     -12.451   9.139  72.056  1.00  0.00    -0.382 A  
HETATM    3  H   UNL     1     -13.244   8.040  73.548  1.00  0.00     0.000 HD 
HETATM    4  C   UNL     1     -12.744  10.096  71.084  1.00  0.00    -0.494 A  
HETATM    5  C   UNL     1     -11.727  10.545  70.240  1.00  0.00    -0.332 A  
HETATM    6  C   UNL     1     -10.441  10.018  70.336  1.00  0.00    -0.304 A  
HETATM    7 CL   UNL     1     -12.063  11.762  69.072  1.00  0.00    -0.331 Cl 
HETATM    8  C   UNL     1     -10.157   9.045  71.295  1.00  0.00    -0.384 A  
HETATM    9  C   UNL     1     -11.150   8.636  72.196  1.00  0.00    -0.364 A  
ENDROOT
BRANCH   9  10
HETATM   10  O   UNL     1     -10.919   7.695  73.174  1.00  0.00    -0.392 OA 
BRANCH  10  11
HETATM   11  C   UNL     1     -10.285   6.507  72.860  1.00  0.00    -0.193 A  
HETATM   12  C   UNL     1      -8.985   6.316  73.347  1.00  0.00    -0.124 A  
HETATM   13  C   UNL     1      -8.257   5.167  73.012  1.00  0.00    -0.105 A  
HETATM   14 CL   UNL     1      -8.227   7.480  74.377  1.00  0.00    -0.227 Cl 
HETATM   15  C   UNL     1      -8.837   4.204  72.191  1.00  0.00    -0.107 A  
HETATM   16  C   UNL     1     -10.129   4.378  71.701  1.00  0.00    -0.230 A  
HETATM   17 CL   UNL     1      -7.941   2.801  71.756  1.00  0.00    -0.056 Cl 
HETATM   18  C   UNL     1     -10.845   5.538  72.018  1.00  0.00    -0.287 A  
ENDBRANCH  10  11
ENDBRANCH   9  10
TORSDOF 2
ENDMDL
MODEL       95
REMARK 921   NORMALIZED FREE ENERGY PREDICTED BY IDOCK:   -4.62 KCAL/MOL
REMARK 922        TOTAL FREE ENERGY PREDICTED BY IDOCK:   -5.46 KCAL/MOL
REMARK 923 INTER-LIGAND FREE ENERGY PREDICTED BY IDOCK:   -5.29 KCAL/MOL
REMARK 924 INTRA-LIGAND FREE ENERGY PREDICTED BY IDOCK:   -0.17 KCAL/MOL
REMARK 927      BINDING AFFINITY PREDICTED BY RF-SCORE:    0.00 PKD
ROOT
HETATM    1  O   UNL     1     -10.000   8.538  66.979  1.00  0.00    -0.200 OA 
HETATM    2  C   UNL     1     -10.546   9.383  67.907  1.00  0.00    -0.237 A  
HETATM    3  H   UNL     1      -9.930   8.816  66.073  1.00  0.00     0.000 HD 
HETATM    4  C   UNL     1     -10.648   8.975  69.237  1.00  0.00    -0.226 A  
HETATM    5  C   UNL     1     -11.208   9.842  70.177  1.00  0.00    -0.272 A  
HETATM    6  C   UNL     1     -11.697  11.087  69.789  1.00  0.00    -0.410 A  
HETATM    7 CL   UNL     1     -11.292   9.370  71.828  1.00  0.00    -0.445 Cl 
HETATM    8  C   UNL     1     -11.613  11.484  68.454  1.00  0.00    -0.375 A  
HETATM    9  C   UNL     1     -10.989  10.653  67.513  1.00  0.00    -0.310 A  
ENDROOT
BRANCH   9  10
HETATM   10  O   UNL     1     -10.861  11.003  66.187  1.00  0.00    -0.234 OA 
BRANCH  10  11
HETATM   11  C   UNL     1     -10.901  12.333  65.812  1.00  0.00    -0.278 A  
HETATM   12  C   UNL     1      -9.793  13.132  66.128  1.00  0.00    -0.280 A  
HETATM   13  C   UNL     1      -9.793  14.502  65.841  1.00  0.00    -0.347 A  
HETATM   14 CL   UNL     1      -8.387  12.465  66.881  1.00  0.00    -0.156 Cl 
HETATM   15  C   UNL     1     -10.905  15.073  65.228  1.00  0.00    -0.386 A  
HETATM   16  C   UNL     1     -12.013  14.293  64.905  1.00  0.00    -0.430 A  
HETATM   17 CL   UNL     1     -10.922  16.761  64.892  1.00  0.00    -0.244 Cl 
HETATM   18  C   UNL     1     -12.020  12.929  65.215  1.00  0.00    -0.459 A  
ENDBRANCH  10  11
ENDBRANCH   9  10
TORSDOF 2
ENDMDL
MODEL       96
REMARK 921   NORMALIZED FREE ENERGY PREDICTED BY IDOCK:   -4.61 KCAL/MOL
REMARK 922        TOTAL FREE ENERGY PREDICTED BY IDOCK:   -5.45 KCAL/MOL
REMARK 923 INTER-LIGAND FREE ENERGY PREDICTED BY IDOCK:   -5.17 KCAL/MOL
REMARK 924 INTRA-LIGAND FREE ENERGY PREDICTED BY IDOCK:   -0.28 KCAL/MOL
REMARK 927      BINDING AFFINITY PREDICTED BY RF-SCORE:    0.00 PKD
ROOT
HETATM    1  O   UNL     1     -10.491  17.036  65.507  1.00  0.00    -0.572 OA 
HETATM    2  C   UNL     1      -9.506  16.682  66.389  1.00  0.00    -0.280 A  
HETATM    3  H   UNL     1     -11.380  16.730  65.647  1.00  0.00     0.000 HD 
HETATM    4  C   UNL     1      -8.202  17.132  66.183  1.00  0.00    -0.269 A  
HETATM    5  C   UNL     1      -7.202  16.765  67.086  1.00  0.00    -0.185 A  
HETATM    6  C   UNL     1      -7.491  15.927  68.161  1.00  0.00    -0.132 A  
HETATM    7 CL   UNL     1      -5.602  17.355  66.871  1.00  0.00    -0.181 Cl 
HETATM    8  C   UNL     1      -8.793  15.462  68.351  1.00  0.00    -0.177 A  
HETATM    9  C   UNL     1      -9.820  15.879  67.494  1.00  0.00    -0.230 A  
ENDROOT
BRANCH   9  10
HETATM   10  O   UNL     1     -11.125  15.466  67.648  1.00  0.00    -0.306 OA 
BRANCH  10  11
HETATM   11  C   UNL     1     -11.429  14.429  68.509  1.00  0.00    -0.297 A  
HETATM   12  C   UNL     1     -11.323  13.121  68.016  1.00  0.00    -0.292 A  
HETATM   13  C   UNL     1     -11.681  12.026  68.811  1.00  0.00    -0.377 A  
HETATM   14 CL   UNL     1     -10.747  12.805  66.417  1.00  0.00    -0.276 Cl 
HETATM   15  C   UNL     1     -12.141  12.240  70.107  1.00  0.00    -0.287 A  
HETATM   16  C   UNL     1     -12.251  13.534  70.613  1.00  0.00    -0.434 A  
HETATM   17 CL   UNL     1     -12.605  10.900  71.081  1.00  0.00    -0.502 Cl 
HETATM   18  C   UNL     1     -11.915  14.628  69.809  1.00  0.00    -0.378 A  
ENDBRANCH  10  11
ENDBRANCH   9  10
TORSDOF 2
ENDMDL
MODEL       97
REMARK 921   NORMALIZED FREE ENERGY PREDICTED BY IDOCK:   -4.60 KCAL/MOL
REMARK 922        TOTAL FREE ENERGY PREDICTED BY IDOCK:   -5.43 KCAL/MOL
REMARK 923 INTER-LIGAND FREE ENERGY PREDICTED BY IDOCK:   -5.36 KCAL/MOL
REMARK 924 INTRA-LIGAND FREE ENERGY PREDICTED BY IDOCK:   -0.07 KCAL/MOL
REMARK 927      BINDING AFFINITY PREDICTED BY RF-SCORE:    0.00 PKD
ROOT
HETATM    1  O   UNL     1      -9.243   9.292  64.417  1.00  0.00    -0.431 OA 
HETATM    2  C   UNL     1     -10.001  10.234  65.059  1.00  0.00    -0.323 A  
HETATM    3  H   UNL     1      -8.797   8.622  64.924  1.00  0.00     0.000 HD 
HETATM    4  C   UNL     1     -10.654  11.217  64.316  1.00  0.00    -0.425 A  
HETATM    5  C   UNL     1     -11.423  12.175  64.978  1.00  0.00    -0.323 A  
HETATM    6  C   UNL     1     -11.508  12.179  66.368  1.00  0.00    -0.430 A  
HETATM    7 CL   UNL     1     -12.275  13.360  64.069  1.00  0.00    -0.476 Cl 
HETATM    8  C   UNL     1     -10.835  11.208  67.110  1.00  0.00    -0.326 A  
HETATM    9  C   UNL     1     -10.117  10.197  66.456  1.00  0.00    -0.234 A  
ENDROOT
BRANCH   9  10
HETATM   10  O   UNL     1      -9.452   9.203  67.137  1.00  0.00    -0.144 OA 
BRANCH  10  11
HETATM   11  C   UNL     1      -9.788   8.912  68.446  1.00  0.00    -0.174 A  
HETATM   12  C   UNL     1     -10.525   7.743  68.683  1.00  0.00    -0.172 A  
HETATM   13  C   UNL     1     -10.960   7.421  69.975  1.00  0.00    -0.264 A  
HETATM   14 CL   UNL     1     -10.926   6.654  67.402  1.00  0.00    -0.422 Cl 
HETATM   15  C   UNL     1     -10.649   8.270  71.034  1.00  0.00    -0.204 A  
HETATM   16  C   UNL     1      -9.916   9.434  70.815  1.00  0.00    -0.358 A  
HETATM   17 CL   UNL     1     -11.199   7.893  72.620  1.00  0.00    -0.431 Cl 
HETATM   18  C   UNL     1      -9.503   9.765  69.520  1.00  0.00    -0.226 A  
ENDBRANCH  10  11
ENDBRANCH   9  10
TORSDOF 2
ENDMDL
MODEL       98
REMARK 921   NORMALIZED FREE ENERGY PREDICTED BY IDOCK:   -4.59 KCAL/MOL
REMARK 922        TOTAL FREE ENERGY PREDICTED BY IDOCK:   -5.42 KCAL/MOL
REMARK 923 INTER-LIGAND FREE ENERGY PREDICTED BY IDOCK:   -4.99 KCAL/MOL
REMARK 924 INTRA-LIGAND FREE ENERGY PREDICTED BY IDOCK:   -0.43 KCAL/MOL
REMARK 927      BINDING AFFINITY PREDICTED BY RF-SCORE:    0.00 PKD
ROOT
HETATM    1  O   UNL     1      -9.987  10.027  66.130  1.00  0.00    -0.229 OA 
HETATM    2  C   UNL     1     -10.649  10.536  67.214  1.00  0.00    -0.264 A  
HETATM    3  H   UNL     1      -9.869  10.565  65.356  1.00  0.00     0.000 HD 
HETATM    4  C   UNL     1     -10.822   9.745  68.350  1.00  0.00    -0.244 A  
HETATM    5  C   UNL     1     -11.500  10.271  69.451  1.00  0.00    -0.186 A  
HETATM    6  C   UNL     1     -12.034  11.557  69.407  1.00  0.00    -0.392 A  
HETATM    7 CL   UNL     1     -11.675   9.324  70.876  1.00  0.00    -0.342 Cl 
HETATM    8  C   UNL     1     -11.877  12.337  68.261  1.00  0.00    -0.367 A  
HETATM    9  C   UNL     1     -11.138  11.849  67.175  1.00  0.00    -0.293 A  
ENDROOT
BRANCH   9  10
HETATM   10  O   UNL     1     -10.936  12.584  66.028  1.00  0.00    -0.268 OA 
BRANCH  10  11
HETATM   11  C   UNL     1     -10.330  13.824  66.095  1.00  0.00    -0.301 A  
HETATM   12  C   UNL     1     -10.904  14.869  65.358  1.00  0.00    -0.369 A  
HETATM   13  C   UNL     1     -10.305  16.134  65.324  1.00  0.00    -0.281 A  
HETATM   14 CL   UNL     1     -12.368  14.645  64.465  1.00  0.00    -0.473 Cl 
HETATM   15  C   UNL     1      -9.130  16.355  66.036  1.00  0.00    -0.282 A  
HETATM   16  C   UNL     1      -8.547  15.328  66.776  1.00  0.00    -0.300 A  
HETATM   17 CL   UNL     1      -8.375  17.901  65.981  1.00  0.00    -0.149 Cl 
HETATM   18  C   UNL     1      -9.135  14.058  66.789  1.00  0.00    -0.250 A  
ENDBRANCH  10  11
ENDBRANCH   9  10
TORSDOF 2
ENDMDL
MODEL       99
REMARK 921   NORMALIZED FREE ENERGY PREDICTED BY IDOCK:   -4.55 KCAL/MOL
REMARK 922        TOTAL FREE ENERGY PREDICTED BY IDOCK:   -5.38 KCAL/MOL
REMARK 923 INTER-LIGAND FREE ENERGY PREDICTED BY IDOCK:   -5.02 KCAL/MOL
REMARK 924 INTRA-LIGAND FREE ENERGY PREDICTED BY IDOCK:   -0.36 KCAL/MOL
REMARK 927      BINDING AFFINITY PREDICTED BY RF-SCORE:    0.00 PKD
ROOT
HETATM    1  O   UNL     1     -12.214  12.173  67.779  1.00  0.00    -0.451 OA 
HETATM    2  C   UNL     1     -11.600  13.178  67.082  1.00  0.00    -0.361 A  
HETATM    3  H   UNL     1     -12.309  11.315  67.381  1.00  0.00     0.000 HD 
HETATM    4  C   UNL     1     -11.459  14.437  67.667  1.00  0.00    -0.369 A  
HETATM    5  C   UNL     1     -10.834  15.458  66.949  1.00  0.00    -0.313 A  
HETATM    6  C   UNL     1     -10.389  15.238  65.647  1.00  0.00    -0.389 A  
HETATM    7 CL   UNL     1     -10.609  16.998  67.678  1.00  0.00    -0.345 Cl 
HETATM    8  C   UNL     1     -10.551  13.984  65.058  1.00  0.00    -0.426 A  
HETATM    9  C   UNL     1     -11.112  12.931  65.791  1.00  0.00    -0.284 A  
ENDROOT
BRANCH   9  10
HETATM   10  O   UNL     1     -11.277  11.669  65.266  1.00  0.00    -0.279 OA 
BRANCH  10  11
HETATM   11  C   UNL     1     -10.264  10.734  65.372  1.00  0.00    -0.276 A  
HETATM   12  C   UNL     1      -9.456  10.520  64.247  1.00  0.00    -0.285 A  
HETATM   13  C   UNL     1      -8.456   9.540  64.261  1.00  0.00    -0.193 A  
HETATM   14 CL   UNL     1      -9.655  11.451  62.804  1.00  0.00    -0.355 Cl 
HETATM   15  C   UNL     1      -8.261   8.776  65.408  1.00  0.00    -0.136 A  
HETATM   16  C   UNL     1      -9.054   8.977  66.535  1.00  0.00    -0.202 A  
HETATM   17 CL   UNL     1      -7.049   7.554  65.424  1.00  0.00    -0.062 Cl 
HETATM   18  C   UNL     1     -10.068   9.941  66.511  1.00  0.00    -0.298 A  
ENDBRANCH  10  11
ENDBRANCH   9  10
TORSDOF 2
ENDMDL
MODEL      100
REMARK 921   NORMALIZED FREE ENERGY PREDICTED BY IDOCK:   -4.55 KCAL/MOL
REMARK 922        TOTAL FREE ENERGY PREDICTED BY IDOCK:   -5.38 KCAL/MOL
REMARK 923 INTER-LIGAND FREE ENERGY PREDICTED BY IDOCK:   -4.88 KCAL/MOL
REMARK 924 INTRA-LIGAND FREE ENERGY PREDICTED BY IDOCK:   -0.50 KCAL/MOL
REMARK 927      BINDING AFFINITY PREDICTED BY RF-SCORE:    0.00 PKD
ROOT
HETATM    1  O   UNL     1      -8.893  10.616  69.526  1.00  0.00    -0.375 OA 
HETATM    2  C   UNL     1      -9.505   9.531  68.959  1.00  0.00    -0.158 A  
HETATM    3  H   UNL     1      -8.535  11.298  68.970  1.00  0.00     0.000 HD 
HETATM    4  C   UNL     1     -10.031   8.530  69.776  1.00  0.00    -0.191 A  
HETATM    5  C   UNL     1     -10.652   7.426  69.189  1.00  0.00    -0.204 A  
HETATM    6  C   UNL     1     -10.712   7.300  67.803  1.00  0.00    -0.267 A  
HETATM    7 CL   UNL     1     -11.349   6.211  70.186  1.00  0.00    -0.463 Cl 
HETATM    8  C   UNL     1     -10.166   8.293  66.989  1.00  0.00    -0.380 A  
HETATM    9  C   UNL     1      -9.603   9.441  67.563  1.00  0.00    -0.141 A  
ENDROOT
BRANCH   9  10
HETATM   10  O   UNL     1      -9.067  10.460  66.807  1.00  0.00    -0.143 OA 
BRANCH  10  11
HETATM   11  C   UNL     1      -9.894  11.407  66.232  1.00  0.00    -0.218 A  
HETATM   12  C   UNL     1     -10.102  11.334  64.848  1.00  0.00    -0.281 A  
HETATM   13  C   UNL     1     -10.871  12.300  64.188  1.00  0.00    -0.412 A  
HETATM   14 CL   UNL     1      -9.425  10.056  63.900  1.00  0.00    -0.321 Cl 
HETATM   15  C   UNL     1     -11.439  13.340  64.919  1.00  0.00    -0.318 A  
HETATM   16  C   UNL     1     -11.244  13.426  66.296  1.00  0.00    -0.322 A  
HETATM   17 CL   UNL     1     -12.366  14.544  64.112  1.00  0.00    -0.441 Cl 
HETATM   18  C   UNL     1     -10.455  12.472  66.948  1.00  0.00    -0.244 A  
ENDBRANCH  10  11
ENDBRANCH   9  10
TORSDOF 2
ENDMDL
MODEL      101
REMARK 921   NORMALIZED FREE ENERGY PREDICTED BY IDOCK:   -4.54 KCAL/MOL
REMARK 922        TOTAL FREE ENERGY PREDICTED BY IDOCK:   -5.37 KCAL/MOL
REMARK 923 INTER-LIGAND FREE ENERGY PREDICTED BY IDOCK:   -5.05 KCAL/MOL
REMARK 924 INTRA-LIGAND FREE ENERGY PREDICTED BY IDOCK:   -0.33 KCAL/MOL
REMARK 927      BINDING AFFINITY PREDICTED BY RF-SCORE:    0.00 PKD
ROOT
HETATM    1  O   UNL     1      -8.222  13.616  66.898  1.00  0.00    -0.392 OA 
HETATM    2  C   UNL     1      -8.923  12.445  66.795  1.00  0.00    -0.205 A  
HETATM    3  H   UNL     1      -8.691  14.442  66.944  1.00  0.00     0.000 HD 
HETATM    4  C   UNL     1      -8.234  11.233  66.727  1.00  0.00    -0.158 A  
HETATM    5  C   UNL     1      -8.955  10.043  66.620  1.00  0.00    -0.139 A  
HETATM    6  C   UNL     1     -10.346  10.062  66.541  1.00  0.00    -0.268 A  
HETATM    7 CL   UNL     1      -8.120   8.541  66.588  1.00  0.00    -0.103 Cl 
HETATM    8  C   UNL     1     -11.030  11.277  66.587  1.00  0.00    -0.326 A  
HETATM    9  C   UNL     1     -10.324  12.474  66.766  1.00  0.00    -0.226 A  
ENDROOT
BRANCH   9  10
HETATM   10  O   UNL     1     -10.950  13.698  66.839  1.00  0.00    -0.285 OA 
BRANCH  10  11
HETATM   11  C   UNL     1     -11.316  14.220  68.065  1.00  0.00    -0.294 A  
HETATM   12  C   UNL     1     -11.049  15.576  68.301  1.00  0.00    -0.322 A  
HETATM   13  C   UNL     1     -11.331  16.155  69.544  1.00  0.00    -0.321 A  
HETATM   14 CL   UNL     1     -10.368  16.587  67.075  1.00  0.00    -0.299 Cl 
HETATM   15  C   UNL     1     -11.887  15.374  70.553  1.00  0.00    -0.339 A  
HETATM   16  C   UNL     1     -12.160  14.025  70.335  1.00  0.00    -0.426 A  
HETATM   17 CL   UNL     1     -12.214  16.072  72.092  1.00  0.00    -0.564 Cl 
HETATM   18  C   UNL     1     -11.856  13.444  69.099  1.00  0.00    -0.383 A  
ENDBRANCH  10  11
ENDBRANCH   9  10
TORSDOF 2
ENDMDL
MODEL      102
REMARK 921   NORMALIZED FREE ENERGY PREDICTED BY IDOCK:   -4.54 KCAL/MOL
REMARK 922        TOTAL FREE ENERGY PREDICTED BY IDOCK:   -5.37 KCAL/MOL
REMARK 923 INTER-LIGAND FREE ENERGY PREDICTED BY IDOCK:   -5.02 KCAL/MOL
REMARK 924 INTRA-LIGAND FREE ENERGY PREDICTED BY IDOCK:   -0.35 KCAL/MOL
REMARK 927      BINDING AFFINITY PREDICTED BY RF-SCORE:    0.00 PKD
ROOT
HETATM    1  O   UNL     1      -9.673   9.482  68.357  1.00  0.00    -0.150 OA 
HETATM    2  C   UNL     1     -10.592  10.213  69.061  1.00  0.00    -0.223 A  
HETATM    3  H   UNL     1      -9.260   9.861  67.589  1.00  0.00     0.000 HD 
HETATM    4  C   UNL     1     -11.198   9.657  70.188  1.00  0.00    -0.302 A  
HETATM    5  C   UNL     1     -12.135  10.408  70.899  1.00  0.00    -0.374 A  
HETATM    6  C   UNL     1     -12.495  11.684  70.470  1.00  0.00    -0.344 A  
HETATM    7 CL   UNL     1     -12.851   9.754  72.319  1.00  0.00    -0.425 Cl 
HETATM    8  C   UNL     1     -11.902  12.228  69.330  1.00  0.00    -0.363 A  
HETATM    9  C   UNL     1     -10.908  11.515  68.647  1.00  0.00    -0.212 A  
ENDROOT
BRANCH   9  10
HETATM   10  O   UNL     1     -10.277  12.012  67.528  1.00  0.00    -0.195 OA 
BRANCH  10  11
HETATM   11  C   UNL     1     -10.321  13.365  67.249  1.00  0.00    -0.244 A  
HETATM   12  C   UNL     1     -11.193  13.792  66.238  1.00  0.00    -0.306 A  
HETATM   13  C   UNL     1     -11.239  15.138  65.855  1.00  0.00    -0.280 A  
HETATM   14 CL   UNL     1     -12.243  12.685  65.425  1.00  0.00    -0.519 Cl 
HETATM   15  C   UNL     1     -10.414  16.061  66.492  1.00  0.00    -0.302 A  
HETATM   16  C   UNL     1      -9.544  15.653  67.500  1.00  0.00    -0.224 A  
HETATM   17 CL   UNL     1     -10.449  17.712  66.011  1.00  0.00    -0.342 Cl 
HETATM   18  C   UNL     1      -9.482  14.304  67.865  1.00  0.00    -0.212 A  
ENDBRANCH  10  11
ENDBRANCH   9  10
TORSDOF 2
ENDMDL
MODEL      103
REMARK 921   NORMALIZED FREE ENERGY PREDICTED BY IDOCK:   -4.51 KCAL/MOL
REMARK 922        TOTAL FREE ENERGY PREDICTED BY IDOCK:   -5.34 KCAL/MOL
REMARK 923 INTER-LIGAND FREE ENERGY PREDICTED BY IDOCK:   -4.98 KCAL/MOL
REMARK 924 INTRA-LIGAND FREE ENERGY PREDICTED BY IDOCK:   -0.36 KCAL/MOL
REMARK 927      BINDING AFFINITY PREDICTED BY RF-SCORE:    0.00 PKD
ROOT
HETATM    1  O   UNL     1     -12.292  10.697  68.440  1.00  0.00    -0.776 OA 
HETATM    2  C   UNL     1     -10.938  10.888  68.513  1.00  0.00    -0.230 A  
HETATM    3  H   UNL     1     -12.827  11.306  67.945  1.00  0.00     0.000 HD 
HETATM    4  C   UNL     1     -10.153   9.992  69.240  1.00  0.00    -0.226 A  
HETATM    5  C   UNL     1      -8.774  10.195  69.311  1.00  0.00    -0.179 A  
HETATM    6  C   UNL     1      -8.188  11.301  68.697  1.00  0.00    -0.146 A  
HETATM    7 CL   UNL     1      -7.790   9.070  70.160  1.00  0.00    -0.087 Cl 
HETATM    8  C   UNL     1      -8.979  12.206  67.990  1.00  0.00    -0.189 A  
HETATM    9  C   UNL     1     -10.354  11.977  67.850  1.00  0.00    -0.197 A  
ENDROOT
BRANCH   9  10
HETATM   10  O   UNL     1     -11.178  12.826  67.146  1.00  0.00    -0.266 OA 
BRANCH  10  11
HETATM   11  C   UNL     1     -10.927  14.185  67.132  1.00  0.00    -0.299 A  
HETATM   12  C   UNL     1     -11.338  14.934  68.243  1.00  0.00    -0.310 A  
HETATM   13  C   UNL     1     -11.178  16.325  68.267  1.00  0.00    -0.324 A  
HETATM   14 CL   UNL     1     -12.055  14.180  69.624  1.00  0.00    -0.382 Cl 
HETATM   15  C   UNL     1     -10.597  16.967  67.177  1.00  0.00    -0.245 A  
HETATM   16  C   UNL     1     -10.181  16.237  66.066  1.00  0.00    -0.376 A  
HETATM   17 CL   UNL     1     -10.418  18.678  67.190  1.00  0.00    -0.437 Cl 
HETATM   18  C   UNL     1     -10.364  14.850  66.035  1.00  0.00    -0.313 A  
ENDBRANCH  10  11
ENDBRANCH   9  10
TORSDOF 2
ENDMDL
MODEL      104
REMARK 921   NORMALIZED FREE ENERGY PREDICTED BY IDOCK:   -4.50 KCAL/MOL
REMARK 922        TOTAL FREE ENERGY PREDICTED BY IDOCK:   -5.32 KCAL/MOL
REMARK 923 INTER-LIGAND FREE ENERGY PREDICTED BY IDOCK:   -5.22 KCAL/MOL
REMARK 924 INTRA-LIGAND FREE ENERGY PREDICTED BY IDOCK:   -0.11 KCAL/MOL
REMARK 927      BINDING AFFINITY PREDICTED BY RF-SCORE:    0.00 PKD
ROOT
HETATM    1  O   UNL     1     -10.152   9.346  69.435  1.00  0.00    -0.182 OA 
HETATM    2  C   UNL     1     -10.221   9.949  68.208  1.00  0.00    -0.176 A  
HETATM    3  H   UNL     1     -10.808   9.543  70.094  1.00  0.00     0.000 HD 
HETATM    4  C   UNL     1      -9.258   9.659  67.241  1.00  0.00    -0.154 A  
HETATM    5  C   UNL     1      -9.334  10.280  65.994  1.00  0.00    -0.180 A  
HETATM    6  C   UNL     1     -10.336  11.211  65.726  1.00  0.00    -0.316 A  
HETATM    7 CL   UNL     1      -8.184   9.892  64.777  1.00  0.00    -0.143 Cl 
HETATM    8  C   UNL     1     -11.285  11.515  66.702  1.00  0.00    -0.336 A  
HETATM    9  C   UNL     1     -11.262  10.847  67.934  1.00  0.00    -0.321 A  
ENDROOT
BRANCH   9  10
HETATM   10  O   UNL     1     -12.186  11.093  68.926  1.00  0.00    -0.522 OA 
BRANCH  10  11
HETATM   11  C   UNL     1     -12.108  12.252  69.676  1.00  0.00    -0.212 A  
HETATM   12  C   UNL     1     -12.574  12.204  70.997  1.00  0.00    -0.263 A  
HETATM   13  C   UNL     1     -12.589  13.356  71.792  1.00  0.00    -0.235 A  
HETATM   14 CL   UNL     1     -13.146  10.731  71.698  1.00  0.00    -0.552 Cl 
HETATM   15  C   UNL     1     -12.129  14.559  71.264  1.00  0.00    -0.354 A  
HETATM   16  C   UNL     1     -11.661  14.624  69.954  1.00  0.00    -0.333 A  
HETATM   17 CL   UNL     1     -12.166  15.984  72.228  1.00  0.00    -0.566 Cl 
HETATM   18  C   UNL     1     -11.669  13.476  69.154  1.00  0.00    -0.374 A  
ENDBRANCH  10  11
ENDBRANCH   9  10
TORSDOF 2
ENDMDL
MODEL      105
REMARK 921   NORMALIZED FREE ENERGY PREDICTED BY IDOCK:   -4.50 KCAL/MOL
REMARK 922        TOTAL FREE ENERGY PREDICTED BY IDOCK:   -5.32 KCAL/MOL
REMARK 923 INTER-LIGAND FREE ENERGY PREDICTED BY IDOCK:   -5.07 KCAL/MOL
REMARK 924 INTRA-LIGAND FREE ENERGY PREDICTED BY IDOCK:   -0.26 KCAL/MOL
REMARK 927      BINDING AFFINITY PREDICTED BY RF-SCORE:    0.00 PKD
ROOT
HETATM    1  O   UNL     1      -9.242  11.103  67.811  1.00  0.00    -0.148 OA 
HETATM    2  C   UNL     1     -10.163  11.813  68.533  1.00  0.00    -0.210 A  
HETATM    3  H   UNL     1      -8.661  11.559  67.212  1.00  0.00     0.000 HD 
HETATM    4  C   UNL     1     -11.016  11.144  69.411  1.00  0.00    -0.298 A  
HETATM    5  C   UNL     1     -11.954  11.874  70.142  1.00  0.00    -0.332 A  
HETATM    6  C   UNL     1     -12.068  13.253  69.971  1.00  0.00    -0.385 A  
HETATM    7 CL   UNL     1     -12.975  11.068  71.265  1.00  0.00    -0.491 Cl 
HETATM    8  C   UNL     1     -11.228  13.916  69.076  1.00  0.00    -0.312 A  
HETATM    9  C   UNL     1     -10.235  13.206  68.388  1.00  0.00    -0.247 A  
ENDROOT
BRANCH   9  10
HETATM   10  O   UNL     1      -9.366  13.813  67.508  1.00  0.00    -0.207 OA 
BRANCH  10  11
HETATM   11  C   UNL     1      -9.626  15.089  67.045  1.00  0.00    -0.225 A  
HETATM   12  C   UNL     1      -9.112  16.165  67.781  1.00  0.00    -0.197 A  
HETATM   13  C   UNL     1      -9.392  17.485  67.410  1.00  0.00    -0.249 A  
HETATM   14 CL   UNL     1      -8.114  15.912  69.171  1.00  0.00    -0.228 Cl 
HETATM   15  C   UNL     1     -10.186  17.729  66.292  1.00  0.00    -0.364 A  
HETATM   16  C   UNL     1     -10.702  16.670  65.548  1.00  0.00    -0.234 A  
HETATM   17 CL   UNL     1     -10.554  19.348  65.842  1.00  0.00    -0.584 Cl 
HETATM   18  C   UNL     1     -10.440  15.352  65.935  1.00  0.00    -0.354 A  
ENDBRANCH  10  11
ENDBRANCH   9  10
TORSDOF 2
ENDMDL
MODEL      106
REMARK 921   NORMALIZED FREE ENERGY PREDICTED BY IDOCK:   -4.49 KCAL/MOL
REMARK 922        TOTAL FREE ENERGY PREDICTED BY IDOCK:   -5.31 KCAL/MOL
REMARK 923 INTER-LIGAND FREE ENERGY PREDICTED BY IDOCK:   -4.79 KCAL/MOL
REMARK 924 INTRA-LIGAND FREE ENERGY PREDICTED BY IDOCK:   -0.52 KCAL/MOL
REMARK 927      BINDING AFFINITY PREDICTED BY RF-SCORE:    0.00 PKD
ROOT
HETATM    1  O   UNL     1      -8.148  12.747  66.622  1.00  0.00    -0.403 OA 
HETATM    2  C   UNL     1      -9.504  12.913  66.523  1.00  0.00    -0.251 A  
HETATM    3  H   UNL     1      -7.797  12.106  67.229  1.00  0.00     0.000 HD 
HETATM    4  C   UNL     1     -10.019  13.854  65.632  1.00  0.00    -0.298 A  
HETATM    5  C   UNL     1     -11.402  14.020  65.538  1.00  0.00    -0.313 A  
HETATM    6  C   UNL     1     -12.261  13.285  66.353  1.00  0.00    -0.419 A  
HETATM    7 CL   UNL     1     -12.052  15.140  64.407  1.00  0.00    -0.404 Cl 
HETATM    8  C   UNL     1     -11.740  12.360  67.258  1.00  0.00    -0.419 A  
HETATM    9  C   UNL     1     -10.359  12.132  67.313  1.00  0.00    -0.212 A  
ENDROOT
BRANCH   9  10
HETATM   10  O   UNL     1      -9.793  11.217  68.173  1.00  0.00    -0.172 OA 
BRANCH  10  11
HETATM   11  C   UNL     1     -10.030   9.866  68.005  1.00  0.00    -0.152 A  
HETATM   12  C   UNL     1     -10.521   9.150  69.105  1.00  0.00    -0.217 A  
HETATM   13  C   UNL     1     -10.718   7.766  69.027  1.00  0.00    -0.119 A  
HETATM   14 CL   UNL     1     -10.903   9.937  70.596  1.00  0.00    -0.386 Cl 
HETATM   15  C   UNL     1     -10.429   7.098  67.841  1.00  0.00    -0.212 A  
HETATM   16  C   UNL     1      -9.942   7.795  66.737  1.00  0.00    -0.331 A  
HETATM   17 CL   UNL     1     -10.647   5.394  67.745  1.00  0.00    -0.213 Cl 
HETATM   18  C   UNL     1      -9.723   9.174  66.825  1.00  0.00    -0.271 A  
ENDBRANCH  10  11
ENDBRANCH   9  10
TORSDOF 2
ENDMDL
MODEL      107
REMARK 921   NORMALIZED FREE ENERGY PREDICTED BY IDOCK:   -4.48 KCAL/MOL
REMARK 922        TOTAL FREE ENERGY PREDICTED BY IDOCK:   -5.31 KCAL/MOL
REMARK 923 INTER-LIGAND FREE ENERGY PREDICTED BY IDOCK:   -5.53 KCAL/MOL
REMARK 924 INTRA-LIGAND FREE ENERGY PREDICTED BY IDOCK:    0.22 KCAL/MOL
REMARK 927      BINDING AFFINITY PREDICTED BY RF-SCORE:    0.00 PKD
ROOT
HETATM    1  O   UNL     1     -12.003  12.947  66.939  1.00  0.00    -0.385 OA 
HETATM    2  C   UNL     1     -11.296  11.871  66.476  1.00  0.00    -0.341 A  
HETATM    3  H   UNL     1     -12.302  12.960  67.842  1.00  0.00     0.000 HD 
HETATM    4  C   UNL     1     -10.858  11.852  65.151  1.00  0.00    -0.350 A  
HETATM    5  C   UNL     1     -10.139  10.750  64.685  1.00  0.00    -0.344 A  
HETATM    6  C   UNL     1      -9.893   9.661  65.518  1.00  0.00    -0.352 A  
HETATM    7 CL   UNL     1      -9.549  10.739  63.070  1.00  0.00    -0.346 Cl 
HETATM    8  C   UNL     1     -10.352   9.673  66.836  1.00  0.00    -0.307 A  
HETATM    9  C   UNL     1     -11.013  10.802  67.338  1.00  0.00    -0.300 A  
ENDROOT
BRANCH   9  10
HETATM   10  O   UNL     1     -11.468  10.876  68.635  1.00  0.00    -0.268 OA 
BRANCH  10  11
HETATM   11  C   UNL     1     -10.851  10.144  69.632  1.00  0.00    -0.263 A  
HETATM   12  C   UNL     1     -11.618   9.793  70.751  1.00  0.00    -0.339 A  
HETATM   13  C   UNL     1     -11.040   9.112  71.829  1.00  0.00    -0.437 A  
HETATM   14 CL   UNL     1     -13.300  10.181  70.850  1.00  0.00    -0.381 Cl 
HETATM   15  C   UNL     1      -9.690   8.775  71.783  1.00  0.00    -0.310 A  
HETATM   16  C   UNL     1      -8.914   9.115  70.677  1.00  0.00    -0.292 A  
HETATM   17 CL   UNL     1      -8.967   7.959  73.114  1.00  0.00    -0.272 Cl 
HETATM   18  C   UNL     1      -9.488   9.817  69.612  1.00  0.00    -0.237 A  
ENDBRANCH  10  11
ENDBRANCH   9  10
TORSDOF 2
ENDMDL
MODEL      108
REMARK 921   NORMALIZED FREE ENERGY PREDICTED BY IDOCK:   -4.48 KCAL/MOL
REMARK 922        TOTAL FREE ENERGY PREDICTED BY IDOCK:   -5.31 KCAL/MOL
REMARK 923 INTER-LIGAND FREE ENERGY PREDICTED BY IDOCK:   -4.82 KCAL/MOL
REMARK 924 INTRA-LIGAND FREE ENERGY PREDICTED BY IDOCK:   -0.48 KCAL/MOL
REMARK 927      BINDING AFFINITY PREDICTED BY RF-SCORE:    0.00 PKD
ROOT
HETATM    1  O   UNL     1     -12.277  10.904  68.943  1.00  0.00    -0.709 OA 
HETATM    2  C   UNL     1     -11.417  10.699  67.897  1.00  0.00    -0.181 A  
HETATM    3  H   UNL     1     -12.628  11.773  69.100  1.00  0.00     0.000 HD 
HETATM    4  C   UNL     1     -10.903   9.423  67.667  1.00  0.00    -0.222 A  
HETATM    5  C   UNL     1     -10.025   9.223  66.601  1.00  0.00    -0.264 A  
HETATM    6  C   UNL     1      -9.632  10.291  65.796  1.00  0.00    -0.279 A  
HETATM    7 CL   UNL     1      -9.424   7.645  66.276  1.00  0.00    -0.210 Cl 
HETATM    8  C   UNL     1     -10.132  11.570  66.042  1.00  0.00    -0.270 A  
HETATM    9  C   UNL     1     -11.069  11.772  67.065  1.00  0.00    -0.304 A  
ENDROOT
BRANCH   9  10
HETATM   10  O   UNL     1     -11.609  13.009  67.339  1.00  0.00    -0.314 OA 
BRANCH  10  11
HETATM   11  C   UNL     1     -10.784  14.084  67.612  1.00  0.00    -0.257 A  
HETATM   12  C   UNL     1     -10.562  15.011  66.585  1.00  0.00    -0.301 A  
HETATM   13  C   UNL     1      -9.683  16.086  66.769  1.00  0.00    -0.253 A  
HETATM   14 CL   UNL     1     -11.357  14.871  65.056  1.00  0.00    -0.382 Cl 
HETATM   15  C   UNL     1      -9.030  16.235  67.989  1.00  0.00    -0.187 A  
HETATM   16  C   UNL     1      -9.242  15.324  69.021  1.00  0.00    -0.223 A  
HETATM   17 CL   UNL     1      -7.932  17.541  68.214  1.00  0.00    -0.250 Cl 
HETATM   18  C   UNL     1     -10.102  14.238  68.826  1.00  0.00    -0.217 A  
ENDBRANCH  10  11
ENDBRANCH   9  10
TORSDOF 2
ENDMDL
MODEL      109
REMARK 921   NORMALIZED FREE ENERGY PREDICTED BY IDOCK:   -4.46 KCAL/MOL
REMARK 922        TOTAL FREE ENERGY PREDICTED BY IDOCK:   -5.28 KCAL/MOL
REMARK 923 INTER-LIGAND FREE ENERGY PREDICTED BY IDOCK:   -4.73 KCAL/MOL
REMARK 924 INTRA-LIGAND FREE ENERGY PREDICTED BY IDOCK:   -0.55 KCAL/MOL
REMARK 927      BINDING AFFINITY PREDICTED BY RF-SCORE:    0.00 PKD
ROOT
HETATM    1  O   UNL     1      -7.176   8.411  66.525  1.00  0.00    -0.075 OA 
HETATM    2  C   UNL     1      -8.368   7.778  66.751  1.00  0.00    -0.125 A  
HETATM    3  H   UNL     1      -7.131   9.360  66.571  1.00  0.00     0.000 HD 
HETATM    4  C   UNL     1      -8.434   6.386  66.684  1.00  0.00    -0.115 A  
HETATM    5  C   UNL     1      -9.654   5.748  66.913  1.00  0.00    -0.141 A  
HETATM    6  C   UNL     1     -10.805   6.491  67.167  1.00  0.00    -0.472 A  
HETATM    7 CL   UNL     1      -9.736   4.031  66.885  1.00  0.00    -0.238 Cl 
HETATM    8  C   UNL     1     -10.740   7.883  67.211  1.00  0.00    -0.299 A  
HETATM    9  C   UNL     1      -9.509   8.534  67.054  1.00  0.00    -0.173 A  
ENDROOT
BRANCH   9  10
HETATM   10  O   UNL     1      -9.385   9.905  67.108  1.00  0.00    -0.143 OA 
BRANCH  10  11
HETATM   11  C   UNL     1      -9.983  10.696  66.145  1.00  0.00    -0.228 A  
HETATM   12  C   UNL     1     -11.000  11.567  66.558  1.00  0.00    -0.293 A  
HETATM   13  C   UNL     1     -11.695  12.348  65.627  1.00  0.00    -0.468 A  
HETATM   14 CL   UNL     1     -11.437  11.717  68.224  1.00  0.00    -0.339 Cl 
HETATM   15  C   UNL     1     -11.366  12.260  64.277  1.00  0.00    -0.352 A  
HETATM   16  C   UNL     1     -10.356  11.401  63.850  1.00  0.00    -0.434 A  
HETATM   17 CL   UNL     1     -12.232  13.199  63.124  1.00  0.00    -0.489 Cl 
HETATM   18  C   UNL     1      -9.679  10.605  64.780  1.00  0.00    -0.350 A  
ENDBRANCH  10  11
ENDBRANCH   9  10
TORSDOF 2
ENDMDL
MODEL      110
REMARK 921   NORMALIZED FREE ENERGY PREDICTED BY IDOCK:   -4.45 KCAL/MOL
REMARK 922        TOTAL FREE ENERGY PREDICTED BY IDOCK:   -5.27 KCAL/MOL
REMARK 923 INTER-LIGAND FREE ENERGY PREDICTED BY IDOCK:   -5.36 KCAL/MOL
REMARK 924 INTRA-LIGAND FREE ENERGY PREDICTED BY IDOCK:    0.09 KCAL/MOL
REMARK 927      BINDING AFFINITY PREDICTED BY RF-SCORE:    0.00 PKD
ROOT
HETATM    1  O   UNL     1     -12.399  13.302  70.746  1.00  0.00    -0.360 OA 
HETATM    2  C   UNL     1     -11.975  13.830  69.556  1.00  0.00    -0.345 A  
HETATM    3  H   UNL     1     -12.650  12.387  70.791  1.00  0.00     0.000 HD 
HETATM    4  C   UNL     1     -11.608  15.174  69.490  1.00  0.00    -0.340 A  
HETATM    5  C   UNL     1     -11.179  15.706  68.272  1.00  0.00    -0.353 A  
HETATM    6  C   UNL     1     -11.154  14.917  67.124  1.00  0.00    -0.332 A  
HETATM    7 CL   UNL     1     -10.674  17.347  68.189  1.00  0.00    -0.373 Cl 
HETATM    8  C   UNL     1     -11.543  13.578  67.190  1.00  0.00    -0.393 A  
HETATM    9  C   UNL     1     -11.908  13.013  68.419  1.00  0.00    -0.334 A  
ENDROOT
BRANCH   9  10
HETATM   10  O   UNL     1     -12.281  11.693  68.544  1.00  0.00    -0.485 OA 
BRANCH  10  11
HETATM   11  C   UNL     1     -11.397  10.767  69.065  1.00  0.00    -0.284 A  
HETATM   12  C   UNL     1     -10.547  10.104  68.169  1.00  0.00    -0.223 A  
HETATM   13  C   UNL     1      -9.674   9.105  68.617  1.00  0.00    -0.164 A  
HETATM   14 CL   UNL     1     -10.537  10.488  66.484  1.00  0.00    -0.271 Cl 
HETATM   15  C   UNL     1      -9.648   8.773  69.969  1.00  0.00    -0.169 A  
HETATM   16  C   UNL     1     -10.485   9.425  70.873  1.00  0.00    -0.381 A  
HETATM   17 CL   UNL     1      -8.595   7.531  70.524  1.00  0.00    -0.136 Cl 
HETATM   18  C   UNL     1     -11.373  10.406  70.419  1.00  0.00    -0.417 A  
ENDBRANCH  10  11
ENDBRANCH   9  10
TORSDOF 2
ENDMDL
MODEL      111
REMARK 921   NORMALIZED FREE ENERGY PREDICTED BY IDOCK:   -4.42 KCAL/MOL
REMARK 922        TOTAL FREE ENERGY PREDICTED BY IDOCK:   -5.24 KCAL/MOL
REMARK 923 INTER-LIGAND FREE ENERGY PREDICTED BY IDOCK:   -5.12 KCAL/MOL
REMARK 924 INTRA-LIGAND FREE ENERGY PREDICTED BY IDOCK:   -0.12 KCAL/MOL
REMARK 927      BINDING AFFINITY PREDICTED BY RF-SCORE:    0.00 PKD
ROOT
HETATM    1  O   UNL     1     -11.724  15.782  68.426  1.00  0.00    -0.366 OA 
HETATM    2  C   UNL     1     -11.915  14.479  68.801  1.00  0.00    -0.280 A  
HETATM    3  H   UNL     1     -11.355  15.975  67.572  1.00  0.00     0.000 HD 
HETATM    4  C   UNL     1     -12.457  14.196  70.055  1.00  0.00    -0.352 A  
HETATM    5  C   UNL     1     -12.647  12.865  70.432  1.00  0.00    -0.074 A  
HETATM    6  C   UNL     1     -12.264  11.827  69.585  1.00  0.00    -0.248 A  
HETATM    7 CL   UNL     1     -13.362  12.504  71.953  1.00  0.00    -0.539 Cl 
HETATM    8  C   UNL     1     -11.702  12.115  68.341  1.00  0.00    -0.388 A  
HETATM    9  C   UNL     1     -11.571  13.445  67.920  1.00  0.00    -0.339 A  
ENDROOT
BRANCH   9  10
HETATM   10  O   UNL     1     -11.042  13.785  66.695  1.00  0.00    -0.304 OA 
BRANCH  10  11
HETATM   11  C   UNL     1     -10.730  12.801  65.775  1.00  0.00    -0.272 A  
HETATM   12  C   UNL     1      -9.493  12.157  65.907  1.00  0.00    -0.179 A  
HETATM   13  C   UNL     1      -9.082  11.199  64.971  1.00  0.00    -0.138 A  
HETATM   14 CL   UNL     1      -8.426  12.511  67.220  1.00  0.00    -0.178 Cl 
HETATM   15  C   UNL     1      -9.917  10.882  63.904  1.00  0.00    -0.343 A  
HETATM   16  C   UNL     1     -11.151  11.511  63.760  1.00  0.00    -0.471 A  
HETATM   17 CL   UNL     1      -9.409   9.723  62.737  1.00  0.00    -0.254 Cl 
HETATM   18  C   UNL     1     -11.549  12.484  64.683  1.00  0.00    -0.396 A  
ENDBRANCH  10  11
ENDBRANCH   9  10
TORSDOF 2
ENDMDL
MODEL      112
REMARK 921   NORMALIZED FREE ENERGY PREDICTED BY IDOCK:   -4.40 KCAL/MOL
REMARK 922        TOTAL FREE ENERGY PREDICTED BY IDOCK:   -5.21 KCAL/MOL
REMARK 923 INTER-LIGAND FREE ENERGY PREDICTED BY IDOCK:   -4.88 KCAL/MOL
REMARK 924 INTRA-LIGAND FREE ENERGY PREDICTED BY IDOCK:   -0.34 KCAL/MOL
REMARK 927      BINDING AFFINITY PREDICTED BY RF-SCORE:    0.00 PKD
ROOT
HETATM    1  O   UNL     1     -10.808   9.990  67.603  1.00  0.00    -0.270 OA 
HETATM    2  C   UNL     1     -10.813   9.735  68.948  1.00  0.00    -0.192 A  
HETATM    3  H   UNL     1     -11.318  10.714  67.260  1.00  0.00     0.000 HD 
HETATM    4  C   UNL     1     -10.063   8.672  69.451  1.00  0.00    -0.204 A  
HETATM    5  C   UNL     1     -10.076   8.416  70.824  1.00  0.00    -0.193 A  
HETATM    6  C   UNL     1     -10.860   9.187  71.680  1.00  0.00    -0.442 A  
HETATM    7 CL   UNL     1      -9.116   7.142  71.462  1.00  0.00    -0.142 Cl 
HETATM    8  C   UNL     1     -11.625  10.236  71.170  1.00  0.00    -0.385 A  
HETATM    9  C   UNL     1     -11.567  10.548  69.805  1.00  0.00    -0.294 A  
ENDROOT
BRANCH   9  10
HETATM   10  O   UNL     1     -12.286  11.584  69.252  1.00  0.00    -0.242 OA 
BRANCH  10  11
HETATM   11  C   UNL     1     -11.753  12.859  69.216  1.00  0.00    -0.321 A  
HETATM   12  C   UNL     1     -12.145  13.756  70.219  1.00  0.00    -0.355 A  
HETATM   13  C   UNL     1     -11.698  15.084  70.205  1.00  0.00    -0.338 A  
HETATM   14 CL   UNL     1     -13.187  13.269  71.509  1.00  0.00    -0.416 Cl 
HETATM   15  C   UNL     1     -10.852  15.511  69.186  1.00  0.00    -0.251 A  
HETATM   16  C   UNL     1     -10.451  14.631  68.183  1.00  0.00    -0.237 A  
HETATM   17 CL   UNL     1     -10.317  17.147  69.150  1.00  0.00    -0.317 Cl 
HETATM   18  C   UNL     1     -10.918  13.312  68.187  1.00  0.00    -0.278 A  
ENDBRANCH  10  11
ENDBRANCH   9  10
TORSDOF 2
ENDMDL
MODEL      113
REMARK 921   NORMALIZED FREE ENERGY PREDICTED BY IDOCK:   -4.39 KCAL/MOL
REMARK 922        TOTAL FREE ENERGY PREDICTED BY IDOCK:   -5.20 KCAL/MOL
REMARK 923 INTER-LIGAND FREE ENERGY PREDICTED BY IDOCK:   -4.82 KCAL/MOL
REMARK 924 INTRA-LIGAND FREE ENERGY PREDICTED BY IDOCK:   -0.38 KCAL/MOL
REMARK 927      BINDING AFFINITY PREDICTED BY RF-SCORE:    0.00 PKD
ROOT
HETATM    1  O   UNL     1     -10.046  10.492  62.505  1.00  0.00    -0.744 OA 
HETATM    2  C   UNL     1     -10.463  11.162  63.623  1.00  0.00    -0.376 A  
HETATM    3  H   UNL     1      -9.598   9.659  62.596  1.00  0.00     0.000 HD 
HETATM    4  C   UNL     1     -11.121  12.385  63.490  1.00  0.00    -0.521 A  
HETATM    5  C   UNL     1     -11.540  13.063  64.635  1.00  0.00    -0.346 A  
HETATM    6  C   UNL     1     -11.272  12.549  65.902  1.00  0.00    -0.356 A  
HETATM    7 CL   UNL     1     -12.398  14.545  64.482  1.00  0.00    -0.476 Cl 
HETATM    8  C   UNL     1     -10.594  11.336  66.032  1.00  0.00    -0.314 A  
HETATM    9  C   UNL     1     -10.230  10.609  64.891  1.00  0.00    -0.324 A  
ENDROOT
BRANCH   9  10
HETATM   10  O   UNL     1      -9.578   9.399  64.961  1.00  0.00    -0.228 OA 
BRANCH  10  11
HETATM   11  C   UNL     1      -8.709   9.137  66.004  1.00  0.00    -0.153 A  
HETATM   12  C   UNL     1      -9.165   8.305  67.036  1.00  0.00    -0.152 A  
HETATM   13  C   UNL     1      -8.364   8.052  68.157  1.00  0.00    -0.127 A  
HETATM   14 CL   UNL     1     -10.722   7.558  66.972  1.00  0.00    -0.422 Cl 
HETATM   15  C   UNL     1      -7.101   8.630  68.241  1.00  0.00    -0.078 A  
HETATM   16  C   UNL     1      -6.632   9.457  67.223  1.00  0.00    -0.071 A  
HETATM   17 CL   UNL     1      -6.120   8.342  69.626  1.00  0.00    -0.032 Cl 
HETATM   18  C   UNL     1      -7.443   9.727  66.116  1.00  0.00    -0.101 A  
ENDBRANCH  10  11
ENDBRANCH   9  10
TORSDOF 2
ENDMDL
MODEL      114
REMARK 921   NORMALIZED FREE ENERGY PREDICTED BY IDOCK:   -4.37 KCAL/MOL
REMARK 922        TOTAL FREE ENERGY PREDICTED BY IDOCK:   -5.18 KCAL/MOL
REMARK 923 INTER-LIGAND FREE ENERGY PREDICTED BY IDOCK:   -5.01 KCAL/MOL
REMARK 924 INTRA-LIGAND FREE ENERGY PREDICTED BY IDOCK:   -0.17 KCAL/MOL
REMARK 927      BINDING AFFINITY PREDICTED BY RF-SCORE:    0.00 PKD
ROOT
HETATM    1  O   UNL     1      -9.069   8.239  70.444  1.00  0.00    -0.143 OA 
HETATM    2  C   UNL     1     -10.381   8.258  70.835  1.00  0.00    -0.192 A  
HETATM    3  H   UNL     1      -8.663   7.416  70.198  1.00  0.00     0.000 HD 
HETATM    4  C   UNL     1     -10.976   9.467  71.194  1.00  0.00    -0.438 A  
HETATM    5  C   UNL     1     -12.313   9.478  71.594  1.00  0.00    -0.398 A  
HETATM    6  C   UNL     1     -13.039   8.291  71.673  1.00  0.00    -0.354 A  
HETATM    7 CL   UNL     1     -13.073  10.968  71.990  1.00  0.00    -0.564 Cl 
HETATM    8  C   UNL     1     -12.434   7.080  71.333  1.00  0.00    -0.426 A  
HETATM    9  C   UNL     1     -11.114   7.063  70.862  1.00  0.00    -0.267 A  
ENDROOT
BRANCH   9  10
HETATM   10  O   UNL     1     -10.475   5.900  70.495  1.00  0.00    -0.220 OA 
BRANCH  10  11
HETATM   11  C   UNL     1     -10.404   5.537  69.163  1.00  0.00    -0.248 A  
HETATM   12  C   UNL     1      -9.698   4.369  68.844  1.00  0.00    -0.141 A  
HETATM   13  C   UNL     1      -9.527   3.978  67.510  1.00  0.00    -0.231 A  
HETATM   14 CL   UNL     1      -9.012   3.366  70.074  1.00  0.00    -0.154 Cl 
HETATM   15  C   UNL     1     -10.071   4.756  66.493  1.00  0.00    -0.257 A  
HETATM   16  C   UNL     1     -10.778   5.919  66.793  1.00  0.00    -0.371 A  
HETATM   17 CL   UNL     1      -9.846   4.295  64.851  1.00  0.00    -0.190 Cl 
HETATM   18  C   UNL     1     -10.927   6.320  68.125  1.00  0.00    -0.412 A  
ENDBRANCH  10  11
ENDBRANCH   9  10
TORSDOF 2
ENDMDL
MODEL      115
REMARK 921   NORMALIZED FREE ENERGY PREDICTED BY IDOCK:   -4.34 KCAL/MOL
REMARK 922        TOTAL FREE ENERGY PREDICTED BY IDOCK:   -5.14 KCAL/MOL
REMARK 923 INTER-LIGAND FREE ENERGY PREDICTED BY IDOCK:   -4.80 KCAL/MOL
REMARK 924 INTRA-LIGAND FREE ENERGY PREDICTED BY IDOCK:   -0.34 KCAL/MOL
REMARK 927      BINDING AFFINITY PREDICTED BY RF-SCORE:    0.00 PKD
ROOT
HETATM    1  O   UNL     1     -12.048  12.433  69.166  1.00  0.00    -0.253 OA 
HETATM    2  C   UNL     1     -12.019  13.580  69.913  1.00  0.00    -0.348 A  
HETATM    3  H   UNL     1     -11.677  12.432  68.291  1.00  0.00     0.000 HD 
HETATM    4  C   UNL     1     -12.564  13.580  71.197  1.00  0.00    -0.438 A  
HETATM    5  C   UNL     1     -12.533  14.754  71.952  1.00  0.00    -0.340 A  
HETATM    6  C   UNL     1     -12.000  15.926  71.418  1.00  0.00    -0.515 A  
HETATM    7 CL   UNL     1     -13.154  14.754  73.554  1.00  0.00    -0.468 Cl 
HETATM    8  C   UNL     1     -11.476  15.927  70.125  1.00  0.00    -0.366 A  
HETATM    9  C   UNL     1     -11.436  14.739  69.382  1.00  0.00    -0.301 A  
ENDROOT
BRANCH   9  10
HETATM   10  O   UNL     1     -10.912  14.679  68.110  1.00  0.00    -0.249 OA 
BRANCH  10  11
HETATM   11  C   UNL     1      -9.637  15.151  67.861  1.00  0.00    -0.203 A  
HETATM   12  C   UNL     1      -9.514  16.442  67.331  1.00  0.00    -0.227 A  
HETATM   13  C   UNL     1      -8.258  16.959  66.989  1.00  0.00    -0.228 A  
HETATM   14 CL   UNL     1     -10.897  17.449  67.078  1.00  0.00    -0.138 Cl 
HETATM   15  C   UNL     1      -7.121  16.180  67.185  1.00  0.00    -0.218 A  
HETATM   16  C   UNL     1      -7.226  14.895  67.713  1.00  0.00    -0.190 A  
HETATM   17 CL   UNL     1      -5.576  16.799  66.746  1.00  0.00    -0.158 Cl 
HETATM   18  C   UNL     1      -8.484  14.373  68.031  1.00  0.00    -0.164 A  
ENDBRANCH  10  11
ENDBRANCH   9  10
TORSDOF 2
ENDMDL
MODEL      116
REMARK 921   NORMALIZED FREE ENERGY PREDICTED BY IDOCK:   -4.34 KCAL/MOL
REMARK 922        TOTAL FREE ENERGY PREDICTED BY IDOCK:   -5.14 KCAL/MOL
REMARK 923 INTER-LIGAND FREE ENERGY PREDICTED BY IDOCK:   -4.92 KCAL/MOL
REMARK 924 INTRA-LIGAND FREE ENERGY PREDICTED BY IDOCK:   -0.23 KCAL/MOL
REMARK 927      BINDING AFFINITY PREDICTED BY RF-SCORE:    0.00 PKD
ROOT
HETATM    1  O   UNL     1      -9.406   6.491  73.376  1.00  0.00    -0.131 OA 
HETATM    2  C   UNL     1      -9.850   6.109  72.138  1.00  0.00    -0.157 A  
HETATM    3  H   UNL     1      -9.707   7.311  73.750  1.00  0.00     0.000 HD 
HETATM    4  C   UNL     1      -9.408   4.905  71.589  1.00  0.00    -0.192 A  
HETATM    5  C   UNL     1      -9.863   4.523  70.326  1.00  0.00    -0.229 A  
HETATM    6  C   UNL     1     -10.719   5.350  69.601  1.00  0.00    -0.267 A  
HETATM    7 CL   UNL     1      -9.366   3.018  69.660  1.00  0.00    -0.222 Cl 
HETATM    8  C   UNL     1     -11.142   6.563  70.145  1.00  0.00    -0.410 A  
HETATM    9  C   UNL     1     -10.750   6.927  71.440  1.00  0.00    -0.221 A  
ENDROOT
BRANCH   9  10
HETATM   10  O   UNL     1     -11.153   8.102  72.033  1.00  0.00    -0.266 OA 
BRANCH  10  11
HETATM   11  C   UNL     1     -11.288   9.252  71.277  1.00  0.00    -0.353 A  
HETATM   12  C   UNL     1     -12.496   9.955  71.373  1.00  0.00    -0.398 A  
HETATM   13  C   UNL     1     -12.728  11.089  70.585  1.00  0.00    -0.375 A  
HETATM   14 CL   UNL     1     -13.745   9.459  72.461  1.00  0.00    -0.479 Cl 
HETATM   15  C   UNL     1     -11.744  11.523  69.703  1.00  0.00    -0.351 A  
HETATM   16  C   UNL     1     -10.536  10.837  69.597  1.00  0.00    -0.183 A  
HETATM   17 CL   UNL     1     -12.030  12.902  68.714  1.00  0.00    -0.333 Cl 
HETATM   18  C   UNL     1     -10.316   9.691  70.369  1.00  0.00    -0.350 A  
ENDBRANCH  10  11
ENDBRANCH   9  10
TORSDOF 2
ENDMDL
MODEL      117
REMARK 921   NORMALIZED FREE ENERGY PREDICTED BY IDOCK:   -4.31 KCAL/MOL
REMARK 922        TOTAL FREE ENERGY PREDICTED BY IDOCK:   -5.11 KCAL/MOL
REMARK 923 INTER-LIGAND FREE ENERGY PREDICTED BY IDOCK:   -4.64 KCAL/MOL
REMARK 924 INTRA-LIGAND FREE ENERGY PREDICTED BY IDOCK:   -0.47 KCAL/MOL
REMARK 927      BINDING AFFINITY PREDICTED BY RF-SCORE:    0.00 PKD
ROOT
HETATM    1  O   UNL     1     -12.641  13.158  69.739  1.00  0.00    -0.053 OA 
HETATM    2  C   UNL     1     -11.657  12.582  68.981  1.00  0.00    -0.314 A  
HETATM    3  H   UNL     1     -13.039  13.972  69.453  1.00  0.00     0.000 HD 
HETATM    4  C   UNL     1     -11.073  11.387  69.401  1.00  0.00    -0.301 A  
HETATM    5  C   UNL     1     -10.069  10.807  68.624  1.00  0.00    -0.183 A  
HETATM    6  C   UNL     1      -9.624  11.431  67.460  1.00  0.00    -0.176 A  
HETATM    7 CL   UNL     1      -9.378   9.308  69.104  1.00  0.00    -0.154 Cl 
HETATM    8  C   UNL     1     -10.196  12.638  67.055  1.00  0.00    -0.233 A  
HETATM    9  C   UNL     1     -11.253  13.195  67.787  1.00  0.00    -0.277 A  
ENDROOT
BRANCH   9  10
HETATM   10  O   UNL     1     -11.866  14.372  67.421  1.00  0.00    -0.382 OA 
BRANCH  10  11
HETATM   11  C   UNL     1     -11.242  15.583  67.654  1.00  0.00    -0.291 A  
HETATM   12  C   UNL     1     -10.718  16.268  66.549  1.00  0.00    -0.187 A  
HETATM   13  C   UNL     1     -10.013  17.466  66.718  1.00  0.00    -0.307 A  
HETATM   14 CL   UNL     1     -10.919  15.670  64.939  1.00  0.00    -0.454 Cl 
HETATM   15  C   UNL     1      -9.837  17.983  67.999  1.00  0.00    -0.323 A  
HETATM   16  C   UNL     1     -10.353  17.315  69.108  1.00  0.00    -0.290 A  
HETATM   17 CL   UNL     1      -8.952  19.442  68.217  1.00  0.00    -0.371 Cl 
HETATM   18  C   UNL     1     -11.037  16.107  68.938  1.00  0.00    -0.347 A  
ENDBRANCH  10  11
ENDBRANCH   9  10
TORSDOF 2
ENDMDL
MODEL      118
REMARK 921   NORMALIZED FREE ENERGY PREDICTED BY IDOCK:   -4.30 KCAL/MOL
REMARK 922        TOTAL FREE ENERGY PREDICTED BY IDOCK:   -5.10 KCAL/MOL
REMARK 923 INTER-LIGAND FREE ENERGY PREDICTED BY IDOCK:   -4.64 KCAL/MOL
REMARK 924 INTRA-LIGAND FREE ENERGY PREDICTED BY IDOCK:   -0.46 KCAL/MOL
REMARK 927      BINDING AFFINITY PREDICTED BY RF-SCORE:    0.00 PKD
ROOT
HETATM    1  O   UNL     1     -11.342  16.883  68.250  1.00  0.00    -0.223 OA 
HETATM    2  C   UNL     1     -10.062  16.987  67.778  1.00  0.00    -0.302 A  
HETATM    3  H   UNL     1     -11.732  16.025  68.368  1.00  0.00     0.000 HD 
HETATM    4  C   UNL     1      -9.490  18.248  67.605  1.00  0.00    -0.275 A  
HETATM    5  C   UNL     1      -8.185  18.346  67.120  1.00  0.00    -0.245 A  
HETATM    6  C   UNL     1      -7.470  17.201  66.774  1.00  0.00    -0.263 A  
HETATM    7 CL   UNL     1      -7.452  19.892  66.952  1.00  0.00    -0.267 Cl 
HETATM    8  C   UNL     1      -8.052  15.943  66.928  1.00  0.00    -0.285 A  
HETATM    9  C   UNL     1      -9.335  15.826  67.480  1.00  0.00    -0.209 A  
ENDROOT
BRANCH   9  10
HETATM   10  O   UNL     1      -9.950  14.608  67.672  1.00  0.00    -0.225 OA 
BRANCH  10  11
HETATM   11  C   UNL     1     -10.071  13.717  66.622  1.00  0.00    -0.277 A  
HETATM   12  C   UNL     1      -9.539  12.432  66.795  1.00  0.00    -0.224 A  
HETATM   13  C   UNL     1      -9.565  11.500  65.750  1.00  0.00    -0.259 A  
HETATM   14 CL   UNL     1      -8.833  11.943  68.296  1.00  0.00    -0.173 Cl 
HETATM   15  C   UNL     1     -10.132  11.855  64.530  1.00  0.00    -0.271 A  
HETATM   16  C   UNL     1     -10.668  13.128  64.342  1.00  0.00    -0.426 A  
HETATM   17 CL   UNL     1     -10.147  10.723  63.234  1.00  0.00    -0.364 Cl 
HETATM   18  C   UNL     1     -10.619  14.064  65.380  1.00  0.00    -0.351 A  
ENDBRANCH  10  11
ENDBRANCH   9  10
TORSDOF 2
ENDMDL
MODEL      119
REMARK 921   NORMALIZED FREE ENERGY PREDICTED BY IDOCK:   -4.29 KCAL/MOL
REMARK 922        TOTAL FREE ENERGY PREDICTED BY IDOCK:   -5.09 KCAL/MOL
REMARK 923 INTER-LIGAND FREE ENERGY PREDICTED BY IDOCK:   -4.63 KCAL/MOL
REMARK 924 INTRA-LIGAND FREE ENERGY PREDICTED BY IDOCK:   -0.46 KCAL/MOL
REMARK 927      BINDING AFFINITY PREDICTED BY RF-SCORE:    0.00 PKD
ROOT
HETATM    1  O   UNL     1      -7.237  14.384  66.937  1.00  0.00    -0.325 OA 
HETATM    2  C   UNL     1      -8.437  14.973  66.641  1.00  0.00    -0.157 A  
HETATM    3  H   UNL     1      -6.443  14.905  66.926  1.00  0.00     0.000 HD 
HETATM    4  C   UNL     1      -9.603  14.207  66.658  1.00  0.00    -0.301 A  
HETATM    5  C   UNL     1     -10.823  14.814  66.353  1.00  0.00    -0.322 A  
HETATM    6  C   UNL     1     -10.875  16.160  65.997  1.00  0.00    -0.155 A  
HETATM    7 CL   UNL     1     -12.273  13.893  66.420  1.00  0.00    -0.482 Cl 
HETATM    8  C   UNL     1      -9.704  16.917  65.960  1.00  0.00    -0.260 A  
HETATM    9  C   UNL     1      -8.483  16.339  66.333  1.00  0.00    -0.330 A  
ENDROOT
BRANCH   9  10
HETATM   10  O   UNL     1      -7.300  17.045  66.334  1.00  0.00    -0.254 OA 
BRANCH  10  11
HETATM   11  C   UNL     1      -6.958  17.827  67.422  1.00  0.00    -0.180 A  
HETATM   12  C   UNL     1      -6.980  19.218  67.255  1.00  0.00    -0.199 A  
HETATM   13  C   UNL     1      -6.580  20.069  68.292  1.00  0.00    -0.322 A  
HETATM   14 CL   UNL     1      -7.499  19.941  65.773  1.00  0.00    -0.338 Cl 
HETATM   15  C   UNL     1      -6.162  19.524  69.503  1.00  0.00    -0.300 A  
HETATM   16  C   UNL     1      -6.137  18.144  69.686  1.00  0.00    -0.234 A  
HETATM   17 CL   UNL     1      -5.647  20.563  70.775  1.00  0.00    -0.296 Cl 
HETATM   18  C   UNL     1      -6.515  17.295  68.640  1.00  0.00    -0.178 A  
ENDBRANCH  10  11
ENDBRANCH   9  10
TORSDOF 2
ENDMDL
MODEL      120
REMARK 921   NORMALIZED FREE ENERGY PREDICTED BY IDOCK:   -4.28 KCAL/MOL
REMARK 922        TOTAL FREE ENERGY PREDICTED BY IDOCK:   -5.08 KCAL/MOL
REMARK 923 INTER-LIGAND FREE ENERGY PREDICTED BY IDOCK:   -4.60 KCAL/MOL
REMARK 924 INTRA-LIGAND FREE ENERGY PREDICTED BY IDOCK:   -0.48 KCAL/MOL
REMARK 927      BINDING AFFINITY PREDICTED BY RF-SCORE:    0.00 PKD
ROOT
HETATM    1  O   UNL     1     -10.591  11.465  69.228  1.00  0.00    -0.336 OA 
HETATM    2  C   UNL     1     -10.791  11.645  67.886  1.00  0.00    -0.210 A  
HETATM    3  H   UNL     1      -9.993  10.790  69.528  1.00  0.00     0.000 HD 
HETATM    4  C   UNL     1     -11.669  12.636  67.446  1.00  0.00    -0.432 A  
HETATM    5  C   UNL     1     -11.869  12.811  66.076  1.00  0.00    -0.439 A  
HETATM    6  C   UNL     1     -11.232  11.983  65.155  1.00  0.00    -0.368 A  
HETATM    7 CL   UNL     1     -12.909  14.063  65.520  1.00  0.00    -0.534 Cl 
HETATM    8  C   UNL     1     -10.371  10.979  65.599  1.00  0.00    -0.311 A  
HETATM    9  C   UNL     1     -10.106  10.837  66.968  1.00  0.00    -0.208 A  
ENDROOT
BRANCH   9  10
HETATM   10  O   UNL     1      -9.250   9.876  67.460  1.00  0.00    -0.134 OA 
BRANCH  10  11
HETATM   11  C   UNL     1      -9.473   8.540  67.185  1.00  0.00    -0.162 A  
HETATM   12  C   UNL     1      -8.426   7.812  66.603  1.00  0.00    -0.129 A  
HETATM   13  C   UNL     1      -8.604   6.473  66.235  1.00  0.00    -0.141 A  
HETATM   14 CL   UNL     1      -6.880   8.530  66.317  1.00  0.00    -0.072 Cl 
HETATM   15  C   UNL     1      -9.834   5.859  66.458  1.00  0.00    -0.152 A  
HETATM   16  C   UNL     1     -10.884   6.568  67.038  1.00  0.00    -0.465 A  
HETATM   17 CL   UNL     1     -10.067   4.220  65.987  1.00  0.00    -0.235 Cl 
HETATM   18  C   UNL     1     -10.710   7.912  67.382  1.00  0.00    -0.278 A  
ENDBRANCH  10  11
ENDBRANCH   9  10
TORSDOF 2
ENDMDL
MODEL      121
REMARK 921   NORMALIZED FREE ENERGY PREDICTED BY IDOCK:   -4.28 KCAL/MOL
REMARK 922        TOTAL FREE ENERGY PREDICTED BY IDOCK:   -5.08 KCAL/MOL
REMARK 923 INTER-LIGAND FREE ENERGY PREDICTED BY IDOCK:   -5.08 KCAL/MOL
REMARK 924 INTRA-LIGAND FREE ENERGY PREDICTED BY IDOCK:    0.00 KCAL/MOL
REMARK 927      BINDING AFFINITY PREDICTED BY RF-SCORE:    0.00 PKD
ROOT
HETATM    1  O   UNL     1      -9.289  15.107  69.540  1.00  0.00    -0.351 OA 
HETATM    2  C   UNL     1      -9.127  16.199  68.731  1.00  0.00    -0.229 A  
HETATM    3  H   UNL     1      -9.983  14.484  69.356  1.00  0.00     0.000 HD 
HETATM    4  C   UNL     1      -8.109  17.113  69.001  1.00  0.00    -0.119 A  
HETATM    5  C   UNL     1      -7.952  18.226  68.173  1.00  0.00    -0.284 A  
HETATM    6  C   UNL     1      -8.826  18.447  67.111  1.00  0.00    -0.264 A  
HETATM    7 CL   UNL     1      -6.669  19.332  68.465  1.00  0.00    -0.290 Cl 
HETATM    8  C   UNL     1      -9.857  17.542  66.857  1.00  0.00    -0.302 A  
HETATM    9  C   UNL     1      -9.983  16.385  67.636  1.00  0.00    -0.252 A  
ENDROOT
BRANCH   9  10
HETATM   10  O   UNL     1     -10.969  15.449  67.417  1.00  0.00    -0.305 OA 
BRANCH  10  11
HETATM   11  C   UNL     1     -10.729  14.365  66.592  1.00  0.00    -0.292 A  
HETATM   12  C   UNL     1     -10.932  14.537  65.216  1.00  0.00    -0.360 A  
HETATM   13  C   UNL     1     -10.775  13.465  64.330  1.00  0.00    -0.423 A  
HETATM   14 CL   UNL     1     -11.382  16.070  64.556  1.00  0.00    -0.406 Cl 
HETATM   15  C   UNL     1     -10.405  12.217  64.824  1.00  0.00    -0.288 A  
HETATM   16  C   UNL     1     -10.197  12.029  66.189  1.00  0.00    -0.255 A  
HETATM   17 CL   UNL     1     -10.232  10.888  63.744  1.00  0.00    -0.411 Cl 
HETATM   18  C   UNL     1     -10.378  13.097  67.074  1.00  0.00    -0.249 A  
ENDBRANCH  10  11
ENDBRANCH   9  10
TORSDOF 2
ENDMDL
MODEL      122
REMARK 921   NORMALIZED FREE ENERGY PREDICTED BY IDOCK:   -4.28 KCAL/MOL
REMARK 922        TOTAL FREE ENERGY PREDICTED BY IDOCK:   -5.08 KCAL/MOL
REMARK 923 INTER-LIGAND FREE ENERGY PREDICTED BY IDOCK:   -4.61 KCAL/MOL
REMARK 924 INTRA-LIGAND FREE ENERGY PREDICTED BY IDOCK:   -0.47 KCAL/MOL
REMARK 927      BINDING AFFINITY PREDICTED BY RF-SCORE:    0.00 PKD
ROOT
HETATM    1  O   UNL     1      -7.458   7.872  68.201  1.00  0.00    -0.102 OA 
HETATM    2  C   UNL     1      -8.561   7.184  67.773  1.00  0.00    -0.126 A  
HETATM    3  H   UNL     1      -7.519   8.807  68.360  1.00  0.00     0.000 HD 
HETATM    4  C   UNL     1      -8.470   5.811  67.539  1.00  0.00    -0.103 A  
HETATM    5  C   UNL     1      -9.599   5.117  67.101  1.00  0.00    -0.146 A  
HETATM    6  C   UNL     1     -10.796   5.790  66.860  1.00  0.00    -0.337 A  
HETATM    7 CL   UNL     1      -9.514   3.418  66.858  1.00  0.00    -0.205 Cl 
HETATM    8  C   UNL     1     -10.877   7.166  67.075  1.00  0.00    -0.382 A  
HETATM    9  C   UNL     1      -9.772   7.864  67.582  1.00  0.00    -0.156 A  
ENDROOT
BRANCH   9  10
HETATM   10  O   UNL     1      -9.803   9.218  67.831  1.00  0.00    -0.155 OA 
BRANCH  10  11
HETATM   11  C   UNL     1     -10.625   9.724  68.821  1.00  0.00    -0.219 A  
HETATM   12  C   UNL     1     -11.342  10.893  68.535  1.00  0.00    -0.299 A  
HETATM   13  C   UNL     1     -12.140  11.500  69.514  1.00  0.00    -0.351 A  
HETATM   14 CL   UNL     1     -11.277  11.633  66.974  1.00  0.00    -0.360 Cl 
HETATM   15  C   UNL     1     -12.223  10.929  70.780  1.00  0.00    -0.383 A  
HETATM   16  C   UNL     1     -11.518   9.766  71.080  1.00  0.00    -0.458 A  
HETATM   17 CL   UNL     1     -13.183  11.682  71.994  1.00  0.00    -0.562 Cl 
HETATM   18  C   UNL     1     -10.704   9.175  70.108  1.00  0.00    -0.263 A  
ENDBRANCH  10  11
ENDBRANCH   9  10
TORSDOF 2
ENDMDL
MODEL      123
REMARK 921   NORMALIZED FREE ENERGY PREDICTED BY IDOCK:   -4.25 KCAL/MOL
REMARK 922        TOTAL FREE ENERGY PREDICTED BY IDOCK:   -5.05 KCAL/MOL
REMARK 923 INTER-LIGAND FREE ENERGY PREDICTED BY IDOCK:   -4.79 KCAL/MOL
REMARK 924 INTRA-LIGAND FREE ENERGY PREDICTED BY IDOCK:   -0.26 KCAL/MOL
REMARK 927      BINDING AFFINITY PREDICTED BY RF-SCORE:    0.00 PKD
ROOT
HETATM    1  O   UNL     1     -10.708  11.042  62.754  1.00  0.00    -0.779 OA 
HETATM    2  C   UNL     1     -10.535  11.768  63.901  1.00  0.00    -0.390 A  
HETATM    3  H   UNL     1     -10.532  10.108  62.759  1.00  0.00     0.000 HD 
HETATM    4  C   UNL     1     -10.794  13.139  63.894  1.00  0.00    -0.268 A  
HETATM    5  C   UNL     1     -10.614  13.874  65.067  1.00  0.00    -0.404 A  
HETATM    6  C   UNL     1     -10.142  13.257  66.225  1.00  0.00    -0.294 A  
HETATM    7 CL   UNL     1     -10.979  15.554  65.085  1.00  0.00    -0.409 Cl 
HETATM    8  C   UNL     1      -9.864  11.890  66.222  1.00  0.00    -0.246 A  
HETATM    9  C   UNL     1     -10.108  11.127  65.072  1.00  0.00    -0.283 A  
ENDROOT
BRANCH   9  10
HETATM   10  O   UNL     1      -9.870   9.771  65.020  1.00  0.00    -0.306 OA 
BRANCH  10  11
HETATM   11  C   UNL     1      -9.636   9.062  66.183  1.00  0.00    -0.272 A  
HETATM   12  C   UNL     1      -8.307   8.934  66.611  1.00  0.00    -0.111 A  
HETATM   13  C   UNL     1      -7.990   8.171  67.741  1.00  0.00    -0.127 A  
HETATM   14 CL   UNL     1      -7.011   9.707  65.769  1.00  0.00    -0.094 Cl 
HETATM   15  C   UNL     1      -9.008   7.539  68.450  1.00  0.00    -0.128 A  
HETATM   16  C   UNL     1     -10.334   7.658  68.039  1.00  0.00    -0.257 A  
HETATM   17 CL   UNL     1      -8.624   6.582  69.827  1.00  0.00    -0.135 Cl 
HETATM   18  C   UNL     1     -10.646   8.402  66.896  1.00  0.00    -0.285 A  
ENDBRANCH  10  11
ENDBRANCH   9  10
TORSDOF 2
ENDMDL
MODEL      124
REMARK 921   NORMALIZED FREE ENERGY PREDICTED BY IDOCK:   -4.24 KCAL/MOL
REMARK 922        TOTAL FREE ENERGY PREDICTED BY IDOCK:   -5.04 KCAL/MOL
REMARK 923 INTER-LIGAND FREE ENERGY PREDICTED BY IDOCK:   -4.75 KCAL/MOL
REMARK 924 INTRA-LIGAND FREE ENERGY PREDICTED BY IDOCK:   -0.29 KCAL/MOL
REMARK 927      BINDING AFFINITY PREDICTED BY RF-SCORE:    0.00 PKD
ROOT
HETATM    1  O   UNL     1      -9.054  12.192  65.642  1.00  0.00    -0.429 OA 
HETATM    2  C   UNL     1      -9.683  11.565  66.683  1.00  0.00    -0.199 A  
HETATM    3  H   UNL     1      -9.428  12.985  65.275  1.00  0.00     0.000 HD 
HETATM    4  C   UNL     1      -9.133  10.401  67.221  1.00  0.00    -0.146 A  
HETATM    5  C   UNL     1      -9.782   9.766  68.281  1.00  0.00    -0.145 A  
HETATM    6  C   UNL     1     -10.986  10.263  68.775  1.00  0.00    -0.285 A  
HETATM    7 CL   UNL     1      -9.087   8.360  68.986  1.00  0.00    -0.147 Cl 
HETATM    8  C   UNL     1     -11.544  11.416  68.221  1.00  0.00    -0.376 A  
HETATM    9  C   UNL     1     -10.868  12.103  67.204  1.00  0.00    -0.244 A  
ENDROOT
BRANCH   9  10
HETATM   10  O   UNL     1     -11.363  13.256  66.635  1.00  0.00    -0.301 OA 
BRANCH  10  11
HETATM   11  C   UNL     1     -11.051  14.488  67.178  1.00  0.00    -0.321 A  
HETATM   12  C   UNL     1     -10.794  15.543  66.291  1.00  0.00    -0.283 A  
HETATM   13  C   UNL     1     -10.405  16.800  66.768  1.00  0.00    -0.293 A  
HETATM   14 CL   UNL     1     -10.946  15.340  64.581  1.00  0.00    -0.374 Cl 
HETATM   15  C   UNL     1     -10.279  17.003  68.139  1.00  0.00    -0.322 A  
HETATM   16  C   UNL     1     -10.533  15.967  69.034  1.00  0.00    -0.234 A  
HETATM   17 CL   UNL     1      -9.779  18.539  68.733  1.00  0.00    -0.393 Cl 
HETATM   18  C   UNL     1     -10.899  14.705  68.553  1.00  0.00    -0.256 A  
ENDBRANCH  10  11
ENDBRANCH   9  10
TORSDOF 2
ENDMDL
MODEL      125
REMARK 921   NORMALIZED FREE ENERGY PREDICTED BY IDOCK:   -4.20 KCAL/MOL
REMARK 922        TOTAL FREE ENERGY PREDICTED BY IDOCK:   -4.99 KCAL/MOL
REMARK 923 INTER-LIGAND FREE ENERGY PREDICTED BY IDOCK:   -4.70 KCAL/MOL
REMARK 924 INTRA-LIGAND FREE ENERGY PREDICTED BY IDOCK:   -0.28 KCAL/MOL
REMARK 927      BINDING AFFINITY PREDICTED BY RF-SCORE:    0.00 PKD
ROOT
HETATM    1  O   UNL     1     -11.620   6.874  69.201  1.00  0.00    -0.558 OA 
HETATM    2  C   UNL     1     -11.346   7.060  70.529  1.00  0.00    -0.312 A  
HETATM    3  H   UNL     1     -11.679   7.626  68.623  1.00  0.00     0.000 HD 
HETATM    4  C   UNL     1     -11.259   5.956  71.377  1.00  0.00    -0.285 A  
HETATM    5  C   UNL     1     -10.981   6.154  72.730  1.00  0.00    -0.260 A  
HETATM    6  C   UNL     1     -10.830   7.441  73.241  1.00  0.00    -0.417 A  
HETATM    7 CL   UNL     1     -10.820   4.798  73.775  1.00  0.00    -0.357 Cl 
HETATM    8  C   UNL     1     -10.939   8.545  72.394  1.00  0.00    -0.390 A  
HETATM    9  C   UNL     1     -11.148   8.357  71.021  1.00  0.00    -0.258 A  
ENDROOT
BRANCH   9  10
HETATM   10  O   UNL     1     -11.243   9.409  70.138  1.00  0.00    -0.242 OA 
BRANCH  10  11
HETATM   11  C   UNL     1     -10.104  10.069  69.716  1.00  0.00    -0.248 A  
HETATM   12  C   UNL     1     -10.271  11.217  68.929  1.00  0.00    -0.194 A  
HETATM   13  C   UNL     1      -9.161  11.895  68.410  1.00  0.00    -0.173 A  
HETATM   14 CL   UNL     1     -11.841  11.842  68.569  1.00  0.00    -0.375 Cl 
HETATM   15  C   UNL     1      -7.880  11.426  68.685  1.00  0.00    -0.139 A  
HETATM   16  C   UNL     1      -7.697  10.287  69.467  1.00  0.00    -0.167 A  
HETATM   17 CL   UNL     1      -6.513  12.241  68.031  1.00  0.00    -0.068 Cl 
HETATM   18  C   UNL     1      -8.808   9.598  69.965  1.00  0.00    -0.259 A  
ENDBRANCH  10  11
ENDBRANCH   9  10
TORSDOF 2
ENDMDL
MODEL      126
REMARK 921   NORMALIZED FREE ENERGY PREDICTED BY IDOCK:   -4.18 KCAL/MOL
REMARK 922        TOTAL FREE ENERGY PREDICTED BY IDOCK:   -4.97 KCAL/MOL
REMARK 923 INTER-LIGAND FREE ENERGY PREDICTED BY IDOCK:   -4.58 KCAL/MOL
REMARK 924 INTRA-LIGAND FREE ENERGY PREDICTED BY IDOCK:   -0.39 KCAL/MOL
REMARK 927      BINDING AFFINITY PREDICTED BY RF-SCORE:    0.00 PKD
ROOT
HETATM    1  O   UNL     1      -8.917   9.132  64.755  1.00  0.00    -0.298 OA 
HETATM    2  C   UNL     1      -9.805   9.914  65.443  1.00  0.00    -0.313 A  
HETATM    3  H   UNL     1      -8.457   8.434  65.206  1.00  0.00     0.000 HD 
HETATM    4  C   UNL     1     -10.480  10.939  64.781  1.00  0.00    -0.373 A  
HETATM    5  C   UNL     1     -11.382  11.733  65.491  1.00  0.00    -0.223 A  
HETATM    6  C   UNL     1     -11.580  11.534  66.855  1.00  0.00    -0.166 A  
HETATM    7 CL   UNL     1     -12.258  12.966  64.674  1.00  0.00    -0.464 Cl 
HETATM    8  C   UNL     1     -10.887  10.521  67.519  1.00  0.00    -0.357 A  
HETATM    9  C   UNL     1     -10.032   9.671  66.805  1.00  0.00    -0.227 A  
ENDROOT
BRANCH   9  10
HETATM   10  O   UNL     1      -9.339   8.644  67.407  1.00  0.00    -0.140 OA 
BRANCH  10  11
HETATM   11  C   UNL     1      -9.888   7.971  68.483  1.00  0.00    -0.174 A  
HETATM   12  C   UNL     1      -9.438   8.318  69.764  1.00  0.00    -0.163 A  
HETATM   13  C   UNL     1      -9.899   7.632  70.894  1.00  0.00    -0.179 A  
HETATM   14 CL   UNL     1      -8.303   9.600  70.005  1.00  0.00    -0.180 Cl 
HETATM   15  C   UNL     1     -10.818   6.598  70.740  1.00  0.00    -0.252 A  
HETATM   16  C   UNL     1     -11.277   6.243  69.474  1.00  0.00    -0.500 A  
HETATM   17 CL   UNL     1     -11.372   5.735  72.122  1.00  0.00    -0.333 Cl 
HETATM   18  C   UNL     1     -10.797   6.915  68.345  1.00  0.00    -0.238 A  
ENDBRANCH  10  11
ENDBRANCH   9  10
TORSDOF 2
ENDMDL
MODEL      127
REMARK 921   NORMALIZED FREE ENERGY PREDICTED BY IDOCK:   -4.17 KCAL/MOL
REMARK 922        TOTAL FREE ENERGY PREDICTED BY IDOCK:   -4.95 KCAL/MOL
REMARK 923 INTER-LIGAND FREE ENERGY PREDICTED BY IDOCK:   -4.44 KCAL/MOL
REMARK 924 INTRA-LIGAND FREE ENERGY PREDICTED BY IDOCK:   -0.51 KCAL/MOL
REMARK 927      BINDING AFFINITY PREDICTED BY RF-SCORE:    0.00 PKD
ROOT
HETATM    1  O   UNL     1     -11.565  15.286  65.629  1.00  0.00    -0.205 OA 
HETATM    2  C   UNL     1     -10.770  15.269  66.744  1.00  0.00    -0.313 A  
HETATM    3  H   UNL     1     -12.056  14.508  65.391  1.00  0.00     0.000 HD 
HETATM    4  C   UNL     1     -10.049  16.411  67.094  1.00  0.00    -0.271 A  
HETATM    5  C   UNL     1      -9.239  16.385  68.231  1.00  0.00    -0.207 A  
HETATM    6  C   UNL     1      -9.117  15.221  68.988  1.00  0.00    -0.225 A  
HETATM    7 CL   UNL     1      -8.386  17.801  68.702  1.00  0.00    -0.295 Cl 
HETATM    8  C   UNL     1      -9.823  14.075  68.622  1.00  0.00    -0.191 A  
HETATM    9  C   UNL     1     -10.695  14.107  67.525  1.00  0.00    -0.269 A  
ENDROOT
BRANCH   9  10
HETATM   10  O   UNL     1     -11.430  13.011  67.132  1.00  0.00    -0.296 OA 
BRANCH  10  11
HETATM   11  C   UNL     1     -10.804  11.928  66.545  1.00  0.00    -0.278 A  
HETATM   12  C   UNL     1     -10.615  10.782  67.330  1.00  0.00    -0.257 A  
HETATM   13  C   UNL     1      -9.928   9.673  66.822  1.00  0.00    -0.289 A  
HETATM   14 CL   UNL     1     -11.219  10.687  68.947  1.00  0.00    -0.304 Cl 
HETATM   15  C   UNL     1      -9.433   9.710  65.521  1.00  0.00    -0.266 A  
HETATM   16  C   UNL     1      -9.614  10.840  64.727  1.00  0.00    -0.314 A  
HETATM   17 CL   UNL     1      -8.567   8.359  64.898  1.00  0.00    -0.150 Cl 
HETATM   18  C   UNL     1     -10.281  11.956  65.245  1.00  0.00    -0.309 A  
ENDBRANCH  10  11
ENDBRANCH   9  10
TORSDOF 2
ENDMDL
MODEL      128
REMARK 921   NORMALIZED FREE ENERGY PREDICTED BY IDOCK:   -4.16 KCAL/MOL
REMARK 922        TOTAL FREE ENERGY PREDICTED BY IDOCK:   -4.95 KCAL/MOL
REMARK 923 INTER-LIGAND FREE ENERGY PREDICTED BY IDOCK:   -4.62 KCAL/MOL
REMARK 924 INTRA-LIGAND FREE ENERGY PREDICTED BY IDOCK:   -0.33 KCAL/MOL
REMARK 927      BINDING AFFINITY PREDICTED BY RF-SCORE:    0.00 PKD
ROOT
HETATM    1  O   UNL     1     -11.986  13.929  67.797  1.00  0.00    -0.358 OA 
HETATM    2  C   UNL     1     -11.581  13.078  66.803  1.00  0.00    -0.368 A  
HETATM    3  H   UNL     1     -11.481  13.988  68.600  1.00  0.00     0.000 HD 
HETATM    4  C   UNL     1     -12.322  12.992  65.625  1.00  0.00    -0.504 A  
HETATM    5  C   UNL     1     -11.904  12.120  64.618  1.00  0.00    -0.328 A  
HETATM    6  C   UNL     1     -10.782  11.314  64.799  1.00  0.00    -0.352 A  
HETATM    7 CL   UNL     1     -12.780  12.042  63.140  1.00  0.00    -0.506 Cl 
HETATM    8  C   UNL     1     -10.056  11.388  65.988  1.00  0.00    -0.275 A  
HETATM    9  C   UNL     1     -10.422  12.309  66.978  1.00  0.00    -0.216 A  
ENDROOT
BRANCH   9  10
HETATM   10  O   UNL     1      -9.729  12.437  68.162  1.00  0.00    -0.204 OA 
BRANCH  10  11
HETATM   11  C   UNL     1      -9.269  11.314  68.823  1.00  0.00    -0.126 A  
HETATM   12  C   UNL     1     -10.198  10.567  69.559  1.00  0.00    -0.200 A  
HETATM   13  C   UNL     1      -9.789   9.457  70.310  1.00  0.00    -0.290 A  
HETATM   14 CL   UNL     1     -11.877  10.976  69.574  1.00  0.00    -0.371 Cl 
HETATM   15  C   UNL     1      -8.446   9.092  70.317  1.00  0.00    -0.168 A  
HETATM   16  C   UNL     1      -7.510   9.823  69.588  1.00  0.00    -0.113 A  
HETATM   17 CL   UNL     1      -7.932   7.743  71.254  1.00  0.00    -0.092 Cl 
HETATM   18  C   UNL     1      -7.917  10.945  68.859  1.00  0.00    -0.146 A  
ENDBRANCH  10  11
ENDBRANCH   9  10
TORSDOF 2
ENDMDL
MODEL      129
REMARK 921   NORMALIZED FREE ENERGY PREDICTED BY IDOCK:   -4.14 KCAL/MOL
REMARK 922        TOTAL FREE ENERGY PREDICTED BY IDOCK:   -4.93 KCAL/MOL
REMARK 923 INTER-LIGAND FREE ENERGY PREDICTED BY IDOCK:   -4.79 KCAL/MOL
REMARK 924 INTRA-LIGAND FREE ENERGY PREDICTED BY IDOCK:   -0.14 KCAL/MOL
REMARK 927      BINDING AFFINITY PREDICTED BY RF-SCORE:    0.00 PKD
ROOT
HETATM    1  O   UNL     1     -12.660  12.928  70.881  1.00  0.00    -0.343 OA 
HETATM    2  C   UNL     1     -11.976  13.524  69.855  1.00  0.00    -0.348 A  
HETATM    3  H   UNL     1     -12.909  12.013  70.811  1.00  0.00     0.000 HD 
HETATM    4  C   UNL     1     -11.611  14.866  69.958  1.00  0.00    -0.331 A  
HETATM    5  C   UNL     1     -10.916  15.467  68.907  1.00  0.00    -0.266 A  
HETATM    6  C   UNL     1     -10.623  14.749  67.749  1.00  0.00    -0.257 A  
HETATM    7 CL   UNL     1     -10.415  17.106  69.044  1.00  0.00    -0.332 Cl 
HETATM    8  C   UNL     1     -11.008  13.413  67.641  1.00  0.00    -0.277 A  
HETATM    9  C   UNL     1     -11.644  12.777  68.716  1.00  0.00    -0.312 A  
ENDROOT
BRANCH   9  10
HETATM   10  O   UNL     1     -12.028  11.455  68.671  1.00  0.00    -0.452 OA 
BRANCH  10  11
HETATM   11  C   UNL     1     -11.156  10.493  68.199  1.00  0.00    -0.287 A  
HETATM   12  C   UNL     1     -10.548   9.649  69.138  1.00  0.00    -0.220 A  
HETATM   13  C   UNL     1      -9.602   8.697  68.738  1.00  0.00    -0.157 A  
HETATM   14 CL   UNL     1     -10.937   9.743  70.820  1.00  0.00    -0.382 Cl 
HETATM   15  C   UNL     1      -9.268   8.587  67.391  1.00  0.00    -0.140 A  
HETATM   16  C   UNL     1      -9.865   9.417  66.444  1.00  0.00    -0.337 A  
HETATM   17 CL   UNL     1      -8.089   7.436  66.895  1.00  0.00    -0.118 Cl 
HETATM   18  C   UNL     1     -10.792  10.383  66.850  1.00  0.00    -0.229 A  
ENDBRANCH  10  11
ENDBRANCH   9  10
TORSDOF 2
ENDMDL
MODEL      130
REMARK 921   NORMALIZED FREE ENERGY PREDICTED BY IDOCK:   -4.14 KCAL/MOL
REMARK 922        TOTAL FREE ENERGY PREDICTED BY IDOCK:   -4.92 KCAL/MOL
REMARK 923 INTER-LIGAND FREE ENERGY PREDICTED BY IDOCK:   -4.42 KCAL/MOL
REMARK 924 INTRA-LIGAND FREE ENERGY PREDICTED BY IDOCK:   -0.50 KCAL/MOL
REMARK 927      BINDING AFFINITY PREDICTED BY RF-SCORE:    0.00 PKD
ROOT
HETATM    1  O   UNL     1     -13.002   7.426  70.587  1.00  0.00    -0.583 OA 
HETATM    2  C   UNL     1     -11.967   6.635  71.008  1.00  0.00    -0.359 A  
HETATM    3  H   UNL     1     -13.163   7.535  69.657  1.00  0.00     0.000 HD 
HETATM    4  C   UNL     1     -11.732   6.475  72.373  1.00  0.00    -0.271 A  
HETATM    5  C   UNL     1     -10.672   5.669  72.794  1.00  0.00    -0.242 A  
HETATM    6  C   UNL     1      -9.832   5.060  71.863  1.00  0.00    -0.236 A  
HETATM    7 CL   UNL     1     -10.404   5.422  74.474  1.00  0.00    -0.291 Cl 
HETATM    8  C   UNL     1     -10.058   5.240  70.499  1.00  0.00    -0.315 A  
HETATM    9  C   UNL     1     -11.159   5.988  70.062  1.00  0.00    -0.381 A  
ENDROOT
BRANCH   9  10
HETATM   10  O   UNL     1     -11.440   6.181  68.727  1.00  0.00    -0.259 OA 
BRANCH  10  11
HETATM   11  C   UNL     1     -10.641   7.009  67.961  1.00  0.00    -0.207 A  
HETATM   12  C   UNL     1      -9.984   6.442  66.861  1.00  0.00    -0.167 A  
HETATM   13  C   UNL     1      -9.105   7.204  66.081  1.00  0.00    -0.155 A  
HETATM   14 CL   UNL     1     -10.228   4.788  66.418  1.00  0.00    -0.287 Cl 
HETATM   15  C   UNL     1      -8.889   8.541  66.402  1.00  0.00    -0.150 A  
HETATM   16  C   UNL     1      -9.536   9.121  67.491  1.00  0.00    -0.169 A  
HETATM   17 CL   UNL     1      -7.793   9.478  65.463  1.00  0.00    -0.106 Cl 
HETATM   18  C   UNL     1     -10.395   8.350  68.282  1.00  0.00    -0.244 A  
ENDBRANCH  10  11
ENDBRANCH   9  10
TORSDOF 2
ENDMDL
MODEL      131
REMARK 921   NORMALIZED FREE ENERGY PREDICTED BY IDOCK:   -4.14 KCAL/MOL
REMARK 922        TOTAL FREE ENERGY PREDICTED BY IDOCK:   -4.92 KCAL/MOL
REMARK 923 INTER-LIGAND FREE ENERGY PREDICTED BY IDOCK:   -4.74 KCAL/MOL
REMARK 924 INTRA-LIGAND FREE ENERGY PREDICTED BY IDOCK:   -0.19 KCAL/MOL
REMARK 927      BINDING AFFINITY PREDICTED BY RF-SCORE:    0.00 PKD
ROOT
HETATM    1  O   UNL     1      -9.887   6.883  74.532  1.00  0.00    -0.433 OA 
HETATM    2  C   UNL     1     -10.146   6.293  73.324  1.00  0.00    -0.195 A  
HETATM    3  H   UNL     1     -10.058   7.811  74.648  1.00  0.00     0.000 HD 
HETATM    4  C   UNL     1      -9.895   4.931  73.154  1.00  0.00    -0.173 A  
HETATM    5  C   UNL     1     -10.159   4.337  71.919  1.00  0.00    -0.167 A  
HETATM    6  C   UNL     1     -10.632   5.099  70.853  1.00  0.00    -0.202 A  
HETATM    7 CL   UNL     1      -9.903   2.650  71.713  1.00  0.00    -0.228 Cl 
HETATM    8  C   UNL     1     -10.861   6.465  71.020  1.00  0.00    -0.314 A  
HETATM    9  C   UNL     1     -10.668   7.061  72.274  1.00  0.00    -0.220 A  
ENDROOT
BRANCH   9  10
HETATM   10  O   UNL     1     -10.898   8.400  72.500  1.00  0.00    -0.344 OA 
BRANCH  10  11
HETATM   11  C   UNL     1     -11.170   9.247  71.442  1.00  0.00    -0.362 A  
HETATM   12  C   UNL     1     -10.085   9.712  70.686  1.00  0.00    -0.256 A  
HETATM   13  C   UNL     1     -10.279  10.627  69.644  1.00  0.00    -0.156 A  
HETATM   14 CL   UNL     1      -8.471   9.181  71.004  1.00  0.00    -0.247 Cl 
HETATM   15  C   UNL     1     -11.566  11.071  69.353  1.00  0.00    -0.312 A  
HETATM   16  C   UNL     1     -12.655  10.617  70.093  1.00  0.00    -0.283 A  
HETATM   17 CL   UNL     1     -11.810  12.213  68.089  1.00  0.00    -0.401 Cl 
HETATM   18  C   UNL     1     -12.455   9.721  71.149  1.00  0.00    -0.443 A  
ENDBRANCH  10  11
ENDBRANCH   9  10
TORSDOF 2
ENDMDL
MODEL      132
REMARK 921   NORMALIZED FREE ENERGY PREDICTED BY IDOCK:   -4.12 KCAL/MOL
REMARK 922        TOTAL FREE ENERGY PREDICTED BY IDOCK:   -4.91 KCAL/MOL
REMARK 923 INTER-LIGAND FREE ENERGY PREDICTED BY IDOCK:   -4.58 KCAL/MOL
REMARK 924 INTRA-LIGAND FREE ENERGY PREDICTED BY IDOCK:   -0.32 KCAL/MOL
REMARK 927      BINDING AFFINITY PREDICTED BY RF-SCORE:    0.00 PKD
ROOT
HETATM    1  O   UNL     1     -11.428  15.323  69.444  1.00  0.00    -0.274 OA 
HETATM    2  C   UNL     1     -11.045  16.031  68.337  1.00  0.00    -0.351 A  
HETATM    3  H   UNL     1     -11.547  14.382  69.383  1.00  0.00     0.000 HD 
HETATM    4  C   UNL     1     -10.872  17.412  68.428  1.00  0.00    -0.234 A  
HETATM    5  C   UNL     1     -10.484  18.128  67.294  1.00  0.00    -0.393 A  
HETATM    6  C   UNL     1     -10.309  17.480  66.073  1.00  0.00    -0.309 A  
HETATM    7 CL   UNL     1     -10.217  19.822  67.405  1.00  0.00    -0.540 Cl 
HETATM    8  C   UNL     1     -10.504  16.101  65.981  1.00  0.00    -0.349 A  
HETATM    9  C   UNL     1     -10.825  15.360  67.126  1.00  0.00    -0.321 A  
ENDROOT
BRANCH   9  10
HETATM   10  O   UNL     1     -11.009  13.996  67.096  1.00  0.00    -0.289 OA 
BRANCH  10  11
HETATM   11  C   UNL     1      -9.983  13.147  67.467  1.00  0.00    -0.223 A  
HETATM   12  C   UNL     1     -10.316  12.016  68.225  1.00  0.00    -0.204 A  
HETATM   13  C   UNL     1      -9.320  11.150  68.693  1.00  0.00    -0.186 A  
HETATM   14 CL   UNL     1     -11.959  11.641  68.611  1.00  0.00    -0.366 Cl 
HETATM   15  C   UNL     1      -7.986  11.415  68.395  1.00  0.00    -0.142 A  
HETATM   16  C   UNL     1      -7.638  12.534  67.641  1.00  0.00    -0.145 A  
HETATM   17 CL   UNL     1      -6.755  10.368  68.987  1.00  0.00    -0.057 Cl 
HETATM   18  C   UNL     1      -8.634  13.410  67.195  1.00  0.00    -0.201 A  
ENDBRANCH  10  11
ENDBRANCH   9  10
TORSDOF 2
ENDMDL
MODEL      133
REMARK 921   NORMALIZED FREE ENERGY PREDICTED BY IDOCK:   -4.11 KCAL/MOL
REMARK 922        TOTAL FREE ENERGY PREDICTED BY IDOCK:   -4.89 KCAL/MOL
REMARK 923 INTER-LIGAND FREE ENERGY PREDICTED BY IDOCK:   -4.56 KCAL/MOL
REMARK 924 INTRA-LIGAND FREE ENERGY PREDICTED BY IDOCK:   -0.33 KCAL/MOL
REMARK 927      BINDING AFFINITY PREDICTED BY RF-SCORE:    0.00 PKD
ROOT
HETATM    1  O   UNL     1     -12.536  14.124  67.456  1.00  0.00    -0.542 OA 
HETATM    2  C   UNL     1     -11.382  13.405  67.300  1.00  0.00    -0.319 A  
HETATM    3  H   UNL     1     -12.505  14.977  67.874  1.00  0.00     0.000 HD 
HETATM    4  C   UNL     1     -11.427  12.153  66.686  1.00  0.00    -0.426 A  
HETATM    5  C   UNL     1     -10.246  11.425  66.533  1.00  0.00    -0.221 A  
HETATM    6  C   UNL     1      -9.039  11.921  67.021  1.00  0.00    -0.191 A  
HETATM    7 CL   UNL     1     -10.281   9.904  65.732  1.00  0.00    -0.306 Cl 
HETATM    8  C   UNL     1      -9.001  13.164  67.653  1.00  0.00    -0.192 A  
HETATM    9  C   UNL     1     -10.166  13.937  67.751  1.00  0.00    -0.237 A  
ENDROOT
BRANCH   9  10
HETATM   10  O   UNL     1     -10.181  15.179  68.347  1.00  0.00    -0.215 OA 
BRANCH  10  11
HETATM   11  C   UNL     1      -9.199  16.105  68.050  1.00  0.00    -0.195 A  
HETATM   12  C   UNL     1      -9.259  16.740  66.803  1.00  0.00    -0.243 A  
HETATM   13  C   UNL     1      -8.260  17.637  66.408  1.00  0.00    -0.298 A  
HETATM   14 CL   UNL     1     -10.561  16.447  65.704  1.00  0.00    -0.366 Cl 
HETATM   15  C   UNL     1      -7.199  17.904  67.269  1.00  0.00    -0.184 A  
HETATM   16  C   UNL     1      -7.126  17.283  68.514  1.00  0.00    -0.220 A  
HETATM   17 CL   UNL     1      -5.955  18.989  66.781  1.00  0.00    -0.172 Cl 
HETATM   18  C   UNL     1      -8.113  16.369  68.896  1.00  0.00    -0.236 A  
ENDBRANCH  10  11
ENDBRANCH   9  10
TORSDOF 2
ENDMDL
MODEL      134
REMARK 921   NORMALIZED FREE ENERGY PREDICTED BY IDOCK:   -4.11 KCAL/MOL
REMARK 922        TOTAL FREE ENERGY PREDICTED BY IDOCK:   -4.89 KCAL/MOL
REMARK 923 INTER-LIGAND FREE ENERGY PREDICTED BY IDOCK:   -4.52 KCAL/MOL
REMARK 924 INTRA-LIGAND FREE ENERGY PREDICTED BY IDOCK:   -0.37 KCAL/MOL
REMARK 927      BINDING AFFINITY PREDICTED BY RF-SCORE:    0.00 PKD
ROOT
HETATM    1  O   UNL     1      -7.453   8.093  64.967  1.00  0.00    -0.079 OA 
HETATM    2  C   UNL     1      -8.481   7.630  65.744  1.00  0.00    -0.144 A  
HETATM    3  H   UNL     1      -7.299   9.029  64.901  1.00  0.00     0.000 HD 
HETATM    4  C   UNL     1      -8.707   6.257  65.841  1.00  0.00    -0.154 A  
HETATM    5  C   UNL     1      -9.758   5.793  66.633  1.00  0.00    -0.157 A  
HETATM    6  C   UNL     1     -10.599   6.688  67.291  1.00  0.00    -0.387 A  
HETATM    7 CL   UNL     1     -10.016   4.101  66.802  1.00  0.00    -0.207 Cl 
HETATM    8  C   UNL     1     -10.382   8.061  67.174  1.00  0.00    -0.395 A  
HETATM    9  C   UNL     1      -9.289   8.540  66.440  1.00  0.00    -0.213 A  
ENDROOT
BRANCH   9  10
HETATM   10  O   UNL     1      -9.017   9.883  66.309  1.00  0.00    -0.141 OA 
BRANCH  10  11
HETATM   11  C   UNL     1     -10.051  10.795  66.202  1.00  0.00    -0.242 A  
HETATM   12  C   UNL     1     -10.491  11.130  64.914  1.00  0.00    -0.308 A  
HETATM   13  C   UNL     1     -11.487  12.097  64.728  1.00  0.00    -0.377 A  
HETATM   14 CL   UNL     1      -9.831  10.370  63.509  1.00  0.00    -0.335 Cl 
HETATM   15  C   UNL     1     -12.048  12.725  65.836  1.00  0.00    -0.426 A  
HETATM   16  C   UNL     1     -11.623  12.402  67.123  1.00  0.00    -0.435 A  
HETATM   17 CL   UNL     1     -13.256  13.931  65.614  1.00  0.00    -0.253 Cl 
HETATM   18  C   UNL     1     -10.611  11.453  67.305  1.00  0.00    -0.264 A  
ENDBRANCH  10  11
ENDBRANCH   9  10
TORSDOF 2
ENDMDL
MODEL      135
REMARK 921   NORMALIZED FREE ENERGY PREDICTED BY IDOCK:   -4.11 KCAL/MOL
REMARK 922        TOTAL FREE ENERGY PREDICTED BY IDOCK:   -4.88 KCAL/MOL
REMARK 923 INTER-LIGAND FREE ENERGY PREDICTED BY IDOCK:   -4.53 KCAL/MOL
REMARK 924 INTRA-LIGAND FREE ENERGY PREDICTED BY IDOCK:   -0.36 KCAL/MOL
REMARK 927      BINDING AFFINITY PREDICTED BY RF-SCORE:    0.00 PKD
ROOT
HETATM    1  O   UNL     1      -8.791   8.185  68.708  1.00  0.00    -0.137 OA 
HETATM    2  C   UNL     1      -9.682   8.590  69.665  1.00  0.00    -0.179 A  
HETATM    3  H   UNL     1      -8.784   8.615  67.860  1.00  0.00     0.000 HD 
HETATM    4  C   UNL     1      -9.691   7.958  70.909  1.00  0.00    -0.177 A  
HETATM    5  C   UNL     1     -10.604   8.375  71.879  1.00  0.00    -0.300 A  
HETATM    6  C   UNL     1     -11.524   9.384  71.600  1.00  0.00    -0.463 A  
HETATM    7 CL   UNL     1     -10.591   7.639  73.433  1.00  0.00    -0.408 Cl 
HETATM    8  C   UNL     1     -11.525   9.998  70.348  1.00  0.00    -0.389 A  
HETATM    9  C   UNL     1     -10.569   9.639  69.389  1.00  0.00    -0.225 A  
ENDROOT
BRANCH   9  10
HETATM   10  O   UNL     1     -10.513  10.227  68.145  1.00  0.00    -0.167 OA 
BRANCH  10  11
HETATM   11  C   UNL     1     -10.629  11.598  68.018  1.00  0.00    -0.202 A  
HETATM   12  C   UNL     1      -9.465  12.366  68.159  1.00  0.00    -0.214 A  
HETATM   13  C   UNL     1      -9.520  13.764  68.111  1.00  0.00    -0.212 A  
HETATM   14 CL   UNL     1      -7.921  11.626  68.396  1.00  0.00    -0.135 Cl 
HETATM   15  C   UNL     1     -10.745  14.396  67.914  1.00  0.00    -0.244 A  
HETATM   16  C   UNL     1     -11.911  13.647  67.769  1.00  0.00    -0.387 A  
HETATM   17 CL   UNL     1     -10.824  16.114  67.877  1.00  0.00    -0.330 Cl 
HETATM   18  C   UNL     1     -11.857  12.251  67.841  1.00  0.00    -0.358 A  
ENDBRANCH  10  11
ENDBRANCH   9  10
TORSDOF 2
ENDMDL
MODEL      136
REMARK 921   NORMALIZED FREE ENERGY PREDICTED BY IDOCK:   -4.09 KCAL/MOL
REMARK 922        TOTAL FREE ENERGY PREDICTED BY IDOCK:   -4.87 KCAL/MOL
REMARK 923 INTER-LIGAND FREE ENERGY PREDICTED BY IDOCK:   -4.67 KCAL/MOL
REMARK 924 INTRA-LIGAND FREE ENERGY PREDICTED BY IDOCK:   -0.21 KCAL/MOL
REMARK 927      BINDING AFFINITY PREDICTED BY RF-SCORE:    0.00 PKD
ROOT
HETATM    1  O   UNL     1     -12.285  11.826  68.833  1.00  0.00    -0.330 OA 
HETATM    2  C   UNL     1     -11.289  11.139  68.192  1.00  0.00    -0.309 A  
HETATM    3  H   UNL     1     -12.381  11.744  69.775  1.00  0.00     0.000 HD 
HETATM    4  C   UNL     1     -11.148  11.259  66.810  1.00  0.00    -0.314 A  
HETATM    5  C   UNL     1     -10.132  10.553  66.163  1.00  0.00    -0.246 A  
HETATM    6  C   UNL     1      -9.289   9.707  66.881  1.00  0.00    -0.183 A  
HETATM    7 CL   UNL     1      -9.915  10.733  64.467  1.00  0.00    -0.365 Cl 
HETATM    8  C   UNL     1      -9.447   9.573  68.261  1.00  0.00    -0.143 A  
HETATM    9  C   UNL     1     -10.417  10.329  68.933  1.00  0.00    -0.211 A  
ENDROOT
BRANCH   9  10
HETATM   10  O   UNL     1     -10.602  10.251  70.296  1.00  0.00    -0.282 OA 
BRANCH  10  11
HETATM   11  C   UNL     1     -10.754   9.020  70.907  1.00  0.00    -0.253 A  
HETATM   12  C   UNL     1     -12.030   8.680  71.376  1.00  0.00    -0.304 A  
HETATM   13  C   UNL     1     -12.241   7.480  72.066  1.00  0.00    -0.314 A  
HETATM   14 CL   UNL     1     -13.390   9.717  71.124  1.00  0.00    -0.392 Cl 
HETATM   15  C   UNL     1     -11.172   6.616  72.282  1.00  0.00    -0.267 A  
HETATM   16  C   UNL     1      -9.898   6.938  71.821  1.00  0.00    -0.170 A  
HETATM   17 CL   UNL     1     -11.420   5.150  73.149  1.00  0.00    -0.384 Cl 
HETATM   18  C   UNL     1      -9.684   8.148  71.152  1.00  0.00    -0.200 A  
ENDBRANCH  10  11
ENDBRANCH   9  10
TORSDOF 2
ENDMDL
MODEL      137
REMARK 921   NORMALIZED FREE ENERGY PREDICTED BY IDOCK:   -4.09 KCAL/MOL
REMARK 922        TOTAL FREE ENERGY PREDICTED BY IDOCK:   -4.86 KCAL/MOL
REMARK 923 INTER-LIGAND FREE ENERGY PREDICTED BY IDOCK:   -4.36 KCAL/MOL
REMARK 924 INTRA-LIGAND FREE ENERGY PREDICTED BY IDOCK:   -0.50 KCAL/MOL
REMARK 927      BINDING AFFINITY PREDICTED BY RF-SCORE:    0.00 PKD
ROOT
HETATM    1  O   UNL     1     -11.246   5.877  70.004  1.00  0.00    -0.364 OA 
HETATM    2  C   UNL     1     -11.514   7.114  70.527  1.00  0.00    -0.295 A  
HETATM    3  H   UNL     1     -10.436   5.734  69.527  1.00  0.00     0.000 HD 
HETATM    4  C   UNL     1     -12.703   7.323  71.227  1.00  0.00    -0.400 A  
HETATM    5  C   UNL     1     -12.971   8.588  71.754  1.00  0.00    -0.352 A  
HETATM    6  C   UNL     1     -12.082   9.642  71.553  1.00  0.00    -0.482 A  
HETATM    7 CL   UNL     1     -14.407   8.845  72.663  1.00  0.00    -0.365 Cl 
HETATM    8  C   UNL     1     -10.905   9.434  70.834  1.00  0.00    -0.392 A  
HETATM    9  C   UNL     1     -10.590   8.154  70.359  1.00  0.00    -0.224 A  
ENDROOT
BRANCH   9  10
HETATM   10  O   UNL     1      -9.433   7.888  69.661  1.00  0.00    -0.160 OA 
BRANCH  10  11
HETATM   11  C   UNL     1      -9.224   8.457  68.418  1.00  0.00    -0.135 A  
HETATM   12  C   UNL     1      -8.375   9.569  68.346  1.00  0.00    -0.118 A  
HETATM   13  C   UNL     1      -8.172  10.237  67.133  1.00  0.00    -0.121 A  
HETATM   14 CL   UNL     1      -7.544  10.161  69.742  1.00  0.00    -0.159 Cl 
HETATM   15  C   UNL     1      -8.818   9.785  65.985  1.00  0.00    -0.147 A  
HETATM   16  C   UNL     1      -9.664   8.679  66.039  1.00  0.00    -0.238 A  
HETATM   17 CL   UNL     1      -8.592  10.615  64.495  1.00  0.00    -0.151 Cl 
HETATM   18  C   UNL     1      -9.883   8.028  67.258  1.00  0.00    -0.258 A  
ENDBRANCH  10  11
ENDBRANCH   9  10
TORSDOF 2
ENDMDL
MODEL      138
REMARK 921   NORMALIZED FREE ENERGY PREDICTED BY IDOCK:   -4.09 KCAL/MOL
REMARK 922        TOTAL FREE ENERGY PREDICTED BY IDOCK:   -4.86 KCAL/MOL
REMARK 923 INTER-LIGAND FREE ENERGY PREDICTED BY IDOCK:   -4.38 KCAL/MOL
REMARK 924 INTRA-LIGAND FREE ENERGY PREDICTED BY IDOCK:   -0.49 KCAL/MOL
REMARK 927      BINDING AFFINITY PREDICTED BY RF-SCORE:    0.00 PKD
ROOT
HETATM    1  O   UNL     1     -11.239   7.267  67.253  1.00  0.00    -0.579 OA 
HETATM    2  C   UNL     1      -9.953   7.712  67.408  1.00  0.00    -0.192 A  
HETATM    3  H   UNL     1     -11.910   7.867  66.946  1.00  0.00     0.000 HD 
HETATM    4  C   UNL     1      -8.969   6.831  67.858  1.00  0.00    -0.113 A  
HETATM    5  C   UNL     1      -7.661   7.292  68.017  1.00  0.00    -0.117 A  
HETATM    6  C   UNL     1      -7.345   8.626  67.767  1.00  0.00    -0.092 A  
HETATM    7 CL   UNL     1      -6.429   6.205  68.521  1.00  0.00    -0.050 Cl 
HETATM    8  C   UNL     1      -8.337   9.509  67.338  1.00  0.00    -0.125 A  
HETATM    9  C   UNL     1      -9.638   9.044  67.107  1.00  0.00    -0.167 A  
ENDROOT
BRANCH   9  10
HETATM   10  O   UNL     1     -10.650   9.867  66.664  1.00  0.00    -0.192 OA 
BRANCH  10  11
HETATM   11  C   UNL     1     -11.101  10.904  67.459  1.00  0.00    -0.310 A  
HETATM   12  C   UNL     1     -11.165  12.181  66.886  1.00  0.00    -0.320 A  
HETATM   13  C   UNL     1     -11.547  13.290  67.652  1.00  0.00    -0.386 A  
HETATM   14 CL   UNL     1     -10.780  12.444  65.221  1.00  0.00    -0.310 Cl 
HETATM   15  C   UNL     1     -11.871  13.117  68.994  1.00  0.00    -0.313 A  
HETATM   16  C   UNL     1     -11.815  11.853  69.578  1.00  0.00    -0.395 A  
HETATM   17 CL   UNL     1     -12.319  14.478  69.947  1.00  0.00    -0.363 Cl 
HETATM   18  C   UNL     1     -11.410  10.751  68.817  1.00  0.00    -0.352 A  
ENDBRANCH  10  11
ENDBRANCH   9  10
TORSDOF 2
ENDMDL
MODEL      139
REMARK 921   NORMALIZED FREE ENERGY PREDICTED BY IDOCK:   -4.07 KCAL/MOL
REMARK 922        TOTAL FREE ENERGY PREDICTED BY IDOCK:   -4.85 KCAL/MOL
REMARK 923 INTER-LIGAND FREE ENERGY PREDICTED BY IDOCK:   -4.33 KCAL/MOL
REMARK 924 INTRA-LIGAND FREE ENERGY PREDICTED BY IDOCK:   -0.51 KCAL/MOL
REMARK 927      BINDING AFFINITY PREDICTED BY RF-SCORE:    0.00 PKD
ROOT
HETATM    1  O   UNL     1      -7.058  14.434  68.412  1.00  0.00    -0.091 OA 
HETATM    2  C   UNL     1      -8.298  15.001  68.532  1.00  0.00    -0.161 A  
HETATM    3  H   UNL     1      -6.284  14.985  68.444  1.00  0.00     0.000 HD 
HETATM    4  C   UNL     1      -9.433  14.191  68.485  1.00  0.00    -0.202 A  
HETATM    5  C   UNL     1     -10.695  14.776  68.606  1.00  0.00    -0.253 A  
HETATM    6  C   UNL     1     -10.826  16.158  68.733  1.00  0.00    -0.310 A  
HETATM    7 CL   UNL     1     -12.098  13.784  68.601  1.00  0.00    -0.390 Cl 
HETATM    8  C   UNL     1      -9.689  16.966  68.758  1.00  0.00    -0.265 A  
HETATM    9  C   UNL     1      -8.414  16.386  68.709  1.00  0.00    -0.249 A  
ENDROOT
BRANCH   9  10
HETATM   10  O   UNL     1      -7.259  17.135  68.750  1.00  0.00    -0.211 OA 
BRANCH  10  11
HETATM   11  C   UNL     1      -6.950  17.994  67.712  1.00  0.00    -0.208 A  
HETATM   12  C   UNL     1      -6.731  19.342  68.028  1.00  0.00    -0.241 A  
HETATM   13  C   UNL     1      -6.482  20.282  67.019  1.00  0.00    -0.248 A  
HETATM   14 CL   UNL     1      -6.759  19.902  69.663  1.00  0.00    -0.373 Cl 
HETATM   15  C   UNL     1      -6.445  19.867  65.691  1.00  0.00    -0.242 A  
HETATM   16  C   UNL     1      -6.658  18.531  65.361  1.00  0.00    -0.257 A  
HETATM   17 CL   UNL     1      -6.162  21.019  64.445  1.00  0.00    -0.333 Cl 
HETATM   18  C   UNL     1      -6.930  17.599  66.368  1.00  0.00    -0.300 A  
ENDBRANCH  10  11
ENDBRANCH   9  10
TORSDOF 2
ENDMDL
MODEL      140
REMARK 921   NORMALIZED FREE ENERGY PREDICTED BY IDOCK:   -4.03 KCAL/MOL
REMARK 922        TOTAL FREE ENERGY PREDICTED BY IDOCK:   -4.80 KCAL/MOL
REMARK 923 INTER-LIGAND FREE ENERGY PREDICTED BY IDOCK:   -5.82 KCAL/MOL
REMARK 924 INTRA-LIGAND FREE ENERGY PREDICTED BY IDOCK:    1.02 KCAL/MOL
REMARK 927      BINDING AFFINITY PREDICTED BY RF-SCORE:    0.00 PKD
ROOT
HETATM    1  O   UNL     1     -10.412  14.967  70.037  1.00  0.00    -0.412 OA 
HETATM    2  C   UNL     1     -11.434  14.711  70.912  1.00  0.00    -0.165 A  
HETATM    3  H   UNL     1     -10.358  14.482  69.222  1.00  0.00     0.000 HD 
HETATM    4  C   UNL     1     -11.512  15.423  72.108  1.00  0.00    -0.525 A  
HETATM    5  C   UNL     1     -12.555  15.154  72.996  1.00  0.00    -0.438 A  
HETATM    6  C   UNL     1     -13.487  14.158  72.713  1.00  0.00    -0.592 A  
HETATM    7 CL   UNL     1     -12.693  16.061  74.450  1.00  0.00    -0.585 Cl 
HETATM    8  C   UNL     1     -13.393  13.432  71.525  1.00  0.00    -0.345 A  
HETATM    9  C   UNL     1     -12.393  13.740  70.593  1.00  0.00    -0.375 A  
ENDROOT
BRANCH   9  10
HETATM   10  O   UNL     1     -12.266  13.069  69.396  1.00  0.00    -0.237 OA 
BRANCH  10  11
HETATM   11  C   UNL     1     -11.414  11.986  69.294  1.00  0.00    -0.301 A  
HETATM   12  C   UNL     1     -11.681  10.870  70.098  1.00  0.00    -0.347 A  
HETATM   13  C   UNL     1     -10.821   9.764  70.097  1.00  0.00    -0.340 A  
HETATM   14 CL   UNL     1     -13.074  10.807  71.120  1.00  0.00    -0.430 Cl 
HETATM   15  C   UNL     1      -9.693   9.775  69.282  1.00  0.00    -0.196 A  
HETATM   16  C   UNL     1      -9.414  10.876  68.474  1.00  0.00    -0.185 A  
HETATM   17 CL   UNL     1      -8.619   8.430  69.292  1.00  0.00    -0.129 Cl 
HETATM   18  C   UNL     1     -10.262  11.988  68.495  1.00  0.00    -0.218 A  
ENDBRANCH  10  11
ENDBRANCH   9  10
TORSDOF 2
ENDMDL
MODEL      141
REMARK 921   NORMALIZED FREE ENERGY PREDICTED BY IDOCK:   -4.01 KCAL/MOL
REMARK 922        TOTAL FREE ENERGY PREDICTED BY IDOCK:   -4.78 KCAL/MOL
REMARK 923 INTER-LIGAND FREE ENERGY PREDICTED BY IDOCK:   -4.24 KCAL/MOL
REMARK 924 INTRA-LIGAND FREE ENERGY PREDICTED BY IDOCK:   -0.54 KCAL/MOL
REMARK 927      BINDING AFFINITY PREDICTED BY RF-SCORE:    0.00 PKD
ROOT
HETATM    1  O   UNL     1      -7.131   7.041  69.276  1.00  0.00    -0.077 OA 
HETATM    2  C   UNL     1      -8.167   6.481  68.577  1.00  0.00    -0.121 A  
HETATM    3  H   UNL     1      -7.257   7.287  70.186  1.00  0.00     0.000 HD 
HETATM    4  C   UNL     1      -7.982   6.120  67.243  1.00  0.00    -0.102 A  
HETATM    5  C   UNL     1      -9.043   5.552  66.536  1.00  0.00    -0.138 A  
HETATM    6  C   UNL     1     -10.287   5.381  67.141  1.00  0.00    -0.288 A  
HETATM    7 CL   UNL     1      -8.813   5.056  64.906  1.00  0.00    -0.154 Cl 
HETATM    8  C   UNL     1     -10.474   5.763  68.470  1.00  0.00    -0.290 A  
HETATM    9  C   UNL     1      -9.399   6.269  69.212  1.00  0.00    -0.136 A  
ENDROOT
BRANCH   9  10
HETATM   10  O   UNL     1      -9.522   6.643  70.532  1.00  0.00    -0.165 OA 
BRANCH  10  11
HETATM   11  C   UNL     1     -10.352   7.692  70.883  1.00  0.00    -0.201 A  
HETATM   12  C   UNL     1     -11.430   7.411  71.733  1.00  0.00    -0.265 A  
HETATM   13  C   UNL     1     -12.350   8.410  72.074  1.00  0.00    -0.413 A  
HETATM   14 CL   UNL     1     -11.671   5.832  72.393  1.00  0.00    -0.334 Cl 
HETATM   15  C   UNL     1     -12.185   9.696  71.568  1.00  0.00    -0.399 A  
HETATM   16  C   UNL     1     -11.117   9.992  70.724  1.00  0.00    -0.407 A  
HETATM   17 CL   UNL     1     -13.325  10.923  71.965  1.00  0.00    -0.503 Cl 
HETATM   18  C   UNL     1     -10.213   8.986  70.365  1.00  0.00    -0.250 A  
ENDBRANCH  10  11
ENDBRANCH   9  10
TORSDOF 2
ENDMDL
MODEL      142
REMARK 921   NORMALIZED FREE ENERGY PREDICTED BY IDOCK:   -4.01 KCAL/MOL
REMARK 922        TOTAL FREE ENERGY PREDICTED BY IDOCK:   -4.77 KCAL/MOL
REMARK 923 INTER-LIGAND FREE ENERGY PREDICTED BY IDOCK:   -4.52 KCAL/MOL
REMARK 924 INTRA-LIGAND FREE ENERGY PREDICTED BY IDOCK:   -0.25 KCAL/MOL
REMARK 927      BINDING AFFINITY PREDICTED BY RF-SCORE:    0.00 PKD
ROOT
HETATM    1  O   UNL     1      -9.584   9.024  69.442  1.00  0.00    -0.156 OA 
HETATM    2  C   UNL     1      -9.406   9.029  68.085  1.00  0.00    -0.142 A  
HETATM    3  H   UNL     1     -10.353   9.438  69.816  1.00  0.00     0.000 HD 
HETATM    4  C   UNL     1      -8.277   8.420  67.535  1.00  0.00    -0.125 A  
HETATM    5  C   UNL     1      -8.101   8.432  66.150  1.00  0.00    -0.106 A  
HETATM    6  C   UNL     1      -9.019   9.077  65.325  1.00  0.00    -0.233 A  
HETATM    7 CL   UNL     1      -6.741   7.640  65.458  1.00  0.00    -0.045 Cl 
HETATM    8  C   UNL     1     -10.136   9.703  65.880  1.00  0.00    -0.304 A  
HETATM    9  C   UNL     1     -10.362   9.639  67.261  1.00  0.00    -0.249 A  
ENDROOT
BRANCH   9  10
HETATM   10  O   UNL     1     -11.457  10.222  67.859  1.00  0.00    -0.346 OA 
BRANCH  10  11
HETATM   11  C   UNL     1     -11.459  11.576  68.136  1.00  0.00    -0.315 A  
HETATM   12  C   UNL     1     -11.870  11.978  69.415  1.00  0.00    -0.324 A  
HETATM   13  C   UNL     1     -11.962  13.336  69.743  1.00  0.00    -0.391 A  
HETATM   14 CL   UNL     1     -12.276  10.823  70.635  1.00  0.00    -0.437 Cl 
HETATM   15  C   UNL     1     -11.636  14.295  68.789  1.00  0.00    -0.322 A  
HETATM   16  C   UNL     1     -11.224  13.913  67.514  1.00  0.00    -0.323 A  
HETATM   17 CL   UNL     1     -11.769  15.966  69.177  1.00  0.00    -0.383 Cl 
HETATM   18  C   UNL     1     -11.155  12.556  67.181  1.00  0.00    -0.321 A  
ENDBRANCH  10  11
ENDBRANCH   9  10
TORSDOF 2
ENDMDL
MODEL      143
REMARK 921   NORMALIZED FREE ENERGY PREDICTED BY IDOCK:   -3.99 KCAL/MOL
REMARK 922        TOTAL FREE ENERGY PREDICTED BY IDOCK:   -4.76 KCAL/MOL
REMARK 923 INTER-LIGAND FREE ENERGY PREDICTED BY IDOCK:   -4.43 KCAL/MOL
REMARK 924 INTRA-LIGAND FREE ENERGY PREDICTED BY IDOCK:   -0.33 KCAL/MOL
REMARK 927      BINDING AFFINITY PREDICTED BY RF-SCORE:    0.00 PKD
ROOT
HETATM    1  O   UNL     1     -10.360  11.461  69.535  1.00  0.00    -0.441 OA 
HETATM    2  C   UNL     1     -10.884  12.362  68.647  1.00  0.00    -0.240 A  
HETATM    3  H   UNL     1     -10.292  10.545  69.291  1.00  0.00     0.000 HD 
HETATM    4  C   UNL     1     -10.983  13.706  69.006  1.00  0.00    -0.271 A  
HETATM    5  C   UNL     1     -11.520  14.618  68.096  1.00  0.00    -0.323 A  
HETATM    6  C   UNL     1     -11.991  14.189  66.857  1.00  0.00    -0.479 A  
HETATM    7 CL   UNL     1     -11.600  16.286  68.506  1.00  0.00    -0.285 Cl 
HETATM    8  C   UNL     1     -11.911  12.840  66.510  1.00  0.00    -0.471 A  
HETATM    9  C   UNL     1     -11.309  11.925  67.385  1.00  0.00    -0.324 A  
ENDROOT
BRANCH   9  10
HETATM   10  O   UNL     1     -11.185  10.587  67.085  1.00  0.00    -0.274 OA 
BRANCH  10  11
HETATM   11  C   UNL     1     -10.043  10.116  66.464  1.00  0.00    -0.234 A  
HETATM   12  C   UNL     1      -9.450   8.958  66.985  1.00  0.00    -0.166 A  
HETATM   13  C   UNL     1      -8.254   8.464  66.449  1.00  0.00    -0.109 A  
HETATM   14 CL   UNL     1     -10.162   8.094  68.302  1.00  0.00    -0.233 Cl 
HETATM   15  C   UNL     1      -7.655   9.129  65.383  1.00  0.00    -0.097 A  
HETATM   16  C   UNL     1      -8.233  10.280  64.852  1.00  0.00    -0.157 A  
HETATM   17 CL   UNL     1      -6.173   8.541  64.734  1.00  0.00    -0.064 Cl 
HETATM   18  C   UNL     1      -9.415  10.784  65.404  1.00  0.00    -0.258 A  
ENDBRANCH  10  11
ENDBRANCH   9  10
TORSDOF 2
ENDMDL
MODEL      144
REMARK 921   NORMALIZED FREE ENERGY PREDICTED BY IDOCK:   -3.98 KCAL/MOL
REMARK 922        TOTAL FREE ENERGY PREDICTED BY IDOCK:   -4.74 KCAL/MOL
REMARK 923 INTER-LIGAND FREE ENERGY PREDICTED BY IDOCK:   -4.25 KCAL/MOL
REMARK 924 INTRA-LIGAND FREE ENERGY PREDICTED BY IDOCK:   -0.49 KCAL/MOL
REMARK 927      BINDING AFFINITY PREDICTED BY RF-SCORE:    0.00 PKD
ROOT
HETATM    1  O   UNL     1      -8.859  18.147  65.725  1.00  0.00    -0.462 OA 
HETATM    2  C   UNL     1      -8.254  17.952  66.938  1.00  0.00    -0.237 A  
HETATM    3  H   UNL     1      -9.172  17.398  65.230  1.00  0.00     0.000 HD 
HETATM    4  C   UNL     1      -7.795  19.051  67.664  1.00  0.00    -0.269 A  
HETATM    5  C   UNL     1      -7.177  18.844  68.898  1.00  0.00    -0.316 A  
HETATM    6  C   UNL     1      -6.983  17.554  69.386  1.00  0.00    -0.098 A  
HETATM    7 CL   UNL     1      -6.653  20.194  69.826  1.00  0.00    -0.338 Cl 
HETATM    8  C   UNL     1      -7.424  16.456  68.647  1.00  0.00    -0.194 A  
HETATM    9  C   UNL     1      -8.109  16.651  67.440  1.00  0.00    -0.167 A  
ENDROOT
BRANCH   9  10
HETATM   10  O   UNL     1      -8.584  15.605  66.681  1.00  0.00    -0.247 OA 
BRANCH  10  11
HETATM   11  C   UNL     1      -9.457  14.686  67.231  1.00  0.00    -0.219 A  
HETATM   12  C   UNL     1      -8.967  13.401  67.497  1.00  0.00    -0.207 A  
HETATM   13  C   UNL     1      -9.813  12.400  67.991  1.00  0.00    -0.205 A  
HETATM   14 CL   UNL     1      -7.307  12.996  67.231  1.00  0.00    -0.115 Cl 
HETATM   15  C   UNL     1     -11.154  12.690  68.225  1.00  0.00    -0.261 A  
HETATM   16  C   UNL     1     -11.657  13.964  67.968  1.00  0.00    -0.368 A  
HETATM   17 CL   UNL     1     -12.205  11.460  68.809  1.00  0.00    -0.241 Cl 
HETATM   18  C   UNL     1     -10.815  14.955  67.453  1.00  0.00    -0.304 A  
ENDBRANCH  10  11
ENDBRANCH   9  10
TORSDOF 2
ENDMDL
MODEL      145
REMARK 921   NORMALIZED FREE ENERGY PREDICTED BY IDOCK:   -3.97 KCAL/MOL
REMARK 922        TOTAL FREE ENERGY PREDICTED BY IDOCK:   -4.74 KCAL/MOL
REMARK 923 INTER-LIGAND FREE ENERGY PREDICTED BY IDOCK:   -4.45 KCAL/MOL
REMARK 924 INTRA-LIGAND FREE ENERGY PREDICTED BY IDOCK:   -0.29 KCAL/MOL
REMARK 927      BINDING AFFINITY PREDICTED BY RF-SCORE:    0.00 PKD
ROOT
HETATM    1  O   UNL     1     -10.687   8.589  68.134  1.00  0.00    -0.404 OA 
HETATM    2  C   UNL     1      -9.730   9.562  68.038  1.00  0.00    -0.147 A  
HETATM    3  H   UNL     1     -11.603   8.835  68.194  1.00  0.00     0.000 HD 
HETATM    4  C   UNL     1      -8.385   9.201  67.949  1.00  0.00    -0.117 A  
HETATM    5  C   UNL     1      -7.415  10.200  67.854  1.00  0.00    -0.088 A  
HETATM    6  C   UNL     1      -7.776  11.545  67.886  1.00  0.00    -0.120 A  
HETATM    7 CL   UNL     1      -5.759   9.766  67.693  1.00  0.00    -0.040 Cl 
HETATM    8  C   UNL     1      -9.120  11.903  67.996  1.00  0.00    -0.189 A  
HETATM    9  C   UNL     1     -10.111  10.911  68.022  1.00  0.00    -0.177 A  
ENDROOT
BRANCH   9  10
HETATM   10  O   UNL     1     -11.452  11.209  68.109  1.00  0.00    -0.284 OA 
BRANCH  10  11
HETATM   11  C   UNL     1     -11.925  11.989  69.148  1.00  0.00    -0.268 A  
HETATM   12  C   UNL     1     -12.020  13.371  68.932  1.00  0.00    -0.324 A  
HETATM   13  C   UNL     1     -12.425  14.230  69.961  1.00  0.00    -0.355 A  
HETATM   14 CL   UNL     1     -11.645  14.071  67.396  1.00  0.00    -0.372 Cl 
HETATM   15  C   UNL     1     -12.743  13.701  71.209  1.00  0.00    -0.361 A  
HETATM   16  C   UNL     1     -12.656  12.330  71.440  1.00  0.00    -0.303 A  
HETATM   17 CL   UNL     1     -13.219  14.753  72.485  1.00  0.00    -0.458 Cl 
HETATM   18  C   UNL     1     -12.228  11.477  70.416  1.00  0.00    -0.442 A  
ENDBRANCH  10  11
ENDBRANCH   9  10
TORSDOF 2
ENDMDL
MODEL      146
REMARK 921   NORMALIZED FREE ENERGY PREDICTED BY IDOCK:   -3.97 KCAL/MOL
REMARK 922        TOTAL FREE ENERGY PREDICTED BY IDOCK:   -4.74 KCAL/MOL
REMARK 923 INTER-LIGAND FREE ENERGY PREDICTED BY IDOCK:   -4.36 KCAL/MOL
REMARK 924 INTRA-LIGAND FREE ENERGY PREDICTED BY IDOCK:   -0.38 KCAL/MOL
REMARK 927      BINDING AFFINITY PREDICTED BY RF-SCORE:    0.00 PKD
ROOT
HETATM    1  O   UNL     1     -10.352  10.192  70.297  1.00  0.00    -0.352 OA 
HETATM    2  C   UNL     1     -10.309   9.615  69.056  1.00  0.00    -0.205 A  
HETATM    3  H   UNL     1     -10.326  11.139  70.376  1.00  0.00     0.000 HD 
HETATM    4  C   UNL     1     -10.349   8.226  68.940  1.00  0.00    -0.230 A  
HETATM    5  C   UNL     1     -10.302   7.645  67.672  1.00  0.00    -0.237 A  
HETATM    6  C   UNL     1     -10.178   8.438  66.533  1.00  0.00    -0.277 A  
HETATM    7 CL   UNL     1     -10.402   5.936  67.513  1.00  0.00    -0.229 Cl 
HETATM    8  C   UNL     1     -10.117   9.827  66.654  1.00  0.00    -0.303 A  
HETATM    9  C   UNL     1     -10.234  10.427  67.915  1.00  0.00    -0.179 A  
ENDROOT
BRANCH   9  10
HETATM   10  O   UNL     1     -10.200  11.792  68.091  1.00  0.00    -0.190 OA 
BRANCH  10  11
HETATM   11  C   UNL     1     -10.696  12.631  67.110  1.00  0.00    -0.241 A  
HETATM   12  C   UNL     1      -9.799  13.515  66.495  1.00  0.00    -0.291 A  
HETATM   13  C   UNL     1     -10.244  14.440  65.544  1.00  0.00    -0.386 A  
HETATM   14 CL   UNL     1      -8.113  13.501  66.880  1.00  0.00     0.001 Cl 
HETATM   15  C   UNL     1     -11.593  14.476  65.202  1.00  0.00    -0.371 A  
HETATM   16  C   UNL     1     -12.498  13.604  65.803  1.00  0.00    -0.524 A  
HETATM   17 CL   UNL     1     -12.152  15.626  64.051  1.00  0.00    -0.111 Cl 
HETATM   18  C   UNL     1     -12.054  12.696  66.770  1.00  0.00    -0.236 A  
ENDBRANCH  10  11
ENDBRANCH   9  10
TORSDOF 2
ENDMDL
MODEL      147
REMARK 921   NORMALIZED FREE ENERGY PREDICTED BY IDOCK:   -3.97 KCAL/MOL
REMARK 922        TOTAL FREE ENERGY PREDICTED BY IDOCK:   -4.73 KCAL/MOL
REMARK 923 INTER-LIGAND FREE ENERGY PREDICTED BY IDOCK:   -4.23 KCAL/MOL
REMARK 924 INTRA-LIGAND FREE ENERGY PREDICTED BY IDOCK:   -0.50 KCAL/MOL
REMARK 927      BINDING AFFINITY PREDICTED BY RF-SCORE:    0.00 PKD
ROOT
HETATM    1  O   UNL     1     -11.764   6.358  69.224  1.00  0.00    -0.608 OA 
HETATM    2  C   UNL     1     -11.191   7.148  70.183  1.00  0.00    -0.262 A  
HETATM    3  H   UNL     1     -11.860   6.689  68.338  1.00  0.00     0.000 HD 
HETATM    4  C   UNL     1     -11.050   6.662  71.483  1.00  0.00    -0.297 A  
HETATM    5  C   UNL     1     -10.466   7.475  72.457  1.00  0.00    -0.249 A  
HETATM    6  C   UNL     1     -10.064   8.773  72.148  1.00  0.00    -0.362 A  
HETATM    7 CL   UNL     1     -10.240   6.869  74.049  1.00  0.00    -0.392 Cl 
HETATM    8  C   UNL     1     -10.226   9.263  70.852  1.00  0.00    -0.371 A  
HETATM    9  C   UNL     1     -10.745   8.435  69.848  1.00  0.00    -0.227 A  
ENDROOT
BRANCH   9  10
HETATM   10  O   UNL     1     -10.908   8.860  68.548  1.00  0.00    -0.125 OA 
BRANCH  10  11
HETATM   11  C   UNL     1      -9.808   9.208  67.787  1.00  0.00    -0.174 A  
HETATM   12  C   UNL     1      -9.838  10.444  67.127  1.00  0.00    -0.181 A  
HETATM   13  C   UNL     1      -8.789  10.831  66.284  1.00  0.00    -0.182 A  
HETATM   14 CL   UNL     1     -11.162  11.539  67.323  1.00  0.00    -0.349 Cl 
HETATM   15  C   UNL     1      -7.702   9.979  66.108  1.00  0.00    -0.108 A  
HETATM   16  C   UNL     1      -7.655   8.748  66.759  1.00  0.00    -0.090 A  
HETATM   17 CL   UNL     1      -6.420  10.438  65.056  1.00  0.00    -0.115 Cl 
HETATM   18  C   UNL     1      -8.716   8.354  67.581  1.00  0.00    -0.137 A  
ENDBRANCH  10  11
ENDBRANCH   9  10
TORSDOF 2
ENDMDL
MODEL      148
REMARK 921   NORMALIZED FREE ENERGY PREDICTED BY IDOCK:   -3.96 KCAL/MOL
REMARK 922        TOTAL FREE ENERGY PREDICTED BY IDOCK:   -4.73 KCAL/MOL
REMARK 923 INTER-LIGAND FREE ENERGY PREDICTED BY IDOCK:   -4.21 KCAL/MOL
REMARK 924 INTRA-LIGAND FREE ENERGY PREDICTED BY IDOCK:   -0.52 KCAL/MOL
REMARK 927      BINDING AFFINITY PREDICTED BY RF-SCORE:    0.00 PKD
ROOT
HETATM    1  O   UNL     1     -11.283  12.179  69.731  1.00  0.00    -0.469 OA 
HETATM    2  C   UNL     1     -10.508  12.051  68.610  1.00  0.00    -0.218 A  
HETATM    3  H   UNL     1     -11.164  12.929  70.302  1.00  0.00     0.000 HD 
HETATM    4  C   UNL     1     -10.683  10.949  67.772  1.00  0.00    -0.279 A  
HETATM    5  C   UNL     1      -9.888  10.825  66.632  1.00  0.00    -0.200 A  
HETATM    6  C   UNL     1      -8.901  11.768  66.350  1.00  0.00    -0.170 A  
HETATM    7 CL   UNL     1     -10.128   9.499  65.565  1.00  0.00    -0.229 Cl 
HETATM    8  C   UNL     1      -8.715  12.858  67.201  1.00  0.00    -0.205 A  
HETATM    9  C   UNL     1      -9.553  13.033  68.311  1.00  0.00    -0.213 A  
ENDROOT
BRANCH   9  10
HETATM   10  O   UNL     1      -9.427  14.100  69.172  1.00  0.00    -0.011 OA 
BRANCH  10  11
HETATM   11  C   UNL     1      -9.712  15.381  68.739  1.00  0.00    -0.210 A  
HETATM   12  C   UNL     1      -8.718  16.357  68.896  1.00  0.00    -0.253 A  
HETATM   13  C   UNL     1      -8.962  17.689  68.543  1.00  0.00    -0.289 A  
HETATM   14 CL   UNL     1      -7.158  15.961  69.527  1.00  0.00    -0.204 Cl 
HETATM   15  C   UNL     1     -10.204  18.045  68.024  1.00  0.00    -0.382 A  
HETATM   16  C   UNL     1     -11.202  17.086  67.859  1.00  0.00     0.015 A  
HETATM   17 CL   UNL     1     -10.519  19.685  67.609  1.00  0.00    -0.566 Cl 
HETATM   18  C   UNL     1     -10.963  15.760  68.235  1.00  0.00    -0.325 A  
ENDBRANCH  10  11
ENDBRANCH   9  10
TORSDOF 2
ENDMDL
MODEL      149
REMARK 921   NORMALIZED FREE ENERGY PREDICTED BY IDOCK:   -3.95 KCAL/MOL
REMARK 922        TOTAL FREE ENERGY PREDICTED BY IDOCK:   -4.72 KCAL/MOL
REMARK 923 INTER-LIGAND FREE ENERGY PREDICTED BY IDOCK:   -4.36 KCAL/MOL
REMARK 924 INTRA-LIGAND FREE ENERGY PREDICTED BY IDOCK:   -0.35 KCAL/MOL
REMARK 927      BINDING AFFINITY PREDICTED BY RF-SCORE:    0.00 PKD
ROOT
HETATM    1  O   UNL     1      -7.782   9.975  67.597  1.00  0.00    -0.091 OA 
HETATM    2  C   UNL     1      -9.018  10.484  67.890  1.00  0.00    -0.137 A  
HETATM    3  H   UNL     1      -7.302   9.494  68.261  1.00  0.00     0.000 HD 
HETATM    4  C   UNL     1      -9.722  11.190  66.915  1.00  0.00    -0.216 A  
HETATM    5  C   UNL     1     -10.981  11.708  67.222  1.00  0.00    -0.267 A  
HETATM    6  C   UNL     1     -11.516  11.559  68.500  1.00  0.00    -0.354 A  
HETATM    7 CL   UNL     1     -11.881  12.536  66.013  1.00  0.00    -0.476 Cl 
HETATM    8  C   UNL     1     -10.800  10.870  69.479  1.00  0.00    -0.286 A  
HETATM    9  C   UNL     1      -9.567  10.284  69.165  1.00  0.00    -0.218 A  
ENDROOT
BRANCH   9  10
HETATM   10  O   UNL     1      -8.827   9.577  70.087  1.00  0.00    -0.201 OA 
BRANCH  10  11
HETATM   11  C   UNL     1      -9.418   8.571  70.828  1.00  0.00    -0.178 A  
HETATM   12  C   UNL     1      -9.458   7.288  70.266  1.00  0.00    -0.165 A  
HETATM   13  C   UNL     1     -10.102   6.236  70.930  1.00  0.00    -0.227 A  
HETATM   14 CL   UNL     1      -8.720   6.947  68.741  1.00  0.00    -0.130 Cl 
HETATM   15  C   UNL     1     -10.701   6.470  72.164  1.00  0.00    -0.221 A  
HETATM   16  C   UNL     1     -10.668   7.739  72.738  1.00  0.00    -0.417 A  
HETATM   17 CL   UNL     1     -11.514   5.188  72.976  1.00  0.00    -0.382 Cl 
HETATM   18  C   UNL     1     -10.045   8.794  72.061  1.00  0.00    -0.397 A  
ENDBRANCH  10  11
ENDBRANCH   9  10
TORSDOF 2
ENDMDL
MODEL      150
REMARK 921   NORMALIZED FREE ENERGY PREDICTED BY IDOCK:   -3.94 KCAL/MOL
REMARK 922        TOTAL FREE ENERGY PREDICTED BY IDOCK:   -4.70 KCAL/MOL
REMARK 923 INTER-LIGAND FREE ENERGY PREDICTED BY IDOCK:   -4.35 KCAL/MOL
REMARK 924 INTRA-LIGAND FREE ENERGY PREDICTED BY IDOCK:   -0.35 KCAL/MOL
REMARK 927      BINDING AFFINITY PREDICTED BY RF-SCORE:    0.00 PKD
ROOT
HETATM    1  O   UNL     1      -7.040   8.867  68.193  1.00  0.00    -0.076 OA 
HETATM    2  C   UNL     1      -8.271   8.308  67.979  1.00  0.00    -0.128 A  
HETATM    3  H   UNL     1      -6.715   9.532  67.597  1.00  0.00     0.000 HD 
HETATM    4  C   UNL     1      -8.747   7.332  68.854  1.00  0.00    -0.128 A  
HETATM    5  C   UNL     1     -10.002   6.765  68.628  1.00  0.00    -0.146 A  
HETATM    6  C   UNL     1     -10.758   7.139  67.518  1.00  0.00    -0.344 A  
HETATM    7 CL   UNL     1     -10.622   5.599  69.728  1.00  0.00    -0.378 Cl 
HETATM    8  C   UNL     1     -10.269   8.100  66.633  1.00  0.00    -0.329 A  
HETATM    9  C   UNL     1      -9.043   8.728  66.887  1.00  0.00    -0.139 A  
ENDROOT
BRANCH   9  10
HETATM   10  O   UNL     1      -8.523   9.697  66.057  1.00  0.00    -0.121 OA 
BRANCH  10  11
HETATM   11  C   UNL     1      -9.353  10.645  65.489  1.00  0.00    -0.205 A  
HETATM   12  C   UNL     1      -9.707  11.752  66.273  1.00  0.00    -0.222 A  
HETATM   13  C   UNL     1     -10.599  12.716  65.787  1.00  0.00    -0.296 A  
HETATM   14 CL   UNL     1      -9.063  11.976  67.861  1.00  0.00    -0.176 Cl 
HETATM   15  C   UNL     1     -11.132  12.574  64.509  1.00  0.00    -0.317 A  
HETATM   16  C   UNL     1     -10.789  11.481  63.717  1.00  0.00    -0.486 A  
HETATM   17 CL   UNL     1     -12.247  13.742  63.915  1.00  0.00    -0.464 Cl 
HETATM   18  C   UNL     1      -9.916  10.507  64.214  1.00  0.00    -0.398 A  
ENDBRANCH  10  11
ENDBRANCH   9  10
TORSDOF 2
ENDMDL
MODEL      151
REMARK 921   NORMALIZED FREE ENERGY PREDICTED BY IDOCK:   -3.92 KCAL/MOL
REMARK 922        TOTAL FREE ENERGY PREDICTED BY IDOCK:   -4.68 KCAL/MOL
REMARK 923 INTER-LIGAND FREE ENERGY PREDICTED BY IDOCK:   -4.63 KCAL/MOL
REMARK 924 INTRA-LIGAND FREE ENERGY PREDICTED BY IDOCK:   -0.04 KCAL/MOL
REMARK 927      BINDING AFFINITY PREDICTED BY RF-SCORE:    0.00 PKD
ROOT
HETATM    1  O   UNL     1      -9.305  13.832  68.753  1.00  0.00    -0.369 OA 
HETATM    2  C   UNL     1      -9.819  14.269  67.562  1.00  0.00    -0.231 A  
HETATM    3  H   UNL     1      -8.416  14.063  68.994  1.00  0.00     0.000 HD 
HETATM    4  C   UNL     1     -11.126  13.931  67.209  1.00  0.00    -0.312 A  
HETATM    5  C   UNL     1     -11.642  14.378  65.992  1.00  0.00    -0.363 A  
HETATM    6  C   UNL     1     -10.852  15.122  65.117  1.00  0.00    -0.437 A  
HETATM    7 CL   UNL     1     -13.267  14.011  65.569  1.00  0.00    -0.266 Cl 
HETATM    8  C   UNL     1      -9.539  15.440  65.464  1.00  0.00    -0.253 A  
HETATM    9  C   UNL     1      -9.030  15.058  66.713  1.00  0.00    -0.265 A  
ENDROOT
BRANCH   9  10
HETATM   10  O   UNL     1      -7.749  15.363  67.115  1.00  0.00    -0.192 OA 
BRANCH  10  11
HETATM   11  C   UNL     1      -7.368  16.681  67.284  1.00  0.00    -0.171 A  
HETATM   12  C   UNL     1      -6.797  17.040  68.513  1.00  0.00    -0.179 A  
HETATM   13  C   UNL     1      -6.451  18.371  68.779  1.00  0.00    -0.239 A  
HETATM   14 CL   UNL     1      -6.495  15.866  69.745  1.00  0.00    -0.182 Cl 
HETATM   15  C   UNL     1      -6.673  19.344  67.809  1.00  0.00    -0.224 A  
HETATM   16  C   UNL     1      -7.237  19.003  66.581  1.00  0.00    -0.227 A  
HETATM   17 CL   UNL     1      -6.272  20.985  68.137  1.00  0.00    -0.387 Cl 
HETATM   18  C   UNL     1      -7.603  17.677  66.327  1.00  0.00    -0.334 A  
ENDBRANCH  10  11
ENDBRANCH   9  10
TORSDOF 2
ENDMDL
MODEL      152
REMARK 921   NORMALIZED FREE ENERGY PREDICTED BY IDOCK:   -3.91 KCAL/MOL
REMARK 922        TOTAL FREE ENERGY PREDICTED BY IDOCK:   -4.67 KCAL/MOL
REMARK 923 INTER-LIGAND FREE ENERGY PREDICTED BY IDOCK:   -4.68 KCAL/MOL
REMARK 924 INTRA-LIGAND FREE ENERGY PREDICTED BY IDOCK:    0.01 KCAL/MOL
REMARK 927      BINDING AFFINITY PREDICTED BY RF-SCORE:    0.00 PKD
ROOT
HETATM    1  O   UNL     1     -11.902   6.792  69.539  1.00  0.00    -0.635 OA 
HETATM    2  C   UNL     1     -10.956   6.648  70.518  1.00  0.00    -0.286 A  
HETATM    3  H   UNL     1     -11.695   7.286  68.754  1.00  0.00     0.000 HD 
HETATM    4  C   UNL     1     -11.261   5.923  71.670  1.00  0.00    -0.300 A  
HETATM    5  C   UNL     1     -10.291   5.783  72.665  1.00  0.00    -0.198 A  
HETATM    6  C   UNL     1      -9.045   6.391  72.531  1.00  0.00    -0.136 A  
HETATM    7 CL   UNL     1     -10.637   4.849  74.066  1.00  0.00    -0.325 Cl 
HETATM    8  C   UNL     1      -8.752   7.134  71.386  1.00  0.00    -0.124 A  
HETATM    9  C   UNL     1      -9.689   7.224  70.349  1.00  0.00    -0.172 A  
ENDROOT
BRANCH   9  10
HETATM   10  O   UNL     1      -9.444   7.927  69.190  1.00  0.00    -0.154 OA 
BRANCH  10  11
HETATM   11  C   UNL     1     -10.129   9.099  68.930  1.00  0.00    -0.197 A  
HETATM   12  C   UNL     1     -10.340   9.445  67.588  1.00  0.00    -0.246 A  
HETATM   13  C   UNL     1     -10.965  10.651  67.250  1.00  0.00    -0.348 A  
HETATM   14 CL   UNL     1      -9.843   8.404  66.300  1.00  0.00    -0.297 Cl 
HETATM   15  C   UNL     1     -11.386  11.511  68.260  1.00  0.00    -0.286 A  
HETATM   16  C   UNL     1     -11.186  11.182  69.599  1.00  0.00    -0.333 A  
HETATM   17 CL   UNL     1     -12.134  13.006  67.852  1.00  0.00    -0.317 Cl 
HETATM   18  C   UNL     1     -10.540   9.986  69.933  1.00  0.00    -0.324 A  
ENDBRANCH  10  11
ENDBRANCH   9  10
TORSDOF 2
ENDMDL
MODEL      153
REMARK 921   NORMALIZED FREE ENERGY PREDICTED BY IDOCK:   -3.91 KCAL/MOL
REMARK 922        TOTAL FREE ENERGY PREDICTED BY IDOCK:   -4.66 KCAL/MOL
REMARK 923 INTER-LIGAND FREE ENERGY PREDICTED BY IDOCK:   -4.39 KCAL/MOL
REMARK 924 INTRA-LIGAND FREE ENERGY PREDICTED BY IDOCK:   -0.27 KCAL/MOL
REMARK 927      BINDING AFFINITY PREDICTED BY RF-SCORE:    0.00 PKD
ROOT
HETATM    1  O   UNL     1      -9.637   9.840  71.156  1.00  0.00    -0.293 OA 
HETATM    2  C   UNL     1     -10.678   8.952  71.122  1.00  0.00    -0.263 A  
HETATM    3  H   UNL     1      -8.831   9.637  70.696  1.00  0.00     0.000 HD 
HETATM    4  C   UNL     1     -11.861   9.250  71.799  1.00  0.00    -0.454 A  
HETATM    5  C   UNL     1     -12.918   8.339  71.762  1.00  0.00    -0.344 A  
HETATM    6  C   UNL     1     -12.783   7.125  71.090  1.00  0.00    -0.363 A  
HETATM    7 CL   UNL     1     -14.399   8.718  72.548  1.00  0.00    -0.451 Cl 
HETATM    8  C   UNL     1     -11.591   6.821  70.433  1.00  0.00    -0.422 A  
HETATM    9  C   UNL     1     -10.548   7.756  70.403  1.00  0.00    -0.227 A  
ENDROOT
BRANCH   9  10
HETATM   10  O   UNL     1      -9.358   7.516  69.752  1.00  0.00    -0.151 OA 
BRANCH  10  11
HETATM   11  C   UNL     1      -9.219   7.838  68.415  1.00  0.00    -0.137 A  
HETATM   12  C   UNL     1      -7.979   7.585  67.811  1.00  0.00    -0.118 A  
HETATM   13  C   UNL     1      -7.745   7.949  66.479  1.00  0.00    -0.097 A  
HETATM   14 CL   UNL     1      -6.694   6.818  68.676  1.00  0.00    -0.061 Cl 
HETATM   15  C   UNL     1      -8.759   8.562  65.749  1.00  0.00    -0.179 A  
HETATM   16  C   UNL     1      -9.997   8.819  66.333  1.00  0.00    -0.346 A  
HETATM   17 CL   UNL     1      -8.471   9.033  64.119  1.00  0.00    -0.191 Cl 
HETATM   18  C   UNL     1     -10.220   8.475  67.671  1.00  0.00    -0.297 A  
ENDBRANCH  10  11
ENDBRANCH   9  10
TORSDOF 2
ENDMDL
MODEL      154
REMARK 921   NORMALIZED FREE ENERGY PREDICTED BY IDOCK:   -3.88 KCAL/MOL
REMARK 922        TOTAL FREE ENERGY PREDICTED BY IDOCK:   -4.64 KCAL/MOL
REMARK 923 INTER-LIGAND FREE ENERGY PREDICTED BY IDOCK:   -4.67 KCAL/MOL
REMARK 924 INTRA-LIGAND FREE ENERGY PREDICTED BY IDOCK:    0.04 KCAL/MOL
REMARK 927      BINDING AFFINITY PREDICTED BY RF-SCORE:    0.00 PKD
ROOT
HETATM    1  O   UNL     1     -13.313   9.476  70.589  1.00  0.00    -0.569 OA 
HETATM    2  C   UNL     1     -11.960   9.350  70.761  1.00  0.00    -0.231 A  
HETATM    3  H   UNL     1     -13.649   9.913  69.815  1.00  0.00     0.000 HD 
HETATM    4  C   UNL     1     -11.466   8.708  71.897  1.00  0.00    -0.419 A  
HETATM    5  C   UNL     1     -10.086   8.585  72.065  1.00  0.00    -0.316 A  
HETATM    6  C   UNL     1      -9.207   9.131  71.132  1.00  0.00    -0.301 A  
HETATM    7 CL   UNL     1      -9.466   7.751  73.435  1.00  0.00    -0.332 Cl 
HETATM    8  C   UNL     1      -9.704   9.791  70.009  1.00  0.00    -0.292 A  
HETATM    9  C   UNL     1     -11.087   9.860  69.790  1.00  0.00    -0.254 A  
ENDROOT
BRANCH   9  10
HETATM   10  O   UNL     1     -11.631  10.481  68.688  1.00  0.00    -0.258 OA 
BRANCH  10  11
HETATM   11  C   UNL     1     -10.933  10.519  67.496  1.00  0.00    -0.303 A  
HETATM   12  C   UNL     1     -10.620   9.296  66.887  1.00  0.00    -0.169 A  
HETATM   13  C   UNL     1      -9.857   9.257  65.714  1.00  0.00    -0.302 A  
HETATM   14 CL   UNL     1     -11.160   7.794  67.550  1.00  0.00    -0.010 Cl 
HETATM   15  C   UNL     1      -9.410  10.446  65.145  1.00  0.00    -0.222 A  
HETATM   16  C   UNL     1      -9.715  11.670  65.737  1.00  0.00    -0.262 A  
HETATM   17 CL   UNL     1      -8.452  10.404  63.717  1.00  0.00    -0.171 Cl 
HETATM   18  C   UNL     1     -10.458  11.706  66.922  1.00  0.00    -0.262 A  
ENDBRANCH  10  11
ENDBRANCH   9  10
TORSDOF 2
ENDMDL
MODEL      155
REMARK 921   NORMALIZED FREE ENERGY PREDICTED BY IDOCK:   -3.85 KCAL/MOL
REMARK 922        TOTAL FREE ENERGY PREDICTED BY IDOCK:   -4.60 KCAL/MOL
REMARK 923 INTER-LIGAND FREE ENERGY PREDICTED BY IDOCK:   -4.28 KCAL/MOL
REMARK 924 INTRA-LIGAND FREE ENERGY PREDICTED BY IDOCK:   -0.32 KCAL/MOL
REMARK 927      BINDING AFFINITY PREDICTED BY RF-SCORE:    0.00 PKD
ROOT
HETATM    1  O   UNL     1      -8.224   9.120  69.576  1.00  0.00    -0.109 OA 
HETATM    2  C   UNL     1      -9.355   9.719  69.091  1.00  0.00    -0.182 A  
HETATM    3  H   UNL     1      -8.160   8.916  70.503  1.00  0.00     0.000 HD 
HETATM    4  C   UNL     1      -9.448  10.017  67.732  1.00  0.00    -0.157 A  
HETATM    5  C   UNL     1     -10.604  10.630  67.245  1.00  0.00    -0.263 A  
HETATM    6  C   UNL     1     -11.640  10.978  68.110  1.00  0.00    -0.345 A  
HETATM    7 CL   UNL     1     -10.753  10.956  65.564  1.00  0.00    -0.236 Cl 
HETATM    8  C   UNL     1     -11.534  10.698  69.473  1.00  0.00    -0.360 A  
HETATM    9  C   UNL     1     -10.410  10.019  69.964  1.00  0.00    -0.272 A  
ENDROOT
BRANCH   9  10
HETATM   10  O   UNL     1     -10.263   9.699  71.295  1.00  0.00    -0.245 OA 
BRANCH  10  11
HETATM   11  C   UNL     1     -10.698   8.476  71.769  1.00  0.00    -0.303 A  
HETATM   12  C   UNL     1      -9.869   7.795  72.671  1.00  0.00    -0.225 A  
HETATM   13  C   UNL     1     -10.214   6.521  73.138  1.00  0.00    -0.231 A  
HETATM   14 CL   UNL     1      -8.395   8.494  73.245  1.00  0.00    -0.163 Cl 
HETATM   15  C   UNL     1     -11.396   5.929  72.705  1.00  0.00    -0.292 A  
HETATM   16  C   UNL     1     -12.233   6.593  71.810  1.00  0.00    -0.400 A  
HETATM   17 CL   UNL     1     -11.815   4.354  73.256  1.00  0.00    -0.173 Cl 
HETATM   18  C   UNL     1     -11.874   7.856  71.327  1.00  0.00    -0.321 A  
ENDBRANCH  10  11
ENDBRANCH   9  10
TORSDOF 2
ENDMDL
MODEL      156
REMARK 921   NORMALIZED FREE ENERGY PREDICTED BY IDOCK:   -3.85 KCAL/MOL
REMARK 922        TOTAL FREE ENERGY PREDICTED BY IDOCK:   -4.60 KCAL/MOL
REMARK 923 INTER-LIGAND FREE ENERGY PREDICTED BY IDOCK:   -4.26 KCAL/MOL
REMARK 924 INTRA-LIGAND FREE ENERGY PREDICTED BY IDOCK:   -0.34 KCAL/MOL
REMARK 927      BINDING AFFINITY PREDICTED BY RF-SCORE:    0.00 PKD
ROOT
HETATM    1  O   UNL     1      -7.354   5.780  69.083  1.00  0.00    -0.078 OA 
HETATM    2  C   UNL     1      -8.443   5.637  68.266  1.00  0.00    -0.105 A  
HETATM    3  H   UNL     1      -7.382   6.405  69.799  1.00  0.00     0.000 HD 
HETATM    4  C   UNL     1      -8.401   4.719  67.216  1.00  0.00    -0.105 A  
HETATM    5  C   UNL     1      -9.515   4.581  66.385  1.00  0.00    -0.172 A  
HETATM    6  C   UNL     1     -10.643   5.377  66.574  1.00  0.00    -0.353 A  
HETATM    7 CL   UNL     1      -9.495   3.417  65.121  1.00  0.00    -0.158 Cl 
HETATM    8  C   UNL     1     -10.672   6.309  67.612  1.00  0.00    -0.391 A  
HETATM    9  C   UNL     1      -9.590   6.409  68.496  1.00  0.00    -0.122 A  
ENDROOT
BRANCH   9  10
HETATM   10  O   UNL     1      -9.575   7.297  69.549  1.00  0.00    -0.155 OA 
BRANCH  10  11
HETATM   11  C   UNL     1     -10.738   7.573  70.243  1.00  0.00    -0.238 A  
HETATM   12  C   UNL     1     -11.128   8.915  70.350  1.00  0.00    -0.239 A  
HETATM   13  C   UNL     1     -12.258   9.274  71.096  1.00  0.00    -0.373 A  
HETATM   14 CL   UNL     1     -10.241  10.177  69.571  1.00  0.00    -0.242 Cl 
HETATM   15  C   UNL     1     -13.002   8.284  71.732  1.00  0.00    -0.344 A  
HETATM   16  C   UNL     1     -12.629   6.946  71.633  1.00  0.00    -0.410 A  
HETATM   17 CL   UNL     1     -14.378   8.720  72.669  1.00  0.00    -0.371 Cl 
HETATM   18  C   UNL     1     -11.487   6.592  70.906  1.00  0.00    -0.401 A  
ENDBRANCH  10  11
ENDBRANCH   9  10
TORSDOF 2
ENDMDL
MODEL      157
REMARK 921   NORMALIZED FREE ENERGY PREDICTED BY IDOCK:   -3.79 KCAL/MOL
REMARK 922        TOTAL FREE ENERGY PREDICTED BY IDOCK:   -4.54 KCAL/MOL
REMARK 923 INTER-LIGAND FREE ENERGY PREDICTED BY IDOCK:   -4.25 KCAL/MOL
REMARK 924 INTRA-LIGAND FREE ENERGY PREDICTED BY IDOCK:   -0.29 KCAL/MOL
REMARK 927      BINDING AFFINITY PREDICTED BY RF-SCORE:    0.00 PKD
ROOT
HETATM    1  O   UNL     1     -10.495   8.113  72.807  1.00  0.00    -0.322 OA 
HETATM    2  C   UNL     1      -9.986   7.429  71.737  1.00  0.00    -0.171 A  
HETATM    3  H   UNL     1     -10.479   9.064  72.809  1.00  0.00     0.000 HD 
HETATM    4  C   UNL     1     -10.010   6.034  71.735  1.00  0.00    -0.199 A  
HETATM    5  C   UNL     1      -9.487   5.344  70.640  1.00  0.00    -0.166 A  
HETATM    6  C   UNL     1      -8.910   6.035  69.577  1.00  0.00    -0.125 A  
HETATM    7 CL   UNL     1      -9.558   3.627  70.603  1.00  0.00    -0.249 Cl 
HETATM    8  C   UNL     1      -8.869   7.429  69.592  1.00  0.00    -0.141 A  
HETATM    9  C   UNL     1      -9.453   8.137  70.651  1.00  0.00    -0.162 A  
ENDROOT
BRANCH   9  10
HETATM   10  O   UNL     1      -9.458   9.513  70.706  1.00  0.00    -0.251 OA 
BRANCH  10  11
HETATM   11  C   UNL     1      -9.956  10.250  69.649  1.00  0.00    -0.207 A  
HETATM   12  C   UNL     1     -11.288  10.680  69.726  1.00  0.00    -0.301 A  
HETATM   13  C   UNL     1     -11.880  11.371  68.662  1.00  0.00    -0.377 A  
HETATM   14 CL   UNL     1     -12.253  10.379  71.129  1.00  0.00    -0.469 Cl 
HETATM   15  C   UNL     1     -11.132  11.639  67.518  1.00  0.00    -0.276 A  
HETATM   16  C   UNL     1      -9.806  11.221  67.426  1.00  0.00    -0.201 A  
HETATM   17 CL   UNL     1     -11.859  12.468  66.197  1.00  0.00    -0.465 Cl 
HETATM   18  C   UNL     1      -9.225  10.509  68.482  1.00  0.00    -0.168 A  
ENDBRANCH  10  11
ENDBRANCH   9  10
TORSDOF 2
ENDMDL
MODEL      158
REMARK 921   NORMALIZED FREE ENERGY PREDICTED BY IDOCK:   -3.74 KCAL/MOL
REMARK 922        TOTAL FREE ENERGY PREDICTED BY IDOCK:   -4.48 KCAL/MOL
REMARK 923 INTER-LIGAND FREE ENERGY PREDICTED BY IDOCK:   -3.99 KCAL/MOL
REMARK 924 INTRA-LIGAND FREE ENERGY PREDICTED BY IDOCK:   -0.49 KCAL/MOL
REMARK 927      BINDING AFFINITY PREDICTED BY RF-SCORE:    0.00 PKD
ROOT
HETATM    1  O   UNL     1     -10.164  13.229  69.077  1.00  0.00    -0.425 OA 
HETATM    2  C   UNL     1      -8.924  13.110  68.511  1.00  0.00    -0.048 A  
HETATM    3  H   UNL     1     -10.401  14.032  69.527  1.00  0.00     0.000 HD 
HETATM    4  C   UNL     1      -8.577  11.931  67.851  1.00  0.00    -0.162 A  
HETATM    5  C   UNL     1      -7.309  11.817  67.278  1.00  0.00    -0.141 A  
HETATM    6  C   UNL     1      -6.382  12.851  67.396  1.00  0.00    -0.119 A  
HETATM    7 CL   UNL     1      -6.888  10.389  66.418  1.00  0.00    -0.105 Cl 
HETATM    8  C   UNL     1      -6.725  14.020  68.076  1.00  0.00    -0.148 A  
HETATM    9  C   UNL     1      -8.018  14.177  68.594  1.00  0.00    -0.132 A  
ENDROOT
BRANCH   9  10
HETATM   10  O   UNL     1      -8.416  15.317  69.256  1.00  0.00    -0.217 OA 
BRANCH  10  11
HETATM   11  C   UNL     1      -8.775  16.445  68.543  1.00  0.00    -0.223 A  
HETATM   12  C   UNL     1      -7.858  17.505  68.497  1.00  0.00    -0.274 A  
HETATM   13  C   UNL     1      -8.183  18.704  67.852  1.00  0.00    -0.285 A  
HETATM   14 CL   UNL     1      -6.297  17.379  69.230  1.00  0.00    -0.233 Cl 
HETATM   15  C   UNL     1      -9.428  18.840  67.244  1.00  0.00    -0.301 A  
HETATM   16  C   UNL     1     -10.349  17.796  67.278  1.00  0.00    -0.364 A  
HETATM   17 CL   UNL     1      -9.843  20.319  66.468  1.00  0.00    -0.557 Cl 
HETATM   18  C   UNL     1     -10.031  16.607  67.944  1.00  0.00    -0.254 A  
ENDBRANCH  10  11
ENDBRANCH   9  10
TORSDOF 2
ENDMDL
MODEL      159
REMARK 921   NORMALIZED FREE ENERGY PREDICTED BY IDOCK:   -3.74 KCAL/MOL
REMARK 922        TOTAL FREE ENERGY PREDICTED BY IDOCK:   -4.47 KCAL/MOL
REMARK 923 INTER-LIGAND FREE ENERGY PREDICTED BY IDOCK:   -4.07 KCAL/MOL
REMARK 924 INTRA-LIGAND FREE ENERGY PREDICTED BY IDOCK:   -0.40 KCAL/MOL
REMARK 927      BINDING AFFINITY PREDICTED BY RF-SCORE:    0.00 PKD
ROOT
HETATM    1  O   UNL     1     -12.355  12.229  67.931  1.00  0.00    -0.283 OA 
HETATM    2  C   UNL     1     -11.759  12.613  66.760  1.00  0.00    -0.392 A  
HETATM    3  H   UNL     1     -12.155  11.378  68.303  1.00  0.00     0.000 HD 
HETATM    4  C   UNL     1     -12.053  13.863  66.214  1.00  0.00    -0.484 A  
HETATM    5  C   UNL     1     -11.443  14.247  65.019  1.00  0.00    -0.364 A  
HETATM    6  C   UNL     1     -10.578  13.380  64.354  1.00  0.00    -0.423 A  
HETATM    7 CL   UNL     1     -11.758  15.805  64.363  1.00  0.00    -0.310 Cl 
HETATM    8  C   UNL     1     -10.303  12.123  64.893  1.00  0.00    -0.321 A  
HETATM    9  C   UNL     1     -10.853  11.751  66.127  1.00  0.00    -0.291 A  
ENDROOT
BRANCH   9  10
HETATM   10  O   UNL     1     -10.599  10.531  66.713  1.00  0.00    -0.247 OA 
BRANCH  10  11
HETATM   11  C   UNL     1      -9.360  10.271  67.268  1.00  0.00    -0.149 A  
HETATM   12  C   UNL     1      -8.445   9.536  66.502  1.00  0.00    -0.126 A  
HETATM   13  C   UNL     1      -7.198   9.177  67.027  1.00  0.00    -0.090 A  
HETATM   14 CL   UNL     1      -8.812   9.045  64.886  1.00  0.00    -0.215 Cl 
HETATM   15  C   UNL     1      -6.863   9.562  68.323  1.00  0.00    -0.062 A  
HETATM   16  C   UNL     1      -7.760  10.295  69.097  1.00  0.00    -0.119 A  
HETATM   17 CL   UNL     1      -5.341   9.105  68.983  1.00  0.00    -0.037 Cl 
HETATM   18  C   UNL     1      -9.015  10.631  68.578  1.00  0.00    -0.156 A  
ENDBRANCH  10  11
ENDBRANCH   9  10
TORSDOF 2
ENDMDL
MODEL      160
REMARK 921   NORMALIZED FREE ENERGY PREDICTED BY IDOCK:   -3.73 KCAL/MOL
REMARK 922        TOTAL FREE ENERGY PREDICTED BY IDOCK:   -4.47 KCAL/MOL
REMARK 923 INTER-LIGAND FREE ENERGY PREDICTED BY IDOCK:   -3.95 KCAL/MOL
REMARK 924 INTRA-LIGAND FREE ENERGY PREDICTED BY IDOCK:   -0.52 KCAL/MOL
REMARK 927      BINDING AFFINITY PREDICTED BY RF-SCORE:    0.00 PKD
ROOT
HETATM    1  O   UNL     1      -6.743  12.577  66.900  1.00  0.00    -0.366 OA 
HETATM    2  C   UNL     1      -7.289  13.686  67.489  1.00  0.00    -0.166 A  
HETATM    3  H   UNL     1      -7.310  11.878  66.595  1.00  0.00     0.000 HD 
HETATM    4  C   UNL     1      -6.455  14.711  67.935  1.00  0.00    -0.177 A  
HETATM    5  C   UNL     1      -7.019  15.837  68.537  1.00  0.00    -0.117 A  
HETATM    6  C   UNL     1      -8.397  15.923  68.728  1.00  0.00    -0.206 A  
HETATM    7 CL   UNL     1      -6.006  17.130  69.044  1.00  0.00    -0.166 Cl 
HETATM    8  C   UNL     1      -9.225  14.886  68.299  1.00  0.00    -0.187 A  
HETATM    9  C   UNL     1      -8.680  13.782  67.630  1.00  0.00    -0.185 A  
ENDROOT
BRANCH   9  10
HETATM   10  O   UNL     1      -9.454  12.740  67.169  1.00  0.00    -0.209 OA 
BRANCH  10  11
HETATM   11  C   UNL     1     -10.084  11.894  68.062  1.00  0.00    -0.195 A  
HETATM   12  C   UNL     1     -11.461  12.067  68.261  1.00  0.00    -0.303 A  
HETATM   13  C   UNL     1     -12.151  11.292  69.201  1.00  0.00    -0.348 A  
HETATM   14 CL   UNL     1     -12.362  13.236  67.361  1.00  0.00    -0.210 Cl 
HETATM   15  C   UNL     1     -11.460  10.335  69.939  1.00  0.00    -0.273 A  
HETATM   16  C   UNL     1     -10.093  10.148  69.752  1.00  0.00    -0.269 A  
HETATM   17 CL   UNL     1     -12.297   9.394  71.112  1.00  0.00    -0.380 Cl 
HETATM   18  C   UNL     1      -9.401  10.941  68.829  1.00  0.00    -0.190 A  
ENDBRANCH  10  11
ENDBRANCH   9  10
TORSDOF 2
ENDMDL
MODEL      161
REMARK 921   NORMALIZED FREE ENERGY PREDICTED BY IDOCK:   -3.73 KCAL/MOL
REMARK 922        TOTAL FREE ENERGY PREDICTED BY IDOCK:   -4.47 KCAL/MOL
REMARK 923 INTER-LIGAND FREE ENERGY PREDICTED BY IDOCK:   -4.16 KCAL/MOL
REMARK 924 INTRA-LIGAND FREE ENERGY PREDICTED BY IDOCK:   -0.31 KCAL/MOL
REMARK 927      BINDING AFFINITY PREDICTED BY RF-SCORE:    0.00 PKD
ROOT
HETATM    1  O   UNL     1     -12.615  10.641  69.395  1.00  0.00    -0.683 OA 
HETATM    2  C   UNL     1     -11.547  10.070  70.035  1.00  0.00    -0.214 A  
HETATM    3  H   UNL     1     -12.465  11.231  68.666  1.00  0.00     0.000 HD 
HETATM    4  C   UNL     1     -11.768   9.203  71.105  1.00  0.00    -0.380 A  
HETATM    5  C   UNL     1     -10.675   8.627  71.754  1.00  0.00    -0.321 A  
HETATM    6  C   UNL     1      -9.374   8.942  71.366  1.00  0.00    -0.338 A  
HETATM    7 CL   UNL     1     -10.935   7.517  73.041  1.00  0.00    -0.430 Cl 
HETATM    8  C   UNL     1      -9.157   9.827  70.309  1.00  0.00    -0.208 A  
HETATM    9  C   UNL     1     -10.245  10.357  69.603  1.00  0.00    -0.209 A  
ENDROOT
BRANCH   9  10
HETATM   10  O   UNL     1     -10.088  11.218  68.540  1.00  0.00    -0.190 OA 
BRANCH  10  11
HETATM   11  C   UNL     1      -9.029  11.058  67.666  1.00  0.00    -0.142 A  
HETATM   12  C   UNL     1      -9.104  10.010  66.739  1.00  0.00    -0.139 A  
HETATM   13  C   UNL     1      -8.039   9.746  65.869  1.00  0.00    -0.114 A  
HETATM   14 CL   UNL     1     -10.506   9.005  66.626  1.00  0.00    -0.286 Cl 
HETATM   15  C   UNL     1      -6.896  10.539  65.925  1.00  0.00    -0.132 A  
HETATM   16  C   UNL     1      -6.806  11.586  66.840  1.00  0.00    -0.138 A  
HETATM   17 CL   UNL     1      -5.574  10.207  64.876  1.00  0.00    -0.098 Cl 
HETATM   18  C   UNL     1      -7.862  11.833  67.723  1.00  0.00    -0.135 A  
ENDBRANCH  10  11
ENDBRANCH   9  10
TORSDOF 2
ENDMDL
MODEL      162
REMARK 921   NORMALIZED FREE ENERGY PREDICTED BY IDOCK:   -3.73 KCAL/MOL
REMARK 922        TOTAL FREE ENERGY PREDICTED BY IDOCK:   -4.46 KCAL/MOL
REMARK 923 INTER-LIGAND FREE ENERGY PREDICTED BY IDOCK:   -4.03 KCAL/MOL
REMARK 924 INTRA-LIGAND FREE ENERGY PREDICTED BY IDOCK:   -0.43 KCAL/MOL
REMARK 927      BINDING AFFINITY PREDICTED BY RF-SCORE:    0.00 PKD
ROOT
HETATM    1  O   UNL     1     -12.601  13.372  68.730  1.00  0.00    -0.013 OA 
HETATM    2  C   UNL     1     -12.210  14.337  69.619  1.00  0.00    -0.323 A  
HETATM    3  H   UNL     1     -12.104  13.240  67.931  1.00  0.00     0.000 HD 
HETATM    4  C   UNL     1     -12.939  14.530  70.793  1.00  0.00    -0.403 A  
HETATM    5  C   UNL     1     -12.535  15.517  71.693  1.00  0.00    -0.406 A  
HETATM    6  C   UNL     1     -11.440  16.330  71.409  1.00  0.00    -0.361 A  
HETATM    7 CL   UNL     1     -13.395  15.730  73.166  1.00  0.00    -0.663 Cl 
HETATM    8  C   UNL     1     -10.726  16.148  70.224  1.00  0.00    -0.235 A  
HETATM    9  C   UNL     1     -11.077  15.115  69.345  1.00  0.00    -0.276 A  
ENDROOT
BRANCH   9  10
HETATM   10  O   UNL     1     -10.395  14.879  68.172  1.00  0.00    -0.232 OA 
BRANCH  10  11
HETATM   11  C   UNL     1      -9.207  14.172  68.189  1.00  0.00    -0.194 A  
HETATM   12  C   UNL     1      -8.013  14.905  68.140  1.00  0.00    -0.130 A  
HETATM   13  C   UNL     1      -6.775  14.253  68.084  1.00  0.00    -0.129 A  
HETATM   14 CL   UNL     1      -8.015  16.633  68.146  1.00  0.00    -0.172 Cl 
HETATM   15  C   UNL     1      -6.733  12.861  68.085  1.00  0.00    -0.096 A  
HETATM   16  C   UNL     1      -7.910  12.118  68.136  1.00  0.00    -0.147 A  
HETATM   17 CL   UNL     1      -5.217  12.053  67.994  1.00  0.00    -0.049 Cl 
HETATM   18  C   UNL     1      -9.146  12.772  68.167  1.00  0.00    -0.203 A  
ENDBRANCH  10  11
ENDBRANCH   9  10
TORSDOF 2
ENDMDL
MODEL      163
REMARK 921   NORMALIZED FREE ENERGY PREDICTED BY IDOCK:   -3.69 KCAL/MOL
REMARK 922        TOTAL FREE ENERGY PREDICTED BY IDOCK:   -4.43 KCAL/MOL
REMARK 923 INTER-LIGAND FREE ENERGY PREDICTED BY IDOCK:   -4.05 KCAL/MOL
REMARK 924 INTRA-LIGAND FREE ENERGY PREDICTED BY IDOCK:   -0.37 KCAL/MOL
REMARK 927      BINDING AFFINITY PREDICTED BY RF-SCORE:    0.00 PKD
ROOT
HETATM    1  O   UNL     1      -8.977   8.722  71.814  1.00  0.00    -0.225 OA 
HETATM    2  C   UNL     1     -10.226   8.173  71.700  1.00  0.00    -0.206 A  
HETATM    3  H   UNL     1      -8.213   8.202  71.592  1.00  0.00     0.000 HD 
HETATM    4  C   UNL     1     -11.347   8.937  72.027  1.00  0.00    -0.427 A  
HETATM    5  C   UNL     1     -12.617   8.370  71.910  1.00  0.00    -0.349 A  
HETATM    6  C   UNL     1     -12.767   7.044  71.509  1.00  0.00    -0.425 A  
HETATM    7 CL   UNL     1     -14.008   9.317  72.260  1.00  0.00    -0.472 Cl 
HETATM    8  C   UNL     1     -11.642   6.277  71.204  1.00  0.00    -0.339 A  
HETATM    9  C   UNL     1     -10.366   6.854  71.249  1.00  0.00    -0.203 A  
ENDROOT
BRANCH   9  10
HETATM   10  O   UNL     1      -9.224   6.149  70.939  1.00  0.00    -0.152 OA 
BRANCH  10  11
HETATM   11  C   UNL     1      -9.180   5.361  69.804  1.00  0.00    -0.132 A  
HETATM   12  C   UNL     1      -8.900   5.992  68.584  1.00  0.00    -0.109 A  
HETATM   13  C   UNL     1      -8.908   5.269  67.385  1.00  0.00    -0.105 A  
HETATM   14 CL   UNL     1      -8.535   7.680  68.506  1.00  0.00    -0.129 Cl 
HETATM   15  C   UNL     1      -9.190   3.906  67.410  1.00  0.00    -0.172 A  
HETATM   16  C   UNL     1      -9.468   3.262  68.614  1.00  0.00    -0.200 A  
HETATM   17 CL   UNL     1      -9.224   3.014  65.938  1.00  0.00    -0.144 Cl 
HETATM   18  C   UNL     1      -9.483   3.993  69.807  1.00  0.00    -0.265 A  
ENDBRANCH  10  11
ENDBRANCH   9  10
TORSDOF 2
ENDMDL
MODEL      164
REMARK 921   NORMALIZED FREE ENERGY PREDICTED BY IDOCK:   -3.66 KCAL/MOL
REMARK 922        TOTAL FREE ENERGY PREDICTED BY IDOCK:   -4.39 KCAL/MOL
REMARK 923 INTER-LIGAND FREE ENERGY PREDICTED BY IDOCK:   -4.04 KCAL/MOL
REMARK 924 INTRA-LIGAND FREE ENERGY PREDICTED BY IDOCK:   -0.34 KCAL/MOL
REMARK 927      BINDING AFFINITY PREDICTED BY RF-SCORE:    0.00 PKD
ROOT
HETATM    1  O   UNL     1     -12.301  14.294  69.002  1.00  0.00    -0.539 OA 
HETATM    2  C   UNL     1     -11.904  13.035  69.362  1.00  0.00    -0.322 A  
HETATM    3  H   UNL     1     -11.840  14.752  68.308  1.00  0.00     0.000 HD 
HETATM    4  C   UNL     1     -12.580  12.364  70.381  1.00  0.00    -0.101 A  
HETATM    5  C   UNL     1     -12.168  11.080  70.744  1.00  0.00    -0.380 A  
HETATM    6  C   UNL     1     -11.070  10.487  70.125  1.00  0.00    -0.369 A  
HETATM    7 CL   UNL     1     -13.025  10.223  71.962  1.00  0.00    -0.528 Cl 
HETATM    8  C   UNL     1     -10.383  11.170  69.121  1.00  0.00    -0.186 A  
HETATM    9  C   UNL     1     -10.828  12.430  68.698  1.00  0.00    -0.240 A  
ENDROOT
BRANCH   9  10
HETATM   10  O   UNL     1     -10.200  13.139  67.698  1.00  0.00    -0.218 OA 
BRANCH  10  11
HETATM   11  C   UNL     1      -9.693  12.482  66.592  1.00  0.00    -0.242 A  
HETATM   12  C   UNL     1     -10.579  12.188  65.547  1.00  0.00    -0.277 A  
HETATM   13  C   UNL     1     -10.151  11.465  64.428  1.00  0.00    -0.341 A  
HETATM   14 CL   UNL     1     -12.229  12.704  65.592  1.00  0.00    -0.504 Cl 
HETATM   15  C   UNL     1      -8.828  11.039  64.352  1.00  0.00     0.015 A  
HETATM   16  C   UNL     1      -7.933  11.324  65.381  1.00  0.00     0.375 A  
HETATM   17 CL   UNL     1      -8.300  10.130  62.990  1.00  0.00    -0.158 Cl 
HETATM   18  C   UNL     1      -8.370  12.027  66.510  1.00  0.00    -0.024 A  
ENDBRANCH  10  11
ENDBRANCH   9  10
TORSDOF 2
ENDMDL
MODEL      165
REMARK 921   NORMALIZED FREE ENERGY PREDICTED BY IDOCK:   -3.65 KCAL/MOL
REMARK 922        TOTAL FREE ENERGY PREDICTED BY IDOCK:   -4.38 KCAL/MOL
REMARK 923 INTER-LIGAND FREE ENERGY PREDICTED BY IDOCK:   -4.02 KCAL/MOL
REMARK 924 INTRA-LIGAND FREE ENERGY PREDICTED BY IDOCK:   -0.36 KCAL/MOL
REMARK 927      BINDING AFFINITY PREDICTED BY RF-SCORE:    0.00 PKD
ROOT
HETATM    1  O   UNL     1      -8.883  14.494  67.856  1.00  0.00    -0.164 OA 
HETATM    2  C   UNL     1      -9.930  13.930  67.179  1.00  0.00    -0.239 A  
HETATM    3  H   UNL     1      -8.487  14.026  68.583  1.00  0.00     0.000 HD 
HETATM    4  C   UNL     1     -10.512  14.617  66.113  1.00  0.00    -0.308 A  
HETATM    5  C   UNL     1     -11.581  14.037  65.428  1.00  0.00    -0.328 A  
HETATM    6  C   UNL     1     -12.091  12.803  65.826  1.00  0.00    -0.505 A  
HETATM    7 CL   UNL     1     -12.272  14.850  64.081  1.00  0.00    -0.413 Cl 
HETATM    8  C   UNL     1     -11.520  12.129  66.906  1.00  0.00    -0.414 A  
HETATM    9  C   UNL     1     -10.402  12.666  67.558  1.00  0.00    -0.218 A  
ENDROOT
BRANCH   9  10
HETATM   10  O   UNL     1      -9.788  12.034  68.616  1.00  0.00    -0.194 OA 
BRANCH  10  11
HETATM   11  C   UNL     1      -9.588  10.666  68.588  1.00  0.00    -0.179 A  
HETATM   12  C   UNL     1      -8.531  10.180  67.807  1.00  0.00    -0.114 A  
HETATM   13  C   UNL     1      -8.312   8.803  67.677  1.00  0.00    -0.114 A  
HETATM   14 CL   UNL     1      -7.456  11.249  66.976  1.00  0.00    -0.132 Cl 
HETATM   15  C   UNL     1      -9.152   7.910  68.337  1.00  0.00    -0.135 A  
HETATM   16  C   UNL     1     -10.206   8.378  69.119  1.00  0.00    -0.217 A  
HETATM   17 CL   UNL     1      -8.904   6.216  68.164  1.00  0.00    -0.113 Cl 
HETATM   18  C   UNL     1     -10.437   9.753  69.228  1.00  0.00    -0.236 A  
ENDBRANCH  10  11
ENDBRANCH   9  10
TORSDOF 2
ENDMDL
MODEL      166
REMARK 921   NORMALIZED FREE ENERGY PREDICTED BY IDOCK:   -3.63 KCAL/MOL
REMARK 922        TOTAL FREE ENERGY PREDICTED BY IDOCK:   -4.36 KCAL/MOL
REMARK 923 INTER-LIGAND FREE ENERGY PREDICTED BY IDOCK:   -4.27 KCAL/MOL
REMARK 924 INTRA-LIGAND FREE ENERGY PREDICTED BY IDOCK:   -0.09 KCAL/MOL
REMARK 927      BINDING AFFINITY PREDICTED BY RF-SCORE:    0.00 PKD
ROOT
HETATM    1  O   UNL     1      -9.397   8.411  70.543  1.00  0.00    -0.155 OA 
HETATM    2  C   UNL     1     -10.303   9.364  70.163  1.00  0.00    -0.233 A  
HETATM    3  H   UNL     1      -8.765   8.085  69.913  1.00  0.00     0.000 HD 
HETATM    4  C   UNL     1     -11.232   9.842  71.088  1.00  0.00    -0.444 A  
HETATM    5  C   UNL     1     -12.154  10.811  70.692  1.00  0.00    -0.370 A  
HETATM    6  C   UNL     1     -12.177  11.272  69.377  1.00  0.00    -0.315 A  
HETATM    7 CL   UNL     1     -13.269  11.446  71.837  1.00  0.00    -0.563 Cl 
HETATM    8  C   UNL     1     -11.261  10.776  68.449  1.00  0.00    -0.345 A  
HETATM    9  C   UNL     1     -10.285   9.855  68.850  1.00  0.00    -0.196 A  
ENDROOT
BRANCH   9  10
HETATM   10  O   UNL     1      -9.344   9.348  67.980  1.00  0.00    -0.130 OA 
BRANCH  10  11
HETATM   11  C   UNL     1      -9.433   8.039  67.546  1.00  0.00    -0.146 A  
HETATM   12  C   UNL     1      -8.237   7.364  67.266  1.00  0.00    -0.115 A  
HETATM   13  C   UNL     1      -8.254   6.059  66.757  1.00  0.00    -0.106 A  
HETATM   14 CL   UNL     1      -6.699   8.106  67.536  1.00  0.00    -0.061 Cl 
HETATM   15  C   UNL     1      -9.473   5.426  66.534  1.00  0.00    -0.149 A  
HETATM   16  C   UNL     1     -10.671   6.082  66.810  1.00  0.00    -0.374 A  
HETATM   17 CL   UNL     1      -9.502   3.832  65.888  1.00  0.00    -0.171 Cl 
HETATM   18  C   UNL     1     -10.652   7.394  67.295  1.00  0.00    -0.393 A  
ENDBRANCH  10  11
ENDBRANCH   9  10
TORSDOF 2
ENDMDL
MODEL      167
REMARK 921   NORMALIZED FREE ENERGY PREDICTED BY IDOCK:   -3.63 KCAL/MOL
REMARK 922        TOTAL FREE ENERGY PREDICTED BY IDOCK:   -4.35 KCAL/MOL
REMARK 923 INTER-LIGAND FREE ENERGY PREDICTED BY IDOCK:   -4.17 KCAL/MOL
REMARK 924 INTRA-LIGAND FREE ENERGY PREDICTED BY IDOCK:   -0.18 KCAL/MOL
REMARK 927      BINDING AFFINITY PREDICTED BY RF-SCORE:    0.00 PKD
ROOT
HETATM    1  O   UNL     1      -9.100  13.258  69.156  1.00  0.00    -0.235 OA 
HETATM    2  C   UNL     1      -8.976  12.524  68.007  1.00  0.00    -0.192 A  
HETATM    3  H   UNL     1      -9.815  13.877  69.243  1.00  0.00     0.000 HD 
HETATM    4  C   UNL     1      -7.925  11.616  67.879  1.00  0.00    -0.132 A  
HETATM    5  C   UNL     1      -7.804  10.873  66.703  1.00  0.00    -0.145 A  
HETATM    6  C   UNL     1      -8.697  11.062  65.650  1.00  0.00    -0.162 A  
HETATM    7 CL   UNL     1      -6.544   9.713  66.553  1.00  0.00    -0.070 Cl 
HETATM    8  C   UNL     1      -9.734  11.987  65.774  1.00  0.00    -0.254 A  
HETATM    9  C   UNL     1      -9.910  12.688  66.974  1.00  0.00    -0.225 A  
ENDROOT
BRANCH   9  10
HETATM   10  O   UNL     1     -10.928  13.598  67.157  1.00  0.00    -0.282 OA 
BRANCH  10  11
HETATM   11  C   UNL     1     -10.657  14.953  67.160  1.00  0.00    -0.285 A  
HETATM   12  C   UNL     1     -11.279  15.739  68.139  1.00  0.00    -0.344 A  
HETATM   13  C   UNL     1     -11.105  17.129  68.158  1.00  0.00    -0.118 A  
HETATM   14 CL   UNL     1     -12.282  15.034  69.358  1.00  0.00    -0.275 Cl 
HETATM   15  C   UNL     1     -10.298  17.732  67.197  1.00  0.00    -0.353 A  
HETATM   16  C   UNL     1      -9.670  16.964  66.219  1.00  0.00    -0.301 A  
HETATM   17 CL   UNL     1     -10.098  19.441  67.201  1.00  0.00    -0.453 Cl 
HETATM   18  C   UNL     1      -9.865  15.579  66.187  1.00  0.00    -0.342 A  
ENDBRANCH  10  11
ENDBRANCH   9  10
TORSDOF 2
ENDMDL
MODEL      168
REMARK 921   NORMALIZED FREE ENERGY PREDICTED BY IDOCK:   -3.62 KCAL/MOL
REMARK 922        TOTAL FREE ENERGY PREDICTED BY IDOCK:   -4.35 KCAL/MOL
REMARK 923 INTER-LIGAND FREE ENERGY PREDICTED BY IDOCK:   -4.04 KCAL/MOL
REMARK 924 INTRA-LIGAND FREE ENERGY PREDICTED BY IDOCK:   -0.31 KCAL/MOL
REMARK 927      BINDING AFFINITY PREDICTED BY RF-SCORE:    0.00 PKD
ROOT
HETATM    1  O   UNL     1      -8.018   8.012  67.501  1.00  0.00    -0.118 OA 
HETATM    2  C   UNL     1      -8.863   7.227  68.239  1.00  0.00    -0.127 A  
HETATM    3  H   UNL     1      -8.377   8.668  66.915  1.00  0.00     0.000 HD 
HETATM    4  C   UNL     1      -8.334   6.265  69.100  1.00  0.00    -0.120 A  
HETATM    5  C   UNL     1      -9.203   5.467  69.846  1.00  0.00    -0.137 A  
HETATM    6  C   UNL     1     -10.583   5.599  69.708  1.00  0.00    -0.400 A  
HETATM    7 CL   UNL     1      -8.563   4.312  70.949  1.00  0.00    -0.103 Cl 
HETATM    8  C   UNL     1     -11.107   6.548  68.830  1.00  0.00    -0.371 A  
HETATM    9  C   UNL     1     -10.249   7.404  68.127  1.00  0.00    -0.187 A  
ENDROOT
BRANCH   9  10
HETATM   10  O   UNL     1     -10.713   8.371  67.263  1.00  0.00    -0.285 OA 
BRANCH  10  11
HETATM   11  C   UNL     1     -10.883   9.671  67.702  1.00  0.00    -0.212 A  
HETATM   12  C   UNL     1     -10.606  10.704  66.796  1.00  0.00    -0.237 A  
HETATM   13  C   UNL     1     -10.691  12.044  67.192  1.00  0.00    -0.277 A  
HETATM   14 CL   UNL     1     -10.152  10.372  65.161  1.00  0.00    -0.384 Cl 
HETATM   15  C   UNL     1     -11.060  12.351  68.499  1.00  0.00    -0.258 A  
HETATM   16  C   UNL     1     -11.341  11.336  69.411  1.00  0.00    -0.360 A  
HETATM   17 CL   UNL     1     -11.144  13.995  69.000  1.00  0.00    -0.282 Cl 
HETATM   18  C   UNL     1     -11.233   9.997  69.019  1.00  0.00    -0.180 A  
ENDBRANCH  10  11
ENDBRANCH   9  10
TORSDOF 2
ENDMDL
MODEL      169
REMARK 921   NORMALIZED FREE ENERGY PREDICTED BY IDOCK:   -3.60 KCAL/MOL
REMARK 922        TOTAL FREE ENERGY PREDICTED BY IDOCK:   -4.32 KCAL/MOL
REMARK 923 INTER-LIGAND FREE ENERGY PREDICTED BY IDOCK:   -4.06 KCAL/MOL
REMARK 924 INTRA-LIGAND FREE ENERGY PREDICTED BY IDOCK:   -0.26 KCAL/MOL
REMARK 927      BINDING AFFINITY PREDICTED BY RF-SCORE:    0.00 PKD
ROOT
HETATM    1  O   UNL     1     -11.197   9.903  69.611  1.00  0.00    -0.258 OA 
HETATM    2  C   UNL     1     -11.016  10.402  68.349  1.00  0.00    -0.264 A  
HETATM    3  H   UNL     1     -10.709   9.136  69.888  1.00  0.00     0.000 HD 
HETATM    4  C   UNL     1     -11.732  11.528  67.944  1.00  0.00    -0.317 A  
HETATM    5  C   UNL     1     -11.544  12.030  66.654  1.00  0.00    -0.319 A  
HETATM    6  C   UNL     1     -10.681  11.392  65.765  1.00  0.00    -0.309 A  
HETATM    7 CL   UNL     1     -12.382  13.447  66.160  1.00  0.00    -0.458 Cl 
HETATM    8  C   UNL     1      -9.983  10.253  66.167  1.00  0.00    -0.300 A  
HETATM    9  C   UNL     1     -10.108   9.780  67.480  1.00  0.00    -0.197 A  
ENDROOT
BRANCH   9  10
HETATM   10  O   UNL     1      -9.428   8.673  67.936  1.00  0.00    -0.138 OA 
BRANCH  10  11
HETATM   11  C   UNL     1      -9.448   7.497  67.209  1.00  0.00    -0.151 A  
HETATM   12  C   UNL     1     -10.286   6.468  67.660  1.00  0.00    -0.194 A  
HETATM   13  C   UNL     1     -10.306   5.226  67.013  1.00  0.00    -0.286 A  
HETATM   14 CL   UNL     1     -11.328   6.685  69.023  1.00  0.00    -0.275 Cl 
HETATM   15  C   UNL     1      -9.487   5.017  65.907  1.00  0.00    -0.162 A  
HETATM   16  C   UNL     1      -8.649   6.029  65.446  1.00  0.00    -0.127 A  
HETATM   17 CL   UNL     1      -9.488   3.486  65.122  1.00  0.00    -0.155 Cl 
HETATM   18  C   UNL     1      -8.614   7.261  66.108  1.00  0.00    -0.156 A  
ENDBRANCH  10  11
ENDBRANCH   9  10
TORSDOF 2
ENDMDL
MODEL      170
REMARK 921   NORMALIZED FREE ENERGY PREDICTED BY IDOCK:   -3.59 KCAL/MOL
REMARK 922        TOTAL FREE ENERGY PREDICTED BY IDOCK:   -4.31 KCAL/MOL
REMARK 923 INTER-LIGAND FREE ENERGY PREDICTED BY IDOCK:   -3.78 KCAL/MOL
REMARK 924 INTRA-LIGAND FREE ENERGY PREDICTED BY IDOCK:   -0.53 KCAL/MOL
REMARK 927      BINDING AFFINITY PREDICTED BY RF-SCORE:    0.00 PKD
ROOT
HETATM    1  O   UNL     1     -12.156  11.727  66.644  1.00  0.00    -0.527 OA 
HETATM    2  C   UNL     1     -10.965  12.333  66.938  1.00  0.00    -0.267 A  
HETATM    3  H   UNL     1     -12.400  10.926  67.093  1.00  0.00     0.000 HD 
HETATM    4  C   UNL     1     -10.608  13.509  66.279  1.00  0.00    -0.288 A  
HETATM    5  C   UNL     1      -9.390  14.120  66.583  1.00  0.00    -0.282 A  
HETATM    6  C   UNL     1      -8.518  13.543  67.504  1.00  0.00    -0.192 A  
HETATM    7 CL   UNL     1      -8.962  15.598  65.815  1.00  0.00    -0.201 Cl 
HETATM    8  C   UNL     1      -8.869  12.355  68.146  1.00  0.00    -0.191 A  
HETATM    9  C   UNL     1     -10.119  11.769  67.904  1.00  0.00    -0.186 A  
ENDROOT
BRANCH   9  10
HETATM   10  O   UNL     1     -10.524  10.608  68.524  1.00  0.00    -0.172 OA 
BRANCH  10  11
HETATM   11  C   UNL     1      -9.920   9.404  68.209  1.00  0.00    -0.174 A  
HETATM   12  C   UNL     1      -9.101   8.815  69.181  1.00  0.00    -0.141 A  
HETATM   13  C   UNL     1      -8.404   7.632  68.907  1.00  0.00    -0.129 A  
HETATM   14 CL   UNL     1      -8.917   9.515  70.751  1.00  0.00    -0.241 Cl 
HETATM   15  C   UNL     1      -8.533   7.034  67.656  1.00  0.00    -0.123 A  
HETATM   16  C   UNL     1      -9.345   7.607  66.680  1.00  0.00    -0.239 A  
HETATM   17 CL   UNL     1      -7.661   5.593  67.304  1.00  0.00    -0.099 Cl 
HETATM   18  C   UNL     1     -10.022   8.801  66.949  1.00  0.00    -0.327 A  
ENDBRANCH  10  11
ENDBRANCH   9  10
TORSDOF 2
ENDMDL
MODEL      171
REMARK 921   NORMALIZED FREE ENERGY PREDICTED BY IDOCK:   -3.59 KCAL/MOL
REMARK 922        TOTAL FREE ENERGY PREDICTED BY IDOCK:   -4.31 KCAL/MOL
REMARK 923 INTER-LIGAND FREE ENERGY PREDICTED BY IDOCK:   -3.81 KCAL/MOL
REMARK 924 INTRA-LIGAND FREE ENERGY PREDICTED BY IDOCK:   -0.49 KCAL/MOL
REMARK 927      BINDING AFFINITY PREDICTED BY RF-SCORE:    0.00 PKD
ROOT
HETATM    1  O   UNL     1      -8.137   9.052  64.944  1.00  0.00    -0.121 OA 
HETATM    2  C   UNL     1      -8.992   9.103  66.012  1.00  0.00    -0.181 A  
HETATM    3  H   UNL     1      -7.835   9.860  64.545  1.00  0.00     0.000 HD 
HETATM    4  C   UNL     1      -9.436   7.917  66.596  1.00  0.00    -0.270 A  
HETATM    5  C   UNL     1     -10.310   7.977  67.683  1.00  0.00    -0.246 A  
HETATM    6  C   UNL     1     -10.768   9.205  68.157  1.00  0.00    -0.186 A  
HETATM    7 CL   UNL     1     -10.824   6.524  68.445  1.00  0.00    -0.331 Cl 
HETATM    8  C   UNL     1     -10.339  10.388  67.556  1.00  0.00    -0.268 A  
HETATM    9  C   UNL     1      -9.407  10.346  66.510  1.00  0.00    -0.163 A  
ENDROOT
BRANCH   9  10
HETATM   10  O   UNL     1      -8.935  11.483  65.894  1.00  0.00    -0.204 OA 
BRANCH  10  11
HETATM   11  C   UNL     1      -9.818  12.428  65.406  1.00  0.00    -0.183 A  
HETATM   12  C   UNL     1      -9.961  13.620  66.130  1.00  0.00    -0.306 A  
HETATM   13  C   UNL     1     -10.888  14.591  65.732  1.00  0.00    -0.317 A  
HETATM   14 CL   UNL     1      -9.006  13.942  67.534  1.00  0.00    -0.186 Cl 
HETATM   15  C   UNL     1     -11.670  14.370  64.602  1.00  0.00    -0.430 A  
HETATM   16  C   UNL     1     -11.539  13.192  63.870  1.00  0.00    -0.488 A  
HETATM   17 CL   UNL     1     -12.827  15.549  64.121  1.00  0.00     0.452 Cl 
HETATM   18  C   UNL     1     -10.629  12.213  64.284  1.00  0.00    -0.385 A  
ENDBRANCH  10  11
ENDBRANCH   9  10
TORSDOF 2
ENDMDL
MODEL      172
REMARK 921   NORMALIZED FREE ENERGY PREDICTED BY IDOCK:   -3.58 KCAL/MOL
REMARK 922        TOTAL FREE ENERGY PREDICTED BY IDOCK:   -4.30 KCAL/MOL
REMARK 923 INTER-LIGAND FREE ENERGY PREDICTED BY IDOCK:   -3.84 KCAL/MOL
REMARK 924 INTRA-LIGAND FREE ENERGY PREDICTED BY IDOCK:   -0.46 KCAL/MOL
REMARK 927      BINDING AFFINITY PREDICTED BY RF-SCORE:    0.00 PKD
ROOT
HETATM    1  O   UNL     1     -11.820  10.218  67.995  1.00  0.00    -0.708 OA 
HETATM    2  C   UNL     1     -10.530  10.303  68.446  1.00  0.00    -0.200 A  
HETATM    3  H   UNL     1     -12.317   9.421  68.140  1.00  0.00     0.000 HD 
HETATM    4  C   UNL     1      -9.801  11.473  68.233  1.00  0.00    -0.203 A  
HETATM    5  C   UNL     1      -8.485  11.551  68.693  1.00  0.00    -0.115 A  
HETATM    6  C   UNL     1      -7.889  10.461  69.323  1.00  0.00    -0.147 A  
HETATM    7 CL   UNL     1      -7.594  13.006  68.482  1.00  0.00    -0.129 Cl 
HETATM    8  C   UNL     1      -8.615   9.285  69.515  1.00  0.00    -0.147 A  
HETATM    9  C   UNL     1      -9.958   9.216  69.122  1.00  0.00    -0.187 A  
ENDROOT
BRANCH   9  10
HETATM   10  O   UNL     1     -10.726   8.088  69.305  1.00  0.00    -0.209 OA 
BRANCH  10  11
HETATM   11  C   UNL     1     -10.474   6.948  68.565  1.00  0.00    -0.203 A  
HETATM   12  C   UNL     1      -9.706   5.940  69.163  1.00  0.00    -0.140 A  
HETATM   13  C   UNL     1      -9.355   4.788  68.448  1.00  0.00    -0.177 A  
HETATM   14 CL   UNL     1      -9.163   6.071  70.799  1.00  0.00    -0.161 Cl 
HETATM   15  C   UNL     1      -9.780   4.644  67.131  1.00  0.00    -0.192 A  
HETATM   16  C   UNL     1     -10.546   5.635  66.522  1.00  0.00    -0.320 A  
HETATM   17 CL   UNL     1      -9.333   3.242  66.238  1.00  0.00    -0.161 Cl 
HETATM   18  C   UNL     1     -10.875   6.795  67.231  1.00  0.00    -0.443 A  
ENDBRANCH  10  11
ENDBRANCH   9  10
TORSDOF 2
ENDMDL
MODEL      173
REMARK 921   NORMALIZED FREE ENERGY PREDICTED BY IDOCK:   -3.54 KCAL/MOL
REMARK 922        TOTAL FREE ENERGY PREDICTED BY IDOCK:   -4.25 KCAL/MOL
REMARK 923 INTER-LIGAND FREE ENERGY PREDICTED BY IDOCK:   -4.02 KCAL/MOL
REMARK 924 INTRA-LIGAND FREE ENERGY PREDICTED BY IDOCK:   -0.23 KCAL/MOL
REMARK 927      BINDING AFFINITY PREDICTED BY RF-SCORE:    0.00 PKD
ROOT
HETATM    1  O   UNL     1     -11.900  10.231  68.003  1.00  0.00    -0.708 OA 
HETATM    2  C   UNL     1     -10.647  10.091  68.538  1.00  0.00    -0.215 A  
HETATM    3  H   UNL     1     -12.589   9.629  68.257  1.00  0.00     0.000 HD 
HETATM    4  C   UNL     1      -9.635  10.975  68.165  1.00  0.00    -0.175 A  
HETATM    5  C   UNL     1      -8.360  10.824  68.712  1.00  0.00    -0.147 A  
HETATM    6  C   UNL     1      -8.086   9.778  69.592  1.00  0.00    -0.158 A  
HETATM    7 CL   UNL     1      -7.118  11.938  68.300  1.00  0.00    -0.075 Cl 
HETATM    8  C   UNL     1      -9.095   8.883  69.946  1.00  0.00    -0.166 A  
HETATM    9  C   UNL     1     -10.397   9.064  69.459  1.00  0.00    -0.209 A  
ENDROOT
BRANCH   9  10
HETATM   10  O   UNL     1     -11.435   8.223  69.792  1.00  0.00     0.038 OA 
BRANCH  10  11
HETATM   11  C   UNL     1     -11.220   7.159  70.648  1.00  0.00    -0.280 A  
HETATM   12  C   UNL     1     -11.537   7.339  72.002  1.00  0.00    -0.274 A  
HETATM   13  C   UNL     1     -11.281   6.329  72.937  1.00  0.00    -0.233 A  
HETATM   14 CL   UNL     1     -12.252   8.806  72.573  1.00  0.00    -0.403 Cl 
HETATM   15  C   UNL     1     -10.713   5.131  72.513  1.00  0.00    -0.229 A  
HETATM   16  C   UNL     1     -10.395   4.934  71.171  1.00  0.00    -0.222 A  
HETATM   17 CL   UNL     1     -10.375   3.893  73.660  1.00  0.00    -0.213 Cl 
HETATM   18  C   UNL     1     -10.629   5.955  70.243  1.00  0.00    -0.354 A  
ENDBRANCH  10  11
ENDBRANCH   9  10
TORSDOF 2
ENDMDL
MODEL      174
REMARK 921   NORMALIZED FREE ENERGY PREDICTED BY IDOCK:   -3.53 KCAL/MOL
REMARK 922        TOTAL FREE ENERGY PREDICTED BY IDOCK:   -4.24 KCAL/MOL
REMARK 923 INTER-LIGAND FREE ENERGY PREDICTED BY IDOCK:   -3.74 KCAL/MOL
REMARK 924 INTRA-LIGAND FREE ENERGY PREDICTED BY IDOCK:   -0.50 KCAL/MOL
REMARK 927      BINDING AFFINITY PREDICTED BY RF-SCORE:    0.00 PKD
ROOT
HETATM    1  O   UNL     1     -10.635  10.912  65.170  1.00  0.00    -0.269 OA 
HETATM    2  C   UNL     1      -9.542  10.088  65.119  1.00  0.00    -0.291 A  
HETATM    3  H   UNL     1     -11.377  10.675  65.715  1.00  0.00     0.000 HD 
HETATM    4  C   UNL     1      -8.454  10.436  64.319  1.00  0.00    -0.159 A  
HETATM    5  C   UNL     1      -7.344   9.589  64.271  1.00  0.00    -0.118 A  
HETATM    6  C   UNL     1      -7.336   8.390  64.981  1.00  0.00    -0.086 A  
HETATM    7 CL   UNL     1      -5.976  10.032  63.330  1.00  0.00    -0.120 Cl 
HETATM    8  C   UNL     1      -8.436   8.036  65.763  1.00  0.00    -0.159 A  
HETATM    9  C   UNL     1      -9.527   8.909  65.877  1.00  0.00    -0.234 A  
ENDROOT
BRANCH   9  10
HETATM   10  O   UNL     1     -10.629   8.618  66.650  1.00  0.00    -0.240 OA 
BRANCH  10  11
HETATM   11  C   UNL     1     -10.531   8.621  68.029  1.00  0.00    -0.197 A  
HETATM   12  C   UNL     1     -10.495   7.381  68.681  1.00  0.00    -0.189 A  
HETATM   13  C   UNL     1     -10.466   7.309  70.079  1.00  0.00    -0.234 A  
HETATM   14 CL   UNL     1     -10.483   5.897  67.795  1.00  0.00    -0.263 Cl 
HETATM   15  C   UNL     1     -10.467   8.484  70.826  1.00  0.00    -0.200 A  
HETATM   16  C   UNL     1     -10.500   9.724  70.193  1.00  0.00    -0.338 A  
HETATM   17 CL   UNL     1     -10.455   8.402  72.545  1.00  0.00    -0.399 Cl 
HETATM   18  C   UNL     1     -10.553   9.793  68.797  1.00  0.00    -0.244 A  
ENDBRANCH  10  11
ENDBRANCH   9  10
TORSDOF 2
ENDMDL
MODEL      175
REMARK 921   NORMALIZED FREE ENERGY PREDICTED BY IDOCK:   -3.53 KCAL/MOL
REMARK 922        TOTAL FREE ENERGY PREDICTED BY IDOCK:   -4.24 KCAL/MOL
REMARK 923 INTER-LIGAND FREE ENERGY PREDICTED BY IDOCK:   -3.97 KCAL/MOL
REMARK 924 INTRA-LIGAND FREE ENERGY PREDICTED BY IDOCK:   -0.27 KCAL/MOL
REMARK 927      BINDING AFFINITY PREDICTED BY RF-SCORE:    0.00 PKD
ROOT
HETATM    1  O   UNL     1      -6.792  11.468  68.062  1.00  0.00    -0.060 OA 
HETATM    2  C   UNL     1      -7.445  12.606  67.673  1.00  0.00    -0.143 A  
HETATM    3  H   UNL     1      -7.258  10.640  68.078  1.00  0.00     0.000 HD 
HETATM    4  C   UNL     1      -6.760  13.821  67.650  1.00  0.00    -0.189 A  
HETATM    5  C   UNL     1      -7.434  14.978  67.255  1.00  0.00    -0.181 A  
HETATM    6  C   UNL     1      -8.787  14.932  66.925  1.00  0.00    -0.284 A  
HETATM    7 CL   UNL     1      -6.587  16.472  67.172  1.00  0.00    -0.214 Cl 
HETATM    8  C   UNL     1      -9.475  13.719  66.971  1.00  0.00    -0.255 A  
HETATM    9  C   UNL     1      -8.794  12.538  67.297  1.00  0.00    -0.195 A  
ENDROOT
BRANCH   9  10
HETATM   10  O   UNL     1      -9.419  11.311  67.338  1.00  0.00    -0.164 OA 
BRANCH  10  11
HETATM   11  C   UNL     1     -10.087  10.909  68.479  1.00  0.00    -0.183 A  
HETATM   12  C   UNL     1      -9.799   9.634  68.985  1.00  0.00    -0.182 A  
HETATM   13  C   UNL     1     -10.487   9.134  70.097  1.00  0.00    -0.249 A  
HETATM   14 CL   UNL     1      -8.590   8.629  68.265  1.00  0.00    -0.137 Cl 
HETATM   15  C   UNL     1     -11.463   9.917  70.708  1.00  0.00    -0.354 A  
HETATM   16  C   UNL     1     -11.759  11.187  70.219  1.00  0.00    -0.431 A  
HETATM   17 CL   UNL     1     -12.329   9.300  72.061  1.00  0.00    -0.441 Cl 
HETATM   18  C   UNL     1     -11.086  11.674  69.093  1.00  0.00    -0.302 A  
ENDBRANCH  10  11
ENDBRANCH   9  10
TORSDOF 2
ENDMDL
MODEL      176
REMARK 921   NORMALIZED FREE ENERGY PREDICTED BY IDOCK:   -3.51 KCAL/MOL
REMARK 922        TOTAL FREE ENERGY PREDICTED BY IDOCK:   -4.22 KCAL/MOL
REMARK 923 INTER-LIGAND FREE ENERGY PREDICTED BY IDOCK:   -3.95 KCAL/MOL
REMARK 924 INTRA-LIGAND FREE ENERGY PREDICTED BY IDOCK:   -0.27 KCAL/MOL
REMARK 927      BINDING AFFINITY PREDICTED BY RF-SCORE:    0.00 PKD
ROOT
HETATM    1  O   UNL     1     -11.242   6.145  70.427  1.00  0.00    -0.333 OA 
HETATM    2  C   UNL     1     -10.906   6.083  71.752  1.00  0.00    -0.260 A  
HETATM    3  H   UNL     1     -11.325   6.991  70.002  1.00  0.00     0.000 HD 
HETATM    4  C   UNL     1     -10.784   4.841  72.376  1.00  0.00    -0.216 A  
HETATM    5  C   UNL     1     -10.443   4.786  73.728  1.00  0.00    -0.248 A  
HETATM    6  C   UNL     1     -10.264   5.957  74.462  1.00  0.00    -0.293 A  
HETATM    7 CL   UNL     1     -10.240   3.261  74.495  1.00  0.00    -0.208 Cl 
HETATM    8  C   UNL     1     -10.407   7.198  73.840  1.00  0.00    -0.339 A  
HETATM    9  C   UNL     1     -10.680   7.267  72.467  1.00  0.00    -0.262 A  
ENDROOT
BRANCH   9  10
HETATM   10  O   UNL     1     -10.812   8.465  71.799  1.00  0.00    -0.245 OA 
BRANCH  10  11
HETATM   11  C   UNL     1      -9.728   9.019  71.144  1.00  0.00    -0.299 A  
HETATM   12  C   UNL     1      -9.988   9.895  70.082  1.00  0.00    -0.238 A  
HETATM   13  C   UNL     1      -8.940  10.439  69.330  1.00  0.00    -0.176 A  
HETATM   14 CL   UNL     1     -11.603  10.340  69.656  1.00  0.00    -0.284 Cl 
HETATM   15  C   UNL     1      -7.625  10.109  69.648  1.00  0.00    -0.156 A  
HETATM   16  C   UNL     1      -7.349   9.242  70.703  1.00  0.00    -0.129 A  
HETATM   17 CL   UNL     1      -6.333  10.756  68.714  1.00  0.00    -0.043 Cl 
HETATM   18  C   UNL     1      -8.400   8.681  71.437  1.00  0.00    -0.217 A  
ENDBRANCH  10  11
ENDBRANCH   9  10
TORSDOF 2
ENDMDL
MODEL      177
REMARK 921   NORMALIZED FREE ENERGY PREDICTED BY IDOCK:   -3.48 KCAL/MOL
REMARK 922        TOTAL FREE ENERGY PREDICTED BY IDOCK:   -4.18 KCAL/MOL
REMARK 923 INTER-LIGAND FREE ENERGY PREDICTED BY IDOCK:   -3.84 KCAL/MOL
REMARK 924 INTRA-LIGAND FREE ENERGY PREDICTED BY IDOCK:   -0.34 KCAL/MOL
REMARK 927      BINDING AFFINITY PREDICTED BY RF-SCORE:    0.00 PKD
ROOT
HETATM    1  O   UNL     1     -10.379   5.238  67.238  1.00  0.00    -0.206 OA 
HETATM    2  C   UNL     1      -9.538   4.884  68.258  1.00  0.00    -0.145 A  
HETATM    3  H   UNL     1     -10.707   6.129  67.186  1.00  0.00     0.000 HD 
HETATM    4  C   UNL     1      -9.058   3.576  68.333  1.00  0.00    -0.201 A  
HETATM    5  C   UNL     1      -8.203   3.222  69.378  1.00  0.00    -0.055 A  
HETATM    6  C   UNL     1      -7.862   4.149  70.360  1.00  0.00    -0.051 A  
HETATM    7 CL   UNL     1      -7.563   1.628  69.452  1.00  0.00    -0.042 Cl 
HETATM    8  C   UNL     1      -8.362   5.450  70.294  1.00  0.00    -0.112 A  
HETATM    9  C   UNL     1      -9.164   5.839  69.213  1.00  0.00    -0.117 A  
ENDROOT
BRANCH   9  10
HETATM   10  O   UNL     1      -9.668   7.115  69.087  1.00  0.00    -0.157 OA 
BRANCH  10  11
HETATM   11  C   UNL     1     -10.730   7.524  69.872  1.00  0.00    -0.246 A  
HETATM   12  C   UNL     1     -10.781   8.874  70.245  1.00  0.00    -0.221 A  
HETATM   13  C   UNL     1     -11.789   9.343  71.095  1.00  0.00    -0.413 A  
HETATM   14 CL   UNL     1      -9.611  10.012  69.675  1.00  0.00    -0.245 Cl 
HETATM   15  C   UNL     1     -12.754   8.458  71.569  1.00  0.00    -0.308 A  
HETATM   16  C   UNL     1     -12.718   7.113  71.206  1.00  0.00    -0.412 A  
HETATM   17 CL   UNL     1     -13.983   9.023  72.632  1.00  0.00    -0.466 Cl 
HETATM   18  C   UNL     1     -11.696   6.642  70.375  1.00  0.00    -0.446 A  
ENDBRANCH  10  11
ENDBRANCH   9  10
TORSDOF 2
ENDMDL
MODEL      178
REMARK 921   NORMALIZED FREE ENERGY PREDICTED BY IDOCK:   -3.47 KCAL/MOL
REMARK 922        TOTAL FREE ENERGY PREDICTED BY IDOCK:   -4.18 KCAL/MOL
REMARK 923 INTER-LIGAND FREE ENERGY PREDICTED BY IDOCK:   -4.05 KCAL/MOL
REMARK 924 INTRA-LIGAND FREE ENERGY PREDICTED BY IDOCK:   -0.12 KCAL/MOL
REMARK 927      BINDING AFFINITY PREDICTED BY RF-SCORE:    0.00 PKD
ROOT
HETATM    1  O   UNL     1      -8.647   5.890  66.154  1.00  0.00    -0.126 OA 
HETATM    2  C   UNL     1      -9.212   7.123  66.338  1.00  0.00    -0.157 A  
HETATM    3  H   UNL     1      -9.023   5.131  66.585  1.00  0.00     0.000 HD 
HETATM    4  C   UNL     1      -8.660   8.236  65.705  1.00  0.00    -0.189 A  
HETATM    5  C   UNL     1      -9.241   9.491  65.899  1.00  0.00    -0.206 A  
HETATM    6  C   UNL     1     -10.337   9.640  66.747  1.00  0.00    -0.292 A  
HETATM    7 CL   UNL     1      -8.601  10.862  65.083  1.00  0.00    -0.130 Cl 
HETATM    8  C   UNL     1     -10.873   8.528  67.396  1.00  0.00    -0.082 A  
HETATM    9  C   UNL     1     -10.344   7.252  67.155  1.00  0.00    -0.297 A  
ENDROOT
BRANCH   9  10
HETATM   10  O   UNL     1     -10.847   6.118  67.753  1.00  0.00    -0.280 OA 
BRANCH  10  11
HETATM   11  C   UNL     1     -10.788   5.972  69.126  1.00  0.00    -0.352 A  
HETATM   12  C   UNL     1      -9.946   4.975  69.638  1.00  0.00    -0.241 A  
HETATM   13  C   UNL     1      -9.889   4.725  71.015  1.00  0.00    -0.267 A  
HETATM   14 CL   UNL     1      -8.947   4.018  68.602  1.00  0.00    -0.148 Cl 
HETATM   15  C   UNL     1     -10.674   5.480  71.882  1.00  0.00    -0.231 A  
HETATM   16  C   UNL     1     -11.514   6.476  71.389  1.00  0.00    -0.360 A  
HETATM   17 CL   UNL     1     -10.626   5.163  73.572  1.00  0.00    -0.273 Cl 
HETATM   18  C   UNL     1     -11.587   6.708  70.011  1.00  0.00    -0.423 A  
ENDBRANCH  10  11
ENDBRANCH   9  10
TORSDOF 2
ENDMDL
MODEL      179
REMARK 921   NORMALIZED FREE ENERGY PREDICTED BY IDOCK:   -3.45 KCAL/MOL
REMARK 922        TOTAL FREE ENERGY PREDICTED BY IDOCK:   -4.16 KCAL/MOL
REMARK 923 INTER-LIGAND FREE ENERGY PREDICTED BY IDOCK:   -4.01 KCAL/MOL
REMARK 924 INTRA-LIGAND FREE ENERGY PREDICTED BY IDOCK:   -0.15 KCAL/MOL
REMARK 927      BINDING AFFINITY PREDICTED BY RF-SCORE:    0.00 PKD
ROOT
HETATM    1  O   UNL     1     -11.993  11.311  68.131  1.00  0.00    -0.610 OA 
HETATM    2  C   UNL     1     -11.382  11.632  66.949  1.00  0.00    -0.295 A  
HETATM    3  H   UNL     1     -11.541  10.761  68.760  1.00  0.00     0.000 HD 
HETATM    4  C   UNL     1     -12.046  12.440  66.026  1.00  0.00    -0.327 A  
HETATM    5  C   UNL     1     -11.416  12.760  64.822  1.00  0.00    -0.317 A  
HETATM    6  C   UNL     1     -10.155  12.249  64.524  1.00  0.00    -0.280 A  
HETATM    7 CL   UNL     1     -12.203  13.797  63.698  1.00  0.00    -0.423 Cl 
HETATM    8  C   UNL     1      -9.503  11.424  65.440  1.00  0.00    -0.240 A  
HETATM    9  C   UNL     1     -10.092  11.152  66.682  1.00  0.00    -0.217 A  
ENDROOT
BRANCH   9  10
HETATM   10  O   UNL     1      -9.484  10.360  67.631  1.00  0.00    -0.147 OA 
BRANCH  10  11
HETATM   11  C   UNL     1      -9.396   8.993  67.444  1.00  0.00    -0.139 A  
HETATM   12  C   UNL     1     -10.012   8.166  68.393  1.00  0.00    -0.190 A  
HETATM   13  C   UNL     1      -9.905   6.773  68.304  1.00  0.00    -0.144 A  
HETATM   14 CL   UNL     1     -10.927   8.823  69.704  1.00  0.00    -0.169 Cl 
HETATM   15  C   UNL     1      -9.183   6.206  67.258  1.00  0.00    -0.117 A  
HETATM   16  C   UNL     1      -8.566   7.015  66.305  1.00  0.00    -0.142 A  
HETATM   17 CL   UNL     1      -9.027   4.496  67.155  1.00  0.00    -0.115 Cl 
HETATM   18  C   UNL     1      -8.655   8.407  66.410  1.00  0.00    -0.139 A  
ENDBRANCH  10  11
ENDBRANCH   9  10
TORSDOF 2
ENDMDL
MODEL      180
REMARK 921   NORMALIZED FREE ENERGY PREDICTED BY IDOCK:   -3.43 KCAL/MOL
REMARK 922        TOTAL FREE ENERGY PREDICTED BY IDOCK:   -4.13 KCAL/MOL
REMARK 923 INTER-LIGAND FREE ENERGY PREDICTED BY IDOCK:   -3.72 KCAL/MOL
REMARK 924 INTRA-LIGAND FREE ENERGY PREDICTED BY IDOCK:   -0.41 KCAL/MOL
REMARK 927      BINDING AFFINITY PREDICTED BY RF-SCORE:    0.00 PKD
ROOT
HETATM    1  O   UNL     1     -10.786   7.218  74.028  1.00  0.00    -0.556 OA 
HETATM    2  C   UNL     1     -10.545   6.078  73.309  1.00  0.00    -0.256 A  
HETATM    3  H   UNL     1     -10.527   8.061  73.674  1.00  0.00     0.000 HD 
HETATM    4  C   UNL     1     -10.925   4.841  73.830  1.00  0.00    -0.371 A  
HETATM    5  C   UNL     1     -10.673   3.683  73.092  1.00  0.00    -0.175 A  
HETATM    6  C   UNL     1     -10.014   3.754  71.866  1.00  0.00    -0.230 A  
HETATM    7 CL   UNL     1     -11.183   2.158  73.699  1.00  0.00    -0.291 Cl 
HETATM    8  C   UNL     1      -9.616   4.991  71.359  1.00  0.00    -0.220 A  
HETATM    9  C   UNL     1      -9.925   6.167  72.055  1.00  0.00    -0.172 A  
ENDROOT
BRANCH   9  10
HETATM   10  O   UNL     1      -9.573   7.415  71.591  1.00  0.00    -0.152 OA 
BRANCH  10  11
HETATM   11  C   UNL     1      -9.519   7.661  70.232  1.00  0.00    -0.161 A  
HETATM   12  C   UNL     1      -8.254   7.813  69.649  1.00  0.00    -0.127 A  
HETATM   13  C   UNL     1      -8.125   8.133  68.291  1.00  0.00    -0.128 A  
HETATM   14 CL   UNL     1      -6.806   7.614  70.571  1.00  0.00    -0.046 Cl 
HETATM   15  C   UNL     1      -9.269   8.294  67.514  1.00  0.00    -0.137 A  
HETATM   16  C   UNL     1     -10.534   8.144  68.078  1.00  0.00    -0.242 A  
HETATM   17 CL   UNL     1      -9.120   8.709  65.851  1.00  0.00    -0.248 Cl 
HETATM   18  C   UNL     1     -10.660   7.848  69.440  1.00  0.00    -0.209 A  
ENDBRANCH  10  11
ENDBRANCH   9  10
TORSDOF 2
ENDMDL
MODEL      181
REMARK 921   NORMALIZED FREE ENERGY PREDICTED BY IDOCK:   -3.42 KCAL/MOL
REMARK 922        TOTAL FREE ENERGY PREDICTED BY IDOCK:   -4.12 KCAL/MOL
REMARK 923 INTER-LIGAND FREE ENERGY PREDICTED BY IDOCK:   -3.81 KCAL/MOL
REMARK 924 INTRA-LIGAND FREE ENERGY PREDICTED BY IDOCK:   -0.31 KCAL/MOL
REMARK 927      BINDING AFFINITY PREDICTED BY RF-SCORE:    0.00 PKD
ROOT
HETATM    1  O   UNL     1      -7.089  13.226  67.503  1.00  0.00    -0.153 OA 
HETATM    2  C   UNL     1      -8.173  14.059  67.424  1.00  0.00    -0.190 A  
HETATM    3  H   UNL     1      -6.213  13.592  67.500  1.00  0.00     0.000 HD 
HETATM    4  C   UNL     1      -9.459  13.520  67.428  1.00  0.00    -0.225 A  
HETATM    5  C   UNL     1     -10.558  14.376  67.344  1.00  0.00    -0.270 A  
HETATM    6  C   UNL     1     -10.377  15.752  67.218  1.00  0.00    -0.290 A  
HETATM    7 CL   UNL     1     -12.150  13.727  67.400  1.00  0.00    -0.414 Cl 
HETATM    8  C   UNL     1      -9.089  16.285  67.193  1.00  0.00    -0.217 A  
HETATM    9  C   UNL     1      -7.978  15.445  67.347  1.00  0.00    -0.188 A  
ENDROOT
BRANCH   9  10
HETATM   10  O   UNL     1      -6.685  15.920  67.349  1.00  0.00    -0.166 OA 
BRANCH  10  11
HETATM   11  C   UNL     1      -6.327  16.955  68.193  1.00  0.00    -0.140 A  
HETATM   12  C   UNL     1      -5.794  16.619  69.444  1.00  0.00    -0.171 A  
HETATM   13  C   UNL     1      -5.473  17.614  70.376  1.00  0.00    -0.260 A  
HETATM   14 CL   UNL     1      -5.509  14.973  69.891  1.00  0.00    -0.103 Cl 
HETATM   15  C   UNL     1      -5.681  18.951  70.049  1.00  0.00    -0.248 A  
HETATM   16  C   UNL     1      -6.207  19.302  68.808  1.00  0.00    -0.270 A  
HETATM   17 CL   UNL     1      -5.310  20.178  71.197  1.00  0.00    -0.297 Cl 
HETATM   18  C   UNL     1      -6.549  18.305  67.889  1.00  0.00    -0.203 A  
ENDBRANCH  10  11
ENDBRANCH   9  10
TORSDOF 2
ENDMDL
MODEL      182
REMARK 921   NORMALIZED FREE ENERGY PREDICTED BY IDOCK:   -3.41 KCAL/MOL
REMARK 922        TOTAL FREE ENERGY PREDICTED BY IDOCK:   -4.11 KCAL/MOL
REMARK 923 INTER-LIGAND FREE ENERGY PREDICTED BY IDOCK:   -3.58 KCAL/MOL
REMARK 924 INTRA-LIGAND FREE ENERGY PREDICTED BY IDOCK:   -0.53 KCAL/MOL
REMARK 927      BINDING AFFINITY PREDICTED BY RF-SCORE:    0.00 PKD
ROOT
HETATM    1  O   UNL     1      -8.289  10.008  63.723  1.00  0.00    -0.149 OA 
HETATM    2  C   UNL     1      -9.354  10.559  64.384  1.00  0.00    -0.262 A  
HETATM    3  H   UNL     1      -7.597   9.585  64.218  1.00  0.00     0.000 HD 
HETATM    4  C   UNL     1     -10.371  11.178  63.657  1.00  0.00    -0.449 A  
HETATM    5  C   UNL     1     -11.453  11.740  64.338  1.00  0.00    -0.273 A  
HETATM    6  C   UNL     1     -11.501  11.719  65.730  1.00  0.00    -0.258 A  
HETATM    7 CL   UNL     1     -12.737  12.460  63.451  1.00  0.00    -0.485 Cl 
HETATM    8  C   UNL     1     -10.472  11.118  66.454  1.00  0.00    -0.311 A  
HETATM    9  C   UNL     1      -9.415  10.488  65.782  1.00  0.00    -0.201 A  
ENDROOT
BRANCH   9  10
HETATM   10  O   UNL     1      -8.384   9.862  66.447  1.00  0.00    -0.123 OA 
BRANCH  10  11
HETATM   11  C   UNL     1      -8.626   8.721  67.188  1.00  0.00    -0.117 A  
HETATM   12  C   UNL     1      -8.362   8.771  68.564  1.00  0.00    -0.129 A  
HETATM   13  C   UNL     1      -8.519   7.633  69.364  1.00  0.00    -0.132 A  
HETATM   14 CL   UNL     1      -7.838  10.230  69.329  1.00  0.00    -0.128 Cl 
HETATM   15  C   UNL     1      -8.947   6.442  68.785  1.00  0.00    -0.126 A  
HETATM   16  C   UNL     1      -9.215   6.375  67.419  1.00  0.00    -0.117 A  
HETATM   17 CL   UNL     1      -9.119   5.033  69.758  1.00  0.00    -0.144 Cl 
HETATM   18  C   UNL     1      -9.035   7.508  66.618  1.00  0.00    -0.177 A  
ENDBRANCH  10  11
ENDBRANCH   9  10
TORSDOF 2
ENDMDL
MODEL      183
REMARK 921   NORMALIZED FREE ENERGY PREDICTED BY IDOCK:   -3.39 KCAL/MOL
REMARK 922        TOTAL FREE ENERGY PREDICTED BY IDOCK:   -4.09 KCAL/MOL
REMARK 923 INTER-LIGAND FREE ENERGY PREDICTED BY IDOCK:   -3.70 KCAL/MOL
REMARK 924 INTRA-LIGAND FREE ENERGY PREDICTED BY IDOCK:   -0.39 KCAL/MOL
REMARK 927      BINDING AFFINITY PREDICTED BY RF-SCORE:    0.00 PKD
ROOT
HETATM    1  O   UNL     1     -10.459  10.458  66.459  1.00  0.00    -0.236 OA 
HETATM    2  C   UNL     1      -9.304  10.414  67.193  1.00  0.00    -0.157 A  
HETATM    3  H   UNL     1     -11.291  10.276  66.880  1.00  0.00     0.000 HD 
HETATM    4  C   UNL     1      -8.083  10.681  66.573  1.00  0.00    -0.140 A  
HETATM    5  C   UNL     1      -6.910  10.631  67.328  1.00  0.00    -0.079 A  
HETATM    6  C   UNL     1      -6.948  10.279  68.676  1.00  0.00    -0.066 A  
HETATM    7 CL   UNL     1      -5.405  11.009  66.589  1.00  0.00    -0.077 Cl 
HETATM    8  C   UNL     1      -8.169   9.991  69.286  1.00  0.00    -0.147 A  
HETATM    9  C   UNL     1      -9.362  10.106  68.559  1.00  0.00    -0.151 A  
ENDROOT
BRANCH   9  10
HETATM   10  O   UNL     1     -10.595   9.853  69.117  1.00  0.00    -0.201 OA 
BRANCH  10  11
HETATM   11  C   UNL     1     -10.740   8.851  70.058  1.00  0.00    -0.228 A  
HETATM   12  C   UNL     1     -10.925   7.543  69.592  1.00  0.00    -0.153 A  
HETATM   13  C   UNL     1     -11.148   6.489  70.487  1.00  0.00    -0.375 A  
HETATM   14 CL   UNL     1     -10.886   7.173  67.903  1.00  0.00    -0.248 Cl 
HETATM   15  C   UNL     1     -11.178   6.747  71.854  1.00  0.00    -0.260 A  
HETATM   16  C   UNL     1     -10.994   8.041  72.335  1.00  0.00    -0.402 A  
HETATM   17 CL   UNL     1     -11.474   5.461  72.959  1.00  0.00    -0.354 Cl 
HETATM   18  C   UNL     1     -10.796   9.096  71.437  1.00  0.00    -0.419 A  
ENDBRANCH  10  11
ENDBRANCH   9  10
TORSDOF 2
ENDMDL
MODEL      184
REMARK 921   NORMALIZED FREE ENERGY PREDICTED BY IDOCK:   -3.39 KCAL/MOL
REMARK 922        TOTAL FREE ENERGY PREDICTED BY IDOCK:   -4.08 KCAL/MOL
REMARK 923 INTER-LIGAND FREE ENERGY PREDICTED BY IDOCK:   -3.93 KCAL/MOL
REMARK 924 INTRA-LIGAND FREE ENERGY PREDICTED BY IDOCK:   -0.15 KCAL/MOL
REMARK 927      BINDING AFFINITY PREDICTED BY RF-SCORE:    0.00 PKD
ROOT
HETATM    1  O   UNL     1      -7.213  13.271  68.960  1.00  0.00    -0.206 OA 
HETATM    2  C   UNL     1      -7.490  12.373  67.964  1.00  0.00    -0.114 A  
HETATM    3  H   UNL     1      -7.924  13.647  69.465  1.00  0.00     0.000 HD 
HETATM    4  C   UNL     1      -6.445  11.821  67.223  1.00  0.00    -0.131 A  
HETATM    5  C   UNL     1      -6.735  10.909  66.207  1.00  0.00    -0.124 A  
HETATM    6  C   UNL     1      -8.056  10.579  65.907  1.00  0.00    -0.154 A  
HETATM    7 CL   UNL     1      -5.453  10.183  65.321  1.00  0.00    -0.067 Cl 
HETATM    8  C   UNL     1      -9.099  11.149  66.637  1.00  0.00    -0.180 A  
HETATM    9  C   UNL     1      -8.819  12.013  67.705  1.00  0.00    -0.172 A  
ENDROOT
BRANCH   9  10
HETATM   10  O   UNL     1      -9.809  12.588  68.470  1.00  0.00    -0.214 OA 
BRANCH  10  11
HETATM   11  C   UNL     1     -10.616  11.800  69.270  1.00  0.00    -0.008 A  
HETATM   12  C   UNL     1     -11.678  12.424  69.937  1.00  0.00    -0.266 A  
HETATM   13  C   UNL     1     -12.493  11.702  70.818  1.00  0.00    -0.425 A  
HETATM   14 CL   UNL     1     -12.029  14.101  69.704  1.00  0.00    -0.366 Cl 
HETATM   15  C   UNL     1     -12.247  10.348  71.025  1.00  0.00    -0.393 A  
HETATM   16  C   UNL     1     -11.196   9.712  70.368  1.00  0.00    -0.342 A  
HETATM   17 CL   UNL     1     -13.230   9.459  72.123  1.00  0.00    -0.506 Cl 
HETATM   18  C   UNL     1     -10.369  10.441  69.507  1.00  0.00    -0.264 A  
ENDBRANCH  10  11
ENDBRANCH   9  10
TORSDOF 2
ENDMDL
MODEL      185
REMARK 921   NORMALIZED FREE ENERGY PREDICTED BY IDOCK:   -3.32 KCAL/MOL
REMARK 922        TOTAL FREE ENERGY PREDICTED BY IDOCK:   -4.00 KCAL/MOL
REMARK 923 INTER-LIGAND FREE ENERGY PREDICTED BY IDOCK:   -3.52 KCAL/MOL
REMARK 924 INTRA-LIGAND FREE ENERGY PREDICTED BY IDOCK:   -0.49 KCAL/MOL
REMARK 927      BINDING AFFINITY PREDICTED BY RF-SCORE:    0.00 PKD
ROOT
HETATM    1  O   UNL     1      -9.590   7.888  65.849  1.00  0.00    -0.421 OA 
HETATM    2  C   UNL     1      -9.887   8.834  66.793  1.00  0.00    -0.247 A  
HETATM    3  H   UNL     1      -9.120   7.102  66.102  1.00  0.00     0.000 HD 
HETATM    4  C   UNL     1     -10.577   9.988  66.420  1.00  0.00    -0.138 A  
HETATM    5  C   UNL     1     -10.873  10.949  67.387  1.00  0.00    -0.279 A  
HETATM    6  C   UNL     1     -10.453  10.781  68.705  1.00  0.00    -0.221 A  
HETATM    7 CL   UNL     1     -11.768  12.350  66.951  1.00  0.00    -0.443 Cl 
HETATM    8  C   UNL     1      -9.744   9.636  69.070  1.00  0.00    -0.169 A  
HETATM    9  C   UNL     1      -9.501   8.631  68.125  1.00  0.00    -0.141 A  
ENDROOT
BRANCH   9  10
HETATM   10  O   UNL     1      -8.824   7.472  68.435  1.00  0.00    -0.127 OA 
BRANCH  10  11
HETATM   11  C   UNL     1      -9.168   6.745  69.559  1.00  0.00    -0.147 A  
HETATM   12  C   UNL     1      -8.225   6.660  70.593  1.00  0.00    -0.124 A  
HETATM   13  C   UNL     1      -8.479   5.885  71.731  1.00  0.00    -0.131 A  
HETATM   14 CL   UNL     1      -6.718   7.504  70.510  1.00  0.00    -0.046 Cl 
HETATM   15  C   UNL     1      -9.685   5.198  71.837  1.00  0.00    -0.161 A  
HETATM   16  C   UNL     1     -10.634   5.273  70.820  1.00  0.00    -0.256 A  
HETATM   17 CL   UNL     1      -9.994   4.225  73.222  1.00  0.00    -0.169 Cl 
HETATM   18  C   UNL     1     -10.368   6.030  69.673  1.00  0.00    -0.294 A  
ENDBRANCH  10  11
ENDBRANCH   9  10
TORSDOF 2
ENDMDL
MODEL      186
REMARK 921   NORMALIZED FREE ENERGY PREDICTED BY IDOCK:   -3.32 KCAL/MOL
REMARK 922        TOTAL FREE ENERGY PREDICTED BY IDOCK:   -4.00 KCAL/MOL
REMARK 923 INTER-LIGAND FREE ENERGY PREDICTED BY IDOCK:   -4.32 KCAL/MOL
REMARK 924 INTRA-LIGAND FREE ENERGY PREDICTED BY IDOCK:    0.31 KCAL/MOL
REMARK 927      BINDING AFFINITY PREDICTED BY RF-SCORE:    0.00 PKD
ROOT
HETATM    1  O   UNL     1     -10.415  16.894  70.592  1.00  0.00     0.508 OA 
HETATM    2  C   UNL     1     -11.136  15.738  70.463  1.00  0.00    -0.365 A  
HETATM    3  H   UNL     1      -9.653  17.037  70.043  1.00  0.00     0.000 HD 
HETATM    4  C   UNL     1     -12.254  15.528  71.270  1.00  0.00    -0.447 A  
HETATM    5  C   UNL     1     -12.983  14.346  71.133  1.00  0.00    -0.349 A  
HETATM    6  C   UNL     1     -12.578  13.364  70.230  1.00  0.00    -0.187 A  
HETATM    7 CL   UNL     1     -14.393  14.099  72.085  1.00  0.00    -0.630 Cl 
HETATM    8  C   UNL     1     -11.447  13.568  69.440  1.00  0.00    -0.340 A  
HETATM    9  C   UNL     1     -10.747  14.780  69.516  1.00  0.00    -0.215 A  
ENDROOT
BRANCH   9  10
HETATM   10  O   UNL     1      -9.635  15.042  68.746  1.00  0.00    -0.206 OA 
BRANCH  10  11
HETATM   11  C   UNL     1      -9.564  16.204  68.001  1.00  0.00    -0.220 A  
HETATM   12  C   UNL     1      -8.427  17.009  68.160  1.00  0.00    -0.227 A  
HETATM   13  C   UNL     1      -8.318  18.233  67.490  1.00  0.00    -0.247 A  
HETATM   14 CL   UNL     1      -7.117  16.528  69.181  1.00  0.00    -0.220 Cl 
HETATM   15  C   UNL     1      -9.349  18.651  66.653  1.00  0.00    -0.315 A  
HETATM   16  C   UNL     1     -10.485  17.862  66.483  1.00  0.00    -0.315 A  
HETATM   17 CL   UNL     1      -9.233  20.165  65.845  1.00  0.00    -0.275 Cl 
HETATM   18  C   UNL     1     -10.601  16.650  67.172  1.00  0.00    -0.264 A  
ENDBRANCH  10  11
ENDBRANCH   9  10
TORSDOF 2
ENDMDL
MODEL      187
REMARK 921   NORMALIZED FREE ENERGY PREDICTED BY IDOCK:   -3.32 KCAL/MOL
REMARK 922        TOTAL FREE ENERGY PREDICTED BY IDOCK:   -4.00 KCAL/MOL
REMARK 923 INTER-LIGAND FREE ENERGY PREDICTED BY IDOCK:   -3.51 KCAL/MOL
REMARK 924 INTRA-LIGAND FREE ENERGY PREDICTED BY IDOCK:   -0.49 KCAL/MOL
REMARK 927      BINDING AFFINITY PREDICTED BY RF-SCORE:    0.00 PKD
ROOT
HETATM    1  O   UNL     1     -11.503  13.926  68.183  1.00  0.00    -0.277 OA 
HETATM    2  C   UNL     1     -10.439  13.213  67.700  1.00  0.00    -0.221 A  
HETATM    3  H   UNL     1     -11.358  14.781  68.572  1.00  0.00     0.000 HD 
HETATM    4  C   UNL     1     -10.651  11.958  67.130  1.00  0.00    -0.264 A  
HETATM    5  C   UNL     1      -9.561  11.237  66.641  1.00  0.00    -0.195 A  
HETATM    6  C   UNL     1      -8.267  11.743  66.756  1.00  0.00    -0.147 A  
HETATM    7 CL   UNL     1      -9.815   9.712  65.889  1.00  0.00    -0.346 Cl 
HETATM    8  C   UNL     1      -8.057  12.989  67.346  1.00  0.00    -0.180 A  
HETATM    9  C   UNL     1      -9.148  13.755  67.777  1.00  0.00    -0.193 A  
ENDROOT
BRANCH   9  10
HETATM   10  O   UNL     1      -8.999  14.999  68.348  1.00  0.00    -0.168 OA 
BRANCH  10  11
HETATM   11  C   UNL     1      -8.215  15.958  67.733  1.00  0.00    -0.146 A  
HETATM   12  C   UNL     1      -7.027  16.335  68.373  1.00  0.00    -0.135 A  
HETATM   13  C   UNL     1      -6.220  17.349  67.843  1.00  0.00    -0.156 A  
HETATM   14 CL   UNL     1      -6.508  15.572  69.835  1.00  0.00    -0.165 Cl 
HETATM   15  C   UNL     1      -6.601  17.982  66.663  1.00  0.00    -0.198 A  
HETATM   16  C   UNL     1      -7.778  17.616  66.013  1.00  0.00    -0.228 A  
HETATM   17 CL   UNL     1      -5.625  19.243  66.017  1.00  0.00    -0.171 Cl 
HETATM   18  C   UNL     1      -8.595  16.620  66.558  1.00  0.00    -0.320 A  
ENDBRANCH  10  11
ENDBRANCH   9  10
TORSDOF 2
ENDMDL
MODEL      188
REMARK 921   NORMALIZED FREE ENERGY PREDICTED BY IDOCK:   -3.31 KCAL/MOL
REMARK 922        TOTAL FREE ENERGY PREDICTED BY IDOCK:   -3.99 KCAL/MOL
REMARK 923 INTER-LIGAND FREE ENERGY PREDICTED BY IDOCK:   -3.76 KCAL/MOL
REMARK 924 INTRA-LIGAND FREE ENERGY PREDICTED BY IDOCK:   -0.23 KCAL/MOL
REMARK 927      BINDING AFFINITY PREDICTED BY RF-SCORE:    0.00 PKD
ROOT
HETATM    1  O   UNL     1      -8.638   8.539  70.378  1.00  0.00    -0.130 OA 
HETATM    2  C   UNL     1      -8.997   8.244  69.091  1.00  0.00    -0.147 A  
HETATM    3  H   UNL     1      -9.252   8.379  71.086  1.00  0.00     0.000 HD 
HETATM    4  C   UNL     1      -8.095   8.479  68.053  1.00  0.00    -0.115 A  
HETATM    5  C   UNL     1      -8.469   8.179  66.742  1.00  0.00    -0.123 A  
HETATM    6  C   UNL     1      -9.742   7.687  66.463  1.00  0.00    -0.251 A  
HETATM    7 CL   UNL     1      -7.347   8.415  65.460  1.00  0.00    -0.082 Cl 
HETATM    8  C   UNL     1     -10.649   7.474  67.502  1.00  0.00    -0.331 A  
HETATM    9  C   UNL     1     -10.264   7.704  68.829  1.00  0.00    -0.199 A  
ENDROOT
BRANCH   9  10
HETATM   10  O   UNL     1     -11.112   7.492  69.893  1.00  0.00    -0.246 OA 
BRANCH  10  11
HETATM   11  C   UNL     1     -10.918   6.411  70.732  1.00  0.00    -0.290 A  
HETATM   12  C   UNL     1     -11.205   6.583  72.093  1.00  0.00    -0.271 A  
HETATM   13  C   UNL     1     -10.967   5.553  73.011  1.00  0.00    -0.336 A  
HETATM   14 CL   UNL     1     -11.862   8.065  72.695  1.00  0.00    -0.421 Cl 
HETATM   15  C   UNL     1     -10.445   4.343  72.562  1.00  0.00    -0.168 A  
HETATM   16  C   UNL     1     -10.156   4.154  71.213  1.00  0.00    -0.155 A  
HETATM   17 CL   UNL     1     -10.129   3.080  73.688  1.00  0.00    -0.166 Cl 
HETATM   18  C   UNL     1     -10.373   5.193  70.302  1.00  0.00    -0.331 A  
ENDBRANCH  10  11
ENDBRANCH   9  10
TORSDOF 2
ENDMDL
MODEL      189
REMARK 921   NORMALIZED FREE ENERGY PREDICTED BY IDOCK:   -3.30 KCAL/MOL
REMARK 922        TOTAL FREE ENERGY PREDICTED BY IDOCK:   -3.99 KCAL/MOL
REMARK 923 INTER-LIGAND FREE ENERGY PREDICTED BY IDOCK:   -3.55 KCAL/MOL
REMARK 924 INTRA-LIGAND FREE ENERGY PREDICTED BY IDOCK:   -0.44 KCAL/MOL
REMARK 927      BINDING AFFINITY PREDICTED BY RF-SCORE:    0.00 PKD
ROOT
HETATM    1  O   UNL     1      -9.826  11.191  67.522  1.00  0.00    -0.174 OA 
HETATM    2  C   UNL     1      -9.625   9.892  67.138  1.00  0.00    -0.162 A  
HETATM    3  H   UNL     1     -10.273  11.375  68.340  1.00  0.00     0.000 HD 
HETATM    4  C   UNL     1      -8.969   9.622  65.937  1.00  0.00    -0.203 A  
HETATM    5  C   UNL     1      -8.771   8.296  65.550  1.00  0.00    -0.140 A  
HETATM    6  C   UNL     1      -9.257   7.250  66.332  1.00  0.00    -0.201 A  
HETATM    7 CL   UNL     1      -7.918   7.949  64.099  1.00  0.00    -0.140 Cl 
HETATM    8  C   UNL     1      -9.932   7.524  67.522  1.00  0.00    -0.228 A  
HETATM    9  C   UNL     1     -10.076   8.848  67.958  1.00  0.00    -0.195 A  
ENDROOT
BRANCH   9  10
HETATM   10  O   UNL     1     -10.716   9.175  69.133  1.00  0.00    -0.225 OA 
BRANCH  10  11
HETATM   11  C   UNL     1     -10.136   8.866  70.349  1.00  0.00    -0.196 A  
HETATM   12  C   UNL     1     -10.985   8.473  71.393  1.00  0.00    -0.264 A  
HETATM   13  C   UNL     1     -10.475   8.212  72.670  1.00  0.00    -0.401 A  
HETATM   14 CL   UNL     1     -12.688   8.294  71.151  1.00  0.00    -0.182 Cl 
HETATM   15  C   UNL     1      -9.108   8.338  72.901  1.00  0.00    -0.262 A  
HETATM   16  C   UNL     1      -8.250   8.725  71.874  1.00  0.00    -0.113 A  
HETATM   17 CL   UNL     1      -8.476   8.041  74.474  1.00  0.00    -0.211 Cl 
HETATM   18  C   UNL     1      -8.766   9.008  70.604  1.00  0.00    -0.251 A  
ENDBRANCH  10  11
ENDBRANCH   9  10
TORSDOF 2
ENDMDL
MODEL      190
REMARK 921   NORMALIZED FREE ENERGY PREDICTED BY IDOCK:   -3.28 KCAL/MOL
REMARK 922        TOTAL FREE ENERGY PREDICTED BY IDOCK:   -3.97 KCAL/MOL
REMARK 923 INTER-LIGAND FREE ENERGY PREDICTED BY IDOCK:   -3.49 KCAL/MOL
REMARK 924 INTRA-LIGAND FREE ENERGY PREDICTED BY IDOCK:   -0.47 KCAL/MOL
REMARK 927      BINDING AFFINITY PREDICTED BY RF-SCORE:    0.00 PKD
ROOT
HETATM    1  O   UNL     1      -8.434   8.551  71.959  1.00  0.00    -0.167 OA 
HETATM    2  C   UNL     1      -9.710   8.120  71.712  1.00  0.00    -0.191 A  
HETATM    3  H   UNL     1      -7.698   7.994  71.733  1.00  0.00     0.000 HD 
HETATM    4  C   UNL     1     -10.790   8.938  72.044  1.00  0.00    -0.404 A  
HETATM    5  C   UNL     1     -12.088   8.490  71.791  1.00  0.00    -0.333 A  
HETATM    6  C   UNL     1     -12.308   7.225  71.250  1.00  0.00    -0.401 A  
HETATM    7 CL   UNL     1     -13.426   9.509  72.147  1.00  0.00    -0.515 Cl 
HETATM    8  C   UNL     1     -11.226   6.401  70.940  1.00  0.00    -0.384 A  
HETATM    9  C   UNL     1      -9.916   6.865  71.122  1.00  0.00    -0.177 A  
ENDROOT
BRANCH   9  10
HETATM   10  O   UNL     1      -8.812   6.102  70.814  1.00  0.00    -0.137 OA 
BRANCH  10  11
HETATM   11  C   UNL     1      -8.368   6.016  69.508  1.00  0.00    -0.115 A  
HETATM   12  C   UNL     1      -8.357   4.750  68.907  1.00  0.00    -0.082 A  
HETATM   13  C   UNL     1      -7.856   4.579  67.611  1.00  0.00    -0.085 A  
HETATM   14 CL   UNL     1      -8.957   3.355  69.732  1.00  0.00    -0.159 Cl 
HETATM   15  C   UNL     1      -7.371   5.680  66.912  1.00  0.00    -0.079 A  
HETATM   16  C   UNL     1      -7.377   6.946  67.494  1.00  0.00    -0.096 A  
HETATM   17 CL   UNL     1      -6.733   5.473  65.327  1.00  0.00    -0.044 Cl 
HETATM   18  C   UNL     1      -7.856   7.111  68.798  1.00  0.00    -0.122 A  
ENDBRANCH  10  11
ENDBRANCH   9  10
TORSDOF 2
ENDMDL
MODEL      191
REMARK 921   NORMALIZED FREE ENERGY PREDICTED BY IDOCK:   -3.24 KCAL/MOL
REMARK 922        TOTAL FREE ENERGY PREDICTED BY IDOCK:   -3.92 KCAL/MOL
REMARK 923 INTER-LIGAND FREE ENERGY PREDICTED BY IDOCK:   -3.39 KCAL/MOL
REMARK 924 INTRA-LIGAND FREE ENERGY PREDICTED BY IDOCK:   -0.52 KCAL/MOL
REMARK 927      BINDING AFFINITY PREDICTED BY RF-SCORE:    0.00 PKD
ROOT
HETATM    1  O   UNL     1      -8.770   8.009  74.504  1.00  0.00    -0.436 OA 
HETATM    2  C   UNL     1      -8.446   7.070  73.562  1.00  0.00    -0.130 A  
HETATM    3  H   UNL     1      -8.782   8.929  74.265  1.00  0.00     0.000 HD 
HETATM    4  C   UNL     1      -8.429   5.720  73.913  1.00  0.00    -0.118 A  
HETATM    5  C   UNL     1      -8.095   4.768  72.948  1.00  0.00    -0.101 A  
HETATM    6  C   UNL     1      -7.744   5.160  71.658  1.00  0.00    -0.107 A  
HETATM    7 CL   UNL     1      -8.120   3.098  73.354  1.00  0.00    -0.072 Cl 
HETATM    8  C   UNL     1      -7.741   6.513  71.317  1.00  0.00    -0.095 A  
HETATM    9  C   UNL     1      -8.142   7.474  72.255  1.00  0.00    -0.103 A  
ENDROOT
BRANCH   9  10
HETATM   10  O   UNL     1      -8.178   8.820  71.966  1.00  0.00    -0.323 OA 
BRANCH  10  11
HETATM   11  C   UNL     1      -9.108   9.315  71.071  1.00  0.00    -0.183 A  
HETATM   12  C   UNL     1      -8.629   9.989  69.940  1.00  0.00    -0.146 A  
HETATM   13  C   UNL     1      -9.514  10.576  69.028  1.00  0.00    -0.211 A  
HETATM   14 CL   UNL     1      -6.935  10.124  69.622  1.00  0.00    -0.087 Cl 
HETATM   15  C   UNL     1     -10.886  10.481  69.247  1.00  0.00    -0.243 A  
HETATM   16  C   UNL     1     -11.379   9.812  70.365  1.00  0.00    -0.362 A  
HETATM   17 CL   UNL     1     -11.979  11.219  68.142  1.00  0.00    -0.269 Cl 
HETATM   18  C   UNL     1     -10.491   9.248  71.287  1.00  0.00    -0.408 A  
ENDBRANCH  10  11
ENDBRANCH   9  10
TORSDOF 2
ENDMDL
MODEL      192
REMARK 921   NORMALIZED FREE ENERGY PREDICTED BY IDOCK:   -3.23 KCAL/MOL
REMARK 922        TOTAL FREE ENERGY PREDICTED BY IDOCK:   -3.91 KCAL/MOL
REMARK 923 INTER-LIGAND FREE ENERGY PREDICTED BY IDOCK:   -3.61 KCAL/MOL
REMARK 924 INTRA-LIGAND FREE ENERGY PREDICTED BY IDOCK:   -0.30 KCAL/MOL
REMARK 927      BINDING AFFINITY PREDICTED BY RF-SCORE:    0.00 PKD
ROOT
HETATM    1  O   UNL     1      -9.331   9.279  66.493  1.00  0.00    -0.155 OA 
HETATM    2  C   UNL     1      -9.316   7.910  66.532  1.00  0.00    -0.200 A  
HETATM    3  H   UNL     1      -9.848   9.761  67.128  1.00  0.00     0.000 HD 
HETATM    4  C   UNL     1      -8.557   7.202  65.600  1.00  0.00    -0.119 A  
HETATM    5  C   UNL     1      -8.549   5.807  65.645  1.00  0.00    -0.151 A  
HETATM    6  C   UNL     1      -9.321   5.124  66.582  1.00  0.00    -0.137 A  
HETATM    7 CL   UNL     1      -7.577   4.924  64.535  1.00  0.00    -0.075 Cl 
HETATM    8  C   UNL     1     -10.096   5.835  67.498  1.00  0.00    -0.204 A  
HETATM    9  C   UNL     1     -10.058   7.236  67.511  1.00  0.00    -0.193 A  
ENDROOT
BRANCH   9  10
HETATM   10  O   UNL     1     -10.788   7.987  68.406  1.00  0.00    -0.074 OA 
BRANCH  10  11
HETATM   11  C   UNL     1     -10.731   7.706  69.758  1.00  0.00    -0.240 A  
HETATM   12  C   UNL     1      -9.819   8.433  70.536  1.00  0.00    -0.184 A  
HETATM   13  C   UNL     1      -9.659   8.154  71.899  1.00  0.00    -0.264 A  
HETATM   14 CL   UNL     1      -8.859   9.698  69.853  1.00  0.00    -0.219 Cl 
HETATM   15  C   UNL     1     -10.420   7.147  72.486  1.00  0.00    -0.223 A  
HETATM   16  C   UNL     1     -11.333   6.417  71.728  1.00  0.00    -0.337 A  
HETATM   17 CL   UNL     1     -10.212   6.783  74.155  1.00  0.00    -0.390 Cl 
HETATM   18  C   UNL     1     -11.473   6.682  70.361  1.00  0.00    -0.444 A  
ENDBRANCH  10  11
ENDBRANCH   9  10
TORSDOF 2
ENDMDL
MODEL      193
REMARK 921   NORMALIZED FREE ENERGY PREDICTED BY IDOCK:   -3.19 KCAL/MOL
REMARK 922        TOTAL FREE ENERGY PREDICTED BY IDOCK:   -3.86 KCAL/MOL
REMARK 923 INTER-LIGAND FREE ENERGY PREDICTED BY IDOCK:   -3.34 KCAL/MOL
REMARK 924 INTRA-LIGAND FREE ENERGY PREDICTED BY IDOCK:   -0.52 KCAL/MOL
REMARK 927      BINDING AFFINITY PREDICTED BY RF-SCORE:    0.00 PKD
ROOT
HETATM    1  O   UNL     1      -7.954  10.362  70.366  1.00  0.00    -0.411 OA 
HETATM    2  C   UNL     1      -8.780   9.272  70.307  1.00  0.00    -0.219 A  
HETATM    3  H   UNL     1      -7.293  10.488  69.696  1.00  0.00     0.000 HD 
HETATM    4  C   UNL     1      -9.751   9.088  71.292  1.00  0.00    -0.371 A  
HETATM    5  C   UNL     1     -10.588   7.973  71.226  1.00  0.00    -0.209 A  
HETATM    6  C   UNL     1     -10.432   7.029  70.212  1.00  0.00    -0.227 A  
HETATM    7 CL   UNL     1     -11.822   7.763  72.404  1.00  0.00    -0.371 Cl 
HETATM    8  C   UNL     1      -9.446   7.205  69.242  1.00  0.00    -0.152 A  
HETATM    9  C   UNL     1      -8.646   8.356  69.255  1.00  0.00    -0.130 A  
ENDROOT
BRANCH   9  10
HETATM   10  O   UNL     1      -7.671   8.590  68.310  1.00  0.00    -0.099 OA 
BRANCH  10  11
HETATM   11  C   UNL     1      -8.018   8.785  66.986  1.00  0.00    -0.095 A  
HETATM   12  C   UNL     1      -7.682   7.779  66.071  1.00  0.00    -0.093 A  
HETATM   13  C   UNL     1      -7.941   7.940  64.704  1.00  0.00    -0.143 A  
HETATM   14 CL   UNL     1      -6.939   6.305  66.583  1.00  0.00    -0.066 Cl 
HETATM   15  C   UNL     1      -8.545   9.111  64.254  1.00  0.00    -0.175 A  
HETATM   16  C   UNL     1      -8.888  10.120  65.152  1.00  0.00    -0.207 A  
HETATM   17 CL   UNL     1      -8.846   9.326  62.574  1.00  0.00    -0.238 Cl 
HETATM   18  C   UNL     1      -8.606   9.966  66.514  1.00  0.00    -0.131 A  
ENDBRANCH  10  11
ENDBRANCH   9  10
TORSDOF 2
ENDMDL
MODEL      194
REMARK 921   NORMALIZED FREE ENERGY PREDICTED BY IDOCK:   -3.18 KCAL/MOL
REMARK 922        TOTAL FREE ENERGY PREDICTED BY IDOCK:   -3.86 KCAL/MOL
REMARK 923 INTER-LIGAND FREE ENERGY PREDICTED BY IDOCK:   -3.48 KCAL/MOL
REMARK 924 INTRA-LIGAND FREE ENERGY PREDICTED BY IDOCK:   -0.37 KCAL/MOL
REMARK 927      BINDING AFFINITY PREDICTED BY RF-SCORE:    0.00 PKD
ROOT
HETATM    1  O   UNL     1     -10.848  11.290  69.907  1.00  0.00    -0.463 OA 
HETATM    2  C   UNL     1     -10.766  11.598  68.576  1.00  0.00    -0.218 A  
HETATM    3  H   UNL     1     -10.156  10.782  70.315  1.00  0.00     0.000 HD 
HETATM    4  C   UNL     1     -11.781  12.345  67.977  1.00  0.00    -0.414 A  
HETATM    5  C   UNL     1     -11.692  12.653  66.619  1.00  0.00    -0.398 A  
HETATM    6  C   UNL     1     -10.623  12.188  65.855  1.00  0.00    -0.293 A  
HETATM    7 CL   UNL     1     -12.910  13.617  65.882  1.00  0.00    -0.416 Cl 
HETATM    8  C   UNL     1      -9.621  11.423  66.453  1.00  0.00    -0.228 A  
HETATM    9  C   UNL     1      -9.661  11.166  67.830  1.00  0.00    -0.172 A  
ENDROOT
BRANCH   9  10
HETATM   10  O   UNL     1      -8.689  10.434  68.474  1.00  0.00    -0.123 OA 
BRANCH  10  11
HETATM   11  C   UNL     1      -8.006   9.438  67.799  1.00  0.00    -0.096 A  
HETATM   12  C   UNL     1      -8.583   8.161  67.768  1.00  0.00    -0.131 A  
HETATM   13  C   UNL     1      -7.915   7.090  67.162  1.00  0.00    -0.113 A  
HETATM   14 CL   UNL     1     -10.133   7.854  68.469  1.00  0.00    -0.205 Cl 
HETATM   15  C   UNL     1      -6.669   7.300  66.580  1.00  0.00    -0.060 A  
HETATM   16  C   UNL     1      -6.083   8.564  66.600  1.00  0.00    -0.057 A  
HETATM   17 CL   UNL     1      -5.832   5.983  65.854  1.00  0.00    -0.023 Cl 
HETATM   18  C   UNL     1      -6.741   9.627  67.227  1.00  0.00    -0.071 A  
ENDBRANCH  10  11
ENDBRANCH   9  10
TORSDOF 2
ENDMDL
MODEL      195
REMARK 921   NORMALIZED FREE ENERGY PREDICTED BY IDOCK:   -3.17 KCAL/MOL
REMARK 922        TOTAL FREE ENERGY PREDICTED BY IDOCK:   -3.84 KCAL/MOL
REMARK 923 INTER-LIGAND FREE ENERGY PREDICTED BY IDOCK:   -3.32 KCAL/MOL
REMARK 924 INTRA-LIGAND FREE ENERGY PREDICTED BY IDOCK:   -0.51 KCAL/MOL
REMARK 927      BINDING AFFINITY PREDICTED BY RF-SCORE:    0.00 PKD
ROOT
HETATM    1  O   UNL     1     -10.313  10.292  70.159  1.00  0.00    -0.375 OA 
HETATM    2  C   UNL     1     -10.245  10.369  68.794  1.00  0.00    -0.187 A  
HETATM    3  H   UNL     1     -10.351   9.441  70.581  1.00  0.00     0.000 HD 
HETATM    4  C   UNL     1     -10.190  11.618  68.176  1.00  0.00    -0.206 A  
HETATM    5  C   UNL     1     -10.123  11.689  66.784  1.00  0.00    -0.213 A  
HETATM    6  C   UNL     1     -10.150  10.528  66.013  1.00  0.00    -0.317 A  
HETATM    7 CL   UNL     1     -10.002  13.221  66.013  1.00  0.00    -0.296 Cl 
HETATM    8  C   UNL     1     -10.228   9.281  66.634  1.00  0.00    -0.323 A  
HETATM    9  C   UNL     1     -10.224   9.192  68.033  1.00  0.00    -0.211 A  
ENDROOT
BRANCH   9  10
HETATM   10  O   UNL     1     -10.279   7.987  68.697  1.00  0.00    -0.198 OA 
BRANCH  10  11
HETATM   11  C   UNL     1      -9.205   7.118  68.651  1.00  0.00    -0.135 A  
HETATM   12  C   UNL     1      -9.332   5.968  67.861  1.00  0.00    -0.110 A  
HETATM   13  C   UNL     1      -8.312   5.010  67.821  1.00  0.00    -0.105 A  
HETATM   14 CL   UNL     1     -10.745   5.683  66.905  1.00  0.00    -0.361 Cl 
HETATM   15  C   UNL     1      -7.156   5.209  68.572  1.00  0.00    -0.062 A  
HETATM   16  C   UNL     1      -7.012   6.348  69.361  1.00  0.00    -0.071 A  
HETATM   17 CL   UNL     1      -5.907   4.026  68.546  1.00  0.00    -0.025 Cl 
HETATM   18  C   UNL     1      -8.044   7.292  69.416  1.00  0.00    -0.130 A  
ENDBRANCH  10  11
ENDBRANCH   9  10
TORSDOF 2
ENDMDL
MODEL      196
REMARK 921   NORMALIZED FREE ENERGY PREDICTED BY IDOCK:   -3.14 KCAL/MOL
REMARK 922        TOTAL FREE ENERGY PREDICTED BY IDOCK:   -3.81 KCAL/MOL
REMARK 923 INTER-LIGAND FREE ENERGY PREDICTED BY IDOCK:   -3.45 KCAL/MOL
REMARK 924 INTRA-LIGAND FREE ENERGY PREDICTED BY IDOCK:   -0.37 KCAL/MOL
REMARK 927      BINDING AFFINITY PREDICTED BY RF-SCORE:    0.00 PKD
ROOT
HETATM    1  O   UNL     1     -10.389   5.475  67.241  1.00  0.00    -0.199 OA 
HETATM    2  C   UNL     1      -9.984   5.929  68.467  1.00  0.00    -0.148 A  
HETATM    3  H   UNL     1     -10.149   5.958  66.458  1.00  0.00     0.000 HD 
HETATM    4  C   UNL     1     -10.336   5.220  69.616  1.00  0.00    -0.348 A  
HETATM    5  C   UNL     1      -9.922   5.692  70.863  1.00  0.00    -0.194 A  
HETATM    6  C   UNL     1      -9.199   6.878  70.967  1.00  0.00    -0.156 A  
HETATM    7 CL   UNL     1     -10.306   4.799  72.281  1.00  0.00    -0.260 Cl 
HETATM    8  C   UNL     1      -8.867   7.595  69.818  1.00  0.00    -0.140 A  
HETATM    9  C   UNL     1      -9.215   7.098  68.555  1.00  0.00    -0.134 A  
ENDROOT
BRANCH   9  10
HETATM   10  O   UNL     1      -8.895   7.755  67.387  1.00  0.00    -0.126 OA 
BRANCH  10  11
HETATM   11  C   UNL     1      -9.371   9.032  67.156  1.00  0.00    -0.147 A  
HETATM   12  C   UNL     1      -8.501   9.950  66.552  1.00  0.00    -0.125 A  
HETATM   13  C   UNL     1      -8.892  11.280  66.350  1.00  0.00    -0.184 A  
HETATM   14 CL   UNL     1      -6.919   9.486  66.032  1.00  0.00    -0.089 Cl 
HETATM   15  C   UNL     1     -10.161  11.689  66.749  1.00  0.00    -0.217 A  
HETATM   16  C   UNL     1     -11.039  10.788  67.348  1.00  0.00    -0.363 A  
HETATM   17 CL   UNL     1     -10.640  13.326  66.525  1.00  0.00    -0.283 Cl 
HETATM   18  C   UNL     1     -10.637   9.467  67.570  1.00  0.00    -0.333 A  
ENDBRANCH  10  11
ENDBRANCH   9  10
TORSDOF 2
ENDMDL
MODEL      197
REMARK 921   NORMALIZED FREE ENERGY PREDICTED BY IDOCK:   -3.14 KCAL/MOL
REMARK 922        TOTAL FREE ENERGY PREDICTED BY IDOCK:   -3.81 KCAL/MOL
REMARK 923 INTER-LIGAND FREE ENERGY PREDICTED BY IDOCK:   -3.45 KCAL/MOL
REMARK 924 INTRA-LIGAND FREE ENERGY PREDICTED BY IDOCK:   -0.36 KCAL/MOL
REMARK 927      BINDING AFFINITY PREDICTED BY RF-SCORE:    0.00 PKD
ROOT
HETATM    1  O   UNL     1     -10.670  10.790  65.246  1.00  0.00    -0.202 OA 
HETATM    2  C   UNL     1      -9.614   9.923  65.332  1.00  0.00    -0.285 A  
HETATM    3  H   UNL     1     -11.399  10.705  65.850  1.00  0.00     0.000 HD 
HETATM    4  C   UNL     1      -8.545  10.049  64.445  1.00  0.00    -0.199 A  
HETATM    5  C   UNL     1      -7.473   9.159  64.538  1.00  0.00    -0.101 A  
HETATM    6  C   UNL     1      -7.485   8.130  65.477  1.00  0.00    -0.081 A  
HETATM    7 CL   UNL     1      -6.126   9.336  63.485  1.00  0.00    -0.088 Cl 
HETATM    8  C   UNL     1      -8.567   7.994  66.348  1.00  0.00    -0.155 A  
HETATM    9  C   UNL     1      -9.616   8.922  66.314  1.00  0.00    -0.260 A  
ENDROOT
BRANCH   9  10
HETATM   10  O   UNL     1     -10.698   8.847  67.163  1.00  0.00    -0.265 OA 
BRANCH  10  11
HETATM   11  C   UNL     1     -10.512   8.561  68.502  1.00  0.00    -0.167 A  
HETATM   12  C   UNL     1     -10.160   9.619  69.351  1.00  0.00    -0.203 A  
HETATM   13  C   UNL     1      -9.889   9.391  70.705  1.00  0.00    -0.348 A  
HETATM   14 CL   UNL     1     -10.047  11.243  68.768  1.00  0.00    -0.209 Cl 
HETATM   15  C   UNL     1      -9.976   8.097  71.213  1.00  0.00    -0.181 A  
HETATM   16  C   UNL     1     -10.327   7.034  70.384  1.00  0.00    -0.219 A  
HETATM   17 CL   UNL     1      -9.622   7.805  72.871  1.00  0.00    -0.272 Cl 
HETATM   18  C   UNL     1     -10.574   7.262  69.026  1.00  0.00    -0.214 A  
ENDBRANCH  10  11
ENDBRANCH   9  10
TORSDOF 2
ENDMDL
MODEL      198
REMARK 921   NORMALIZED FREE ENERGY PREDICTED BY IDOCK:   -3.10 KCAL/MOL
REMARK 922        TOTAL FREE ENERGY PREDICTED BY IDOCK:   -3.76 KCAL/MOL
REMARK 923 INTER-LIGAND FREE ENERGY PREDICTED BY IDOCK:   -3.40 KCAL/MOL
REMARK 924 INTRA-LIGAND FREE ENERGY PREDICTED BY IDOCK:   -0.36 KCAL/MOL
REMARK 927      BINDING AFFINITY PREDICTED BY RF-SCORE:    0.00 PKD
ROOT
HETATM    1  O   UNL     1      -9.223   4.077  71.667  1.00  0.00    -0.114 OA 
HETATM    2  C   UNL     1     -10.016   5.077  71.172  1.00  0.00    -0.207 A  
HETATM    3  H   UNL     1      -8.852   3.434  71.074  1.00  0.00     0.000 HD 
HETATM    4  C   UNL     1     -10.561   6.020  72.044  1.00  0.00    -0.267 A  
HETATM    5  C   UNL     1     -11.371   7.035  71.531  1.00  0.00    -0.258 A  
HETATM    6  C   UNL     1     -11.666   7.087  70.171  1.00  0.00    -0.238 A  
HETATM    7 CL   UNL     1     -12.006   8.233  72.588  1.00  0.00    -0.430 Cl 
HETATM    8  C   UNL     1     -11.137   6.130  69.305  1.00  0.00    -0.463 A  
HETATM    9  C   UNL     1     -10.266   5.147  69.795  1.00  0.00    -0.287 A  
ENDROOT
BRANCH   9  10
HETATM   10  O   UNL     1      -9.699   4.190  68.982  1.00  0.00    -0.173 OA 
BRANCH  10  11
HETATM   11  C   UNL     1      -9.216   4.535  67.734  1.00  0.00    -0.131 A  
HETATM   12  C   UNL     1      -7.951   5.137  67.670  1.00  0.00    -0.099 A  
HETATM   13  C   UNL     1      -7.429   5.575  66.448  1.00  0.00    -0.087 A  
HETATM   14 CL   UNL     1      -6.988   5.363  69.088  1.00  0.00    -0.054 Cl 
HETATM   15  C   UNL     1      -8.172   5.403  65.284  1.00  0.00    -0.133 A  
HETATM   16  C   UNL     1      -9.429   4.805  65.329  1.00  0.00    -0.141 A  
HETATM   17 CL   UNL     1      -7.546   5.960  63.780  1.00  0.00    -0.075 Cl 
HETATM   18  C   UNL     1      -9.959   4.389  66.556  1.00  0.00    -0.245 A  
ENDBRANCH  10  11
ENDBRANCH   9  10
TORSDOF 2
ENDMDL
MODEL      199
REMARK 921   NORMALIZED FREE ENERGY PREDICTED BY IDOCK:   -3.09 KCAL/MOL
REMARK 922        TOTAL FREE ENERGY PREDICTED BY IDOCK:   -3.75 KCAL/MOL
REMARK 923 INTER-LIGAND FREE ENERGY PREDICTED BY IDOCK:   -3.46 KCAL/MOL
REMARK 924 INTRA-LIGAND FREE ENERGY PREDICTED BY IDOCK:   -0.30 KCAL/MOL
REMARK 927      BINDING AFFINITY PREDICTED BY RF-SCORE:    0.00 PKD
ROOT
HETATM    1  O   UNL     1      -8.711  10.391  69.733  1.00  0.00    -0.367 OA 
HETATM    2  C   UNL     1      -7.833  10.482  68.686  1.00  0.00    -0.116 A  
HETATM    3  H   UNL     1      -9.151  11.172  70.046  1.00  0.00     0.000 HD 
HETATM    4  C   UNL     1      -7.186   9.334  68.227  1.00  0.00    -0.077 A  
HETATM    5  C   UNL     1      -6.290   9.436  67.161  1.00  0.00    -0.066 A  
HETATM    6  C   UNL     1      -6.012  10.673  66.585  1.00  0.00    -0.079 A  
HETATM    7 CL   UNL     1      -5.527   8.021  66.552  1.00  0.00    -0.028 Cl 
HETATM    8  C   UNL     1      -6.644  11.822  67.062  1.00  0.00    -0.140 A  
HETATM    9  C   UNL     1      -7.598  11.725  68.083  1.00  0.00    -0.117 A  
ENDROOT
BRANCH   9  10
HETATM   10  O   UNL     1      -8.266  12.823  68.578  1.00  0.00    -0.142 OA 
BRANCH  10  11
HETATM   11  C   UNL     1      -8.973  13.650  67.724  1.00  0.00    -0.196 A  
HETATM   12  C   UNL     1     -10.294  13.294  67.420  1.00  0.00    -0.243 A  
HETATM   13  C   UNL     1     -11.046  14.046  66.509  1.00  0.00    -0.315 A  
HETATM   14 CL   UNL     1     -11.049  11.921  68.150  1.00  0.00    -0.269 Cl 
HETATM   15  C   UNL     1     -10.474  15.163  65.906  1.00  0.00    -0.336 A  
HETATM   16  C   UNL     1      -9.163  15.532  66.200  1.00  0.00    -0.379 A  
HETATM   17 CL   UNL     1     -11.384  16.079  64.769  1.00  0.00    -0.346 Cl 
HETATM   18  C   UNL     1      -8.406  14.765  67.092  1.00  0.00    -0.240 A  
ENDBRANCH  10  11
ENDBRANCH   9  10
TORSDOF 2
ENDMDL
MODEL      200
REMARK 921   NORMALIZED FREE ENERGY PREDICTED BY IDOCK:   -3.03 KCAL/MOL
REMARK 922        TOTAL FREE ENERGY PREDICTED BY IDOCK:   -3.69 KCAL/MOL
REMARK 923 INTER-LIGAND FREE ENERGY PREDICTED BY IDOCK:   -3.28 KCAL/MOL
REMARK 924 INTRA-LIGAND FREE ENERGY PREDICTED BY IDOCK:   -0.41 KCAL/MOL
REMARK 927      BINDING AFFINITY PREDICTED BY RF-SCORE:    0.00 PKD
ROOT
HETATM    1  O   UNL     1      -9.911   4.970  68.855  1.00  0.00    -0.167 OA 
HETATM    2  C   UNL     1      -8.920   5.842  69.217  1.00  0.00    -0.117 A  
HETATM    3  H   UNL     1     -10.717   5.304  68.478  1.00  0.00     0.000 HD 
HETATM    4  C   UNL     1      -7.738   5.351  69.771  1.00  0.00    -0.077 A  
HETATM    5  C   UNL     1      -6.733   6.247  70.141  1.00  0.00    -0.050 A  
HETATM    6  C   UNL     1      -6.920   7.620  69.996  1.00  0.00    -0.051 A  
HETATM    7 CL   UNL     1      -5.251   5.651  70.776  1.00  0.00    -0.008 Cl 
HETATM    8  C   UNL     1      -8.113   8.109  69.462  1.00  0.00    -0.119 A  
HETATM    9  C   UNL     1      -9.101   7.218  69.021  1.00  0.00    -0.133 A  
ENDROOT
BRANCH   9  10
HETATM   10  O   UNL     1     -10.288   7.645  68.468  1.00  0.00    -0.196 OA 
BRANCH  10  11
HETATM   11  C   UNL     1     -10.332   8.817  67.736  1.00  0.00    -0.237 A  
HETATM   12  C   UNL     1     -10.901   9.944  68.346  1.00  0.00    -0.221 A  
HETATM   13  C   UNL     1     -11.042  11.145  67.640  1.00  0.00    -0.348 A  
HETATM   14 CL   UNL     1     -11.451   9.901  69.984  1.00  0.00    -0.284 Cl 
HETATM   15  C   UNL     1     -10.604  11.219  66.320  1.00  0.00    -0.263 A  
HETATM   16  C   UNL     1     -10.033  10.110  65.701  1.00  0.00    -0.348 A  
HETATM   17 CL   UNL     1     -10.794  12.685  65.439  1.00  0.00    -0.308 Cl 
HETATM   18  C   UNL     1      -9.916   8.904  66.401  1.00  0.00    -0.354 A  
ENDBRANCH  10  11
ENDBRANCH   9  10
TORSDOF 2
ENDMDL
MODEL      201
REMARK 921   NORMALIZED FREE ENERGY PREDICTED BY IDOCK:   -3.02 KCAL/MOL
REMARK 922        TOTAL FREE ENERGY PREDICTED BY IDOCK:   -3.67 KCAL/MOL
REMARK 923 INTER-LIGAND FREE ENERGY PREDICTED BY IDOCK:   -3.65 KCAL/MOL
REMARK 924 INTRA-LIGAND FREE ENERGY PREDICTED BY IDOCK:   -0.01 KCAL/MOL
REMARK 927      BINDING AFFINITY PREDICTED BY RF-SCORE:    0.00 PKD
ROOT
HETATM    1  O   UNL     1      -8.853  12.785  68.472  1.00  0.00    -0.319 OA 
HETATM    2  C   UNL     1      -9.477  13.559  67.532  1.00  0.00    -0.222 A  
HETATM    3  H   UNL     1      -7.926  12.908  68.643  1.00  0.00     0.000 HD 
HETATM    4  C   UNL     1     -10.838  13.378  67.282  1.00  0.00    -0.278 A  
HETATM    5  C   UNL     1     -11.467  14.170  66.320  1.00  0.00    -0.352 A  
HETATM    6  C   UNL     1     -10.740  15.105  65.586  1.00  0.00    -0.374 A  
HETATM    7 CL   UNL     1     -13.154  13.992  66.040  1.00  0.00    -0.156 Cl 
HETATM    8  C   UNL     1      -9.375  15.268  65.823  1.00  0.00    -0.233 A  
HETATM    9  C   UNL     1      -8.745  14.530  66.835  1.00  0.00    -0.211 A  
ENDROOT
BRANCH   9  10
HETATM   10  O   UNL     1      -7.405  14.666  67.125  1.00  0.00    -0.152 OA 
BRANCH  10  11
HETATM   11  C   UNL     1      -6.986  15.595  68.058  1.00  0.00    -0.129 A  
HETATM   12  C   UNL     1      -6.766  16.907  67.616  1.00  0.00    -0.142 A  
HETATM   13  C   UNL     1      -6.275  17.884  68.490  1.00  0.00    -0.189 A  
HETATM   14 CL   UNL     1      -7.088  17.374  65.983  1.00  0.00    -0.308 Cl 
HETATM   15  C   UNL     1      -6.011  17.547  69.815  1.00  0.00    -0.245 A  
HETATM   16  C   UNL     1      -6.227  16.249  70.271  1.00  0.00     0.074 A  
HETATM   17 CL   UNL     1      -5.386  18.736  70.890  1.00  0.00    -0.254 Cl 
HETATM   18  C   UNL     1      -6.695  15.269  69.389  1.00  0.00    -0.164 A  
ENDBRANCH  10  11
ENDBRANCH   9  10
TORSDOF 2
ENDMDL
MODEL      202
REMARK 921   NORMALIZED FREE ENERGY PREDICTED BY IDOCK:   -2.98 KCAL/MOL
REMARK 922        TOTAL FREE ENERGY PREDICTED BY IDOCK:   -3.62 KCAL/MOL
REMARK 923 INTER-LIGAND FREE ENERGY PREDICTED BY IDOCK:   -3.13 KCAL/MOL
REMARK 924 INTRA-LIGAND FREE ENERGY PREDICTED BY IDOCK:   -0.50 KCAL/MOL
REMARK 927      BINDING AFFINITY PREDICTED BY RF-SCORE:    0.00 PKD
ROOT
HETATM    1  O   UNL     1      -9.558   9.055  67.705  1.00  0.00    -0.145 OA 
HETATM    2  C   UNL     1     -10.016   9.099  68.994  1.00  0.00    -0.184 A  
HETATM    3  H   UNL     1      -8.875   8.437  67.470  1.00  0.00     0.000 HD 
HETATM    4  C   UNL     1     -11.019  10.006  69.339  1.00  0.00    -0.280 A  
HETATM    5  C   UNL     1     -11.479  10.047  70.656  1.00  0.00    -0.345 A  
HETATM    6  C   UNL     1     -10.918   9.221  71.629  1.00  0.00    -0.433 A  
HETATM    7 CL   UNL     1     -12.750  11.124  71.082  1.00  0.00    -0.504 Cl 
HETATM    8  C   UNL     1      -9.901   8.331  71.285  1.00  0.00    -0.225 A  
HETATM    9  C   UNL     1      -9.478   8.229  69.953  1.00  0.00    -0.167 A  
ENDROOT
BRANCH   9  10
HETATM   10  O   UNL     1      -8.492   7.353  69.554  1.00  0.00    -0.131 OA 
BRANCH  10  11
HETATM   11  C   UNL     1      -8.740   5.994  69.524  1.00  0.00    -0.125 A  
HETATM   12  C   UNL     1      -7.798   5.148  70.125  1.00  0.00    -0.078 A  
HETATM   13  C   UNL     1      -7.950   3.757  70.073  1.00  0.00    -0.054 A  
HETATM   14 CL   UNL     1      -6.418   5.779  70.953  1.00  0.00    -0.038 Cl 
HETATM   15  C   UNL     1      -9.053   3.212  69.421  1.00  0.00    -0.132 A  
HETATM   16  C   UNL     1      -9.999   4.039  68.821  1.00  0.00     0.094 A  
HETATM   17 CL   UNL     1      -9.234   1.503  69.333  1.00  0.00    -0.155 Cl 
HETATM   18  C   UNL     1      -9.833   5.427  68.855  1.00  0.00    -0.226 A  
ENDBRANCH  10  11
ENDBRANCH   9  10
TORSDOF 2
ENDMDL
MODEL      203
REMARK 921   NORMALIZED FREE ENERGY PREDICTED BY IDOCK:   -2.97 KCAL/MOL
REMARK 922        TOTAL FREE ENERGY PREDICTED BY IDOCK:   -3.61 KCAL/MOL
REMARK 923 INTER-LIGAND FREE ENERGY PREDICTED BY IDOCK:   -3.12 KCAL/MOL
REMARK 924 INTRA-LIGAND FREE ENERGY PREDICTED BY IDOCK:   -0.49 KCAL/MOL
REMARK 927      BINDING AFFINITY PREDICTED BY RF-SCORE:    0.00 PKD
ROOT
HETATM    1  O   UNL     1     -11.191   5.422  66.071  1.00  0.00    -0.783 OA 
HETATM    2  C   UNL     1     -10.546   5.754  67.232  1.00  0.00    -0.279 A  
HETATM    3  H   UNL     1     -11.213   6.043  65.352  1.00  0.00     0.000 HD 
HETATM    4  C   UNL     1     -10.513   4.843  68.288  1.00  0.00     0.060 A  
HETATM    5  C   UNL     1      -9.857   5.190  69.469  1.00  0.00    -0.208 A  
HETATM    6  C   UNL     1      -9.273   6.448  69.613  1.00  0.00    -0.143 A  
HETATM    7 CL   UNL     1      -9.764   4.056  70.758  1.00  0.00    -0.263 Cl 
HETATM    8  C   UNL     1      -9.327   7.365  68.562  1.00  0.00    -0.141 A  
HETATM    9  C   UNL     1      -9.921   7.004  67.345  1.00  0.00    -0.167 A  
ENDROOT
BRANCH   9  10
HETATM   10  O   UNL     1      -9.984   7.862  66.270  1.00  0.00    -0.166 OA 
BRANCH  10  11
HETATM   11  C   UNL     1      -8.851   8.533  65.849  1.00  0.00    -0.182 A  
HETATM   12  C   UNL     1      -8.845   9.930  65.958  1.00  0.00    -0.146 A  
HETATM   13  C   UNL     1      -7.760  10.680  65.487  1.00  0.00    -0.083 A  
HETATM   14 CL   UNL     1     -10.166  10.785  66.674  1.00  0.00    -0.272 Cl 
HETATM   15  C   UNL     1      -6.674  10.026  64.911  1.00  0.00    -0.126 A  
HETATM   16  C   UNL     1      -6.664   8.637  64.797  1.00  0.00    -0.069 A  
HETATM   17 CL   UNL     1      -5.347  10.941  64.309  1.00  0.00    -0.059 Cl 
HETATM   18  C   UNL     1      -7.760   7.893  65.247  1.00  0.00    -0.097 A  
ENDBRANCH  10  11
ENDBRANCH   9  10
TORSDOF 2
ENDMDL
MODEL      204
REMARK 921   NORMALIZED FREE ENERGY PREDICTED BY IDOCK:   -2.90 KCAL/MOL
REMARK 922        TOTAL FREE ENERGY PREDICTED BY IDOCK:   -3.54 KCAL/MOL
REMARK 923 INTER-LIGAND FREE ENERGY PREDICTED BY IDOCK:   -3.33 KCAL/MOL
REMARK 924 INTRA-LIGAND FREE ENERGY PREDICTED BY IDOCK:   -0.21 KCAL/MOL
REMARK 927      BINDING AFFINITY PREDICTED BY RF-SCORE:    0.00 PKD
ROOT
HETATM    1  O   UNL     1     -11.029   5.702  69.708  1.00  0.00    -0.345 OA 
HETATM    2  C   UNL     1     -10.859   6.981  70.168  1.00  0.00    -0.256 A  
HETATM    3  H   UNL     1     -10.322   5.274  69.239  1.00  0.00     0.000 HD 
HETATM    4  C   UNL     1     -11.897   7.609  70.856  1.00  0.00    -0.272 A  
HETATM    5  C   UNL     1     -11.718   8.914  71.319  1.00  0.00    -0.306 A  
HETATM    6  C   UNL     1     -10.532   9.599  71.065  1.00  0.00    -0.327 A  
HETATM    7 CL   UNL     1     -12.970   9.680  72.213  1.00  0.00    -0.467 Cl 
HETATM    8  C   UNL     1      -9.504   8.975  70.357  1.00  0.00    -0.247 A  
HETATM    9  C   UNL     1      -9.643   7.642  69.948  1.00  0.00    -0.160 A  
ENDROOT
BRANCH   9  10
HETATM   10  O   UNL     1      -8.653   6.971  69.264  1.00  0.00    -0.134 OA 
BRANCH  10  11
HETATM   11  C   UNL     1      -8.539   7.109  67.893  1.00  0.00    -0.123 A  
HETATM   12  C   UNL     1      -7.385   6.601  67.283  1.00  0.00    -0.090 A  
HETATM   13  C   UNL     1      -7.170   6.766  65.909  1.00  0.00    -0.070 A  
HETATM   14 CL   UNL     1      -6.183   5.752  68.191  1.00  0.00    -0.037 Cl 
HETATM   15  C   UNL     1      -8.119   7.437  65.143  1.00  0.00    -0.129 A  
HETATM   16  C   UNL     1      -9.273   7.946  65.734  1.00  0.00    -0.033 A  
HETATM   17 CL   UNL     1      -7.852   7.664  63.458  1.00  0.00    -0.133 Cl 
HETATM   18  C   UNL     1      -9.473   7.801  67.111  1.00  0.00    -0.198 A  
ENDBRANCH  10  11
ENDBRANCH   9  10
TORSDOF 2
ENDMDL
MODEL      205
REMARK 921   NORMALIZED FREE ENERGY PREDICTED BY IDOCK:   -2.86 KCAL/MOL
REMARK 922        TOTAL FREE ENERGY PREDICTED BY IDOCK:   -3.50 KCAL/MOL
REMARK 923 INTER-LIGAND FREE ENERGY PREDICTED BY IDOCK:   -4.08 KCAL/MOL
REMARK 924 INTRA-LIGAND FREE ENERGY PREDICTED BY IDOCK:    0.58 KCAL/MOL
REMARK 927      BINDING AFFINITY PREDICTED BY RF-SCORE:    0.00 PKD
ROOT
HETATM    1  O   UNL     1     -11.733   6.403  69.263  1.00  0.00    -0.608 OA 
HETATM    2  C   UNL     1     -11.323   6.554  70.561  1.00  0.00    -0.367 A  
HETATM    3  H   UNL     1     -11.678   7.138  68.664  1.00  0.00     0.000 HD 
HETATM    4  C   UNL     1     -11.404   5.474  71.440  1.00  0.00     0.021 A  
HETATM    5  C   UNL     1     -10.987   5.636  72.762  1.00  0.00    -0.276 A  
HETATM    6  C   UNL     1     -10.530   6.873  73.214  1.00  0.00    -0.340 A  
HETATM    7 CL   UNL     1     -11.033   4.299  73.841  1.00  0.00    -0.323 Cl 
HETATM    8  C   UNL     1     -10.470   7.956  72.337  1.00  0.00    -0.339 A  
HETATM    9  C   UNL     1     -10.819   7.790  70.990  1.00  0.00    -0.239 A  
ENDROOT
BRANCH   9  10
HETATM   10  O   UNL     1     -10.760   8.819  70.078  1.00  0.00    -0.224 OA 
BRANCH  10  11
HETATM   11  C   UNL     1      -9.931   8.725  68.975  1.00  0.00    -0.191 A  
HETATM   12  C   UNL     1      -8.582   9.065  69.146  1.00  0.00    -0.133 A  
HETATM   13  C   UNL     1      -7.700   9.059  68.058  1.00  0.00    -0.097 A  
HETATM   14 CL   UNL     1      -7.951   9.503  70.695  1.00  0.00    -0.190 Cl 
HETATM   15  C   UNL     1      -8.170   8.705  66.797  1.00  0.00    -0.108 A  
HETATM   16  C   UNL     1      -9.508   8.363  66.611  1.00  0.00    -0.267 A  
HETATM   17 CL   UNL     1      -7.098   8.718  65.451  1.00  0.00    -0.082 Cl 
HETATM   18  C   UNL     1     -10.392   8.392  67.695  1.00  0.00    -0.317 A  
ENDBRANCH  10  11
ENDBRANCH   9  10
TORSDOF 2
ENDMDL
MODEL      206
REMARK 921   NORMALIZED FREE ENERGY PREDICTED BY IDOCK:   -2.84 KCAL/MOL
REMARK 922        TOTAL FREE ENERGY PREDICTED BY IDOCK:   -3.47 KCAL/MOL
REMARK 923 INTER-LIGAND FREE ENERGY PREDICTED BY IDOCK:   -3.08 KCAL/MOL
REMARK 924 INTRA-LIGAND FREE ENERGY PREDICTED BY IDOCK:   -0.39 KCAL/MOL
REMARK 927      BINDING AFFINITY PREDICTED BY RF-SCORE:    0.00 PKD
ROOT
HETATM    1  O   UNL     1      -7.146   6.756  65.724  1.00  0.00    -0.068 OA 
HETATM    2  C   UNL     1      -7.955   5.869  66.383  1.00  0.00    -0.102 A  
HETATM    3  H   UNL     1      -6.970   7.606  66.109  1.00  0.00     0.000 HD 
HETATM    4  C   UNL     1      -8.214   4.621  65.817  1.00  0.00    -0.111 A  
HETATM    5  C   UNL     1      -9.041   3.723  66.494  1.00  0.00    -0.155 A  
HETATM    6  C   UNL     1      -9.636   4.080  67.702  1.00  0.00    -0.210 A  
HETATM    7 CL   UNL     1      -9.327   2.162  65.832  1.00  0.00     0.018 Cl 
HETATM    8  C   UNL     1      -9.392   5.337  68.254  1.00  0.00    -0.143 A  
HETATM    9  C   UNL     1      -8.508   6.222  67.622  1.00  0.00    -0.116 A  
ENDROOT
BRANCH   9  10
HETATM   10  O   UNL     1      -8.215   7.467  68.133  1.00  0.00    -0.122 OA 
BRANCH  10  11
HETATM   11  C   UNL     1      -9.201   8.215  68.749  1.00  0.00    -0.144 A  
HETATM   12  C   UNL     1     -10.044   8.980  67.931  1.00  0.00    -0.197 A  
HETATM   13  C   UNL     1     -11.019   9.814  68.491  1.00  0.00    -0.195 A  
HETATM   14 CL   UNL     1      -9.918   8.928  66.208  1.00  0.00    -0.363 Cl 
HETATM   15  C   UNL     1     -11.155   9.877  69.875  1.00  0.00    -0.275 A  
HETATM   16  C   UNL     1     -10.327   9.121  70.702  1.00  0.00    -0.306 A  
HETATM   17 CL   UNL     1     -12.336  10.917  70.570  1.00  0.00    -0.433 Cl 
HETATM   18  C   UNL     1      -9.338   8.306  70.140  1.00  0.00    -0.159 A  
ENDBRANCH  10  11
ENDBRANCH   9  10
TORSDOF 2
ENDMDL
MODEL      207
REMARK 921   NORMALIZED FREE ENERGY PREDICTED BY IDOCK:   -2.82 KCAL/MOL
REMARK 922        TOTAL FREE ENERGY PREDICTED BY IDOCK:   -3.45 KCAL/MOL
REMARK 923 INTER-LIGAND FREE ENERGY PREDICTED BY IDOCK:   -3.16 KCAL/MOL
REMARK 924 INTRA-LIGAND FREE ENERGY PREDICTED BY IDOCK:   -0.29 KCAL/MOL
REMARK 927      BINDING AFFINITY PREDICTED BY RF-SCORE:    0.00 PKD
ROOT
HETATM    1  O   UNL     1      -7.003   7.399  66.247  1.00  0.00    -0.066 OA 
HETATM    2  C   UNL     1      -8.188   6.716  66.302  1.00  0.00    -0.120 A  
HETATM    3  H   UNL     1      -6.871   8.157  66.804  1.00  0.00     0.000 HD 
HETATM    4  C   UNL     1      -8.381   5.603  65.483  1.00  0.00    -0.139 A  
HETATM    5  C   UNL     1      -9.593   4.913  65.543  1.00  0.00    -0.132 A  
HETATM    6  C   UNL     1     -10.616   5.351  66.381  1.00  0.00    -0.322 A  
HETATM    7 CL   UNL     1      -9.824   3.510  64.577  1.00  0.00    -0.174 Cl 
HETATM    8  C   UNL     1     -10.427   6.477  67.183  1.00  0.00    -0.354 A  
HETATM    9  C   UNL     1      -9.191   7.137  67.185  1.00  0.00    -0.134 A  
ENDROOT
BRANCH   9  10
HETATM   10  O   UNL     1      -8.944   8.241  67.971  1.00  0.00    -0.137 OA 
BRANCH  10  11
HETATM   11  C   UNL     1      -9.137   9.513  67.464  1.00  0.00    -0.130 A  
HETATM   12  C   UNL     1      -8.124  10.458  67.677  1.00  0.00    -0.107 A  
HETATM   13  C   UNL     1      -8.281  11.783  67.252  1.00  0.00    -0.163 A  
HETATM   14 CL   UNL     1      -6.646  10.033  68.466  1.00  0.00    -0.053 Cl 
HETATM   15  C   UNL     1      -9.455  12.160  66.606  1.00  0.00    -0.223 A  
HETATM   16  C   UNL     1     -10.471  11.232  66.385  1.00  0.00    -0.306 A  
HETATM   17 CL   UNL     1      -9.666  13.792  66.102  1.00  0.00    -0.298 Cl 
HETATM   18  C   UNL     1     -10.320   9.915  66.832  1.00  0.00    -0.300 A  
ENDBRANCH  10  11
ENDBRANCH   9  10
TORSDOF 2
ENDMDL
MODEL      208
REMARK 921   NORMALIZED FREE ENERGY PREDICTED BY IDOCK:   -2.80 KCAL/MOL
REMARK 922        TOTAL FREE ENERGY PREDICTED BY IDOCK:   -3.43 KCAL/MOL
REMARK 923 INTER-LIGAND FREE ENERGY PREDICTED BY IDOCK:   -2.94 KCAL/MOL
REMARK 924 INTRA-LIGAND FREE ENERGY PREDICTED BY IDOCK:   -0.48 KCAL/MOL
REMARK 927      BINDING AFFINITY PREDICTED BY RF-SCORE:    0.00 PKD
ROOT
HETATM    1  O   UNL     1      -7.330  10.161  66.952  1.00  0.00    -0.090 OA 
HETATM    2  C   UNL     1      -8.564  10.360  67.511  1.00  0.00    -0.125 A  
HETATM    3  H   UNL     1      -6.937  10.848  66.426  1.00  0.00     0.000 HD 
HETATM    4  C   UNL     1      -9.141   9.351  68.283  1.00  0.00    -0.128 A  
HETATM    5  C   UNL     1     -10.401   9.560  68.848  1.00  0.00    -0.208 A  
HETATM    6  C   UNL     1     -11.095  10.746  68.614  1.00  0.00    -0.312 A  
HETATM    7 CL   UNL     1     -11.100   8.346  69.844  1.00  0.00    -0.170 Cl 
HETATM    8  C   UNL     1     -10.523  11.743  67.824  1.00  0.00    -0.219 A  
HETATM    9  C   UNL     1      -9.230  11.576  67.309  1.00  0.00    -0.167 A  
ENDROOT
BRANCH   9  10
HETATM   10  O   UNL     1      -8.611  12.536  66.539  1.00  0.00    -0.112 OA 
BRANCH  10  11
HETATM   11  C   UNL     1      -8.104  13.679  67.129  1.00  0.00    -0.077 A  
HETATM   12  C   UNL     1      -8.844  14.862  66.997  1.00  0.00    -0.232 A  
HETATM   13  C   UNL     1      -8.357  16.071  67.509  1.00  0.00    -0.177 A  
HETATM   14 CL   UNL     1     -10.379  14.881  66.203  1.00  0.00    -0.295 Cl 
HETATM   15  C   UNL     1      -7.128  16.093  68.162  1.00  0.00    -0.131 A  
HETATM   16  C   UNL     1      -6.381  14.926  68.304  1.00  0.00    -0.123 A  
HETATM   17 CL   UNL     1      -6.513  17.579  68.774  1.00  0.00    -0.197 Cl 
HETATM   18  C   UNL     1      -6.859  13.724  67.770  1.00  0.00    -0.182 A  
ENDBRANCH  10  11
ENDBRANCH   9  10
TORSDOF 2
ENDMDL
MODEL      209
REMARK 921   NORMALIZED FREE ENERGY PREDICTED BY IDOCK:   -2.79 KCAL/MOL
REMARK 922        TOTAL FREE ENERGY PREDICTED BY IDOCK:   -3.42 KCAL/MOL
REMARK 923 INTER-LIGAND FREE ENERGY PREDICTED BY IDOCK:   -2.92 KCAL/MOL
REMARK 924 INTRA-LIGAND FREE ENERGY PREDICTED BY IDOCK:   -0.50 KCAL/MOL
REMARK 927      BINDING AFFINITY PREDICTED BY RF-SCORE:    0.00 PKD
ROOT
HETATM    1  O   UNL     1      -7.317   8.849  64.433  1.00  0.00    -0.095 OA 
HETATM    2  C   UNL     1      -8.421   9.054  65.215  1.00  0.00    -0.166 A  
HETATM    3  H   UNL     1      -6.824   8.041  64.517  1.00  0.00     0.000 HD 
HETATM    4  C   UNL     1      -9.144  10.241  65.091  1.00  0.00    -0.234 A  
HETATM    5  C   UNL     1     -10.268  10.443  65.894  1.00  0.00    -0.234 A  
HETATM    6  C   UNL     1     -10.644   9.490  66.839  1.00  0.00    -0.241 A  
HETATM    7 CL   UNL     1     -11.197  11.878  65.714  1.00  0.00    -0.374 Cl 
HETATM    8  C   UNL     1      -9.906   8.314  66.975  1.00  0.00    -0.298 A  
HETATM    9  C   UNL     1      -8.818   8.066  66.128  1.00  0.00    -0.166 A  
ENDROOT
BRANCH   9  10
HETATM   10  O   UNL     1      -8.067   6.914  66.205  1.00  0.00    -0.104 OA 
BRANCH  10  11
HETATM   11  C   UNL     1      -8.526   5.745  65.628  1.00  0.00    -0.149 A  
HETATM   12  C   UNL     1      -9.021   4.749  66.482  1.00  0.00    -0.112 A  
HETATM   13  C   UNL     1      -9.438   3.513  65.973  1.00  0.00    -0.145 A  
HETATM   14 CL   UNL     1      -9.137   5.000  68.188  1.00  0.00    -0.122 Cl 
HETATM   15  C   UNL     1      -9.366   3.277  64.603  1.00  0.00    -0.146 A  
HETATM   16  C   UNL     1      -8.880   4.257  63.740  1.00  0.00    -0.132 A  
HETATM   17 CL   UNL     1      -9.856   1.753  63.972  1.00  0.00    -0.131 Cl 
HETATM   18  C   UNL     1      -8.441   5.482  64.254  1.00  0.00    -0.069 A  
ENDBRANCH  10  11
ENDBRANCH   9  10
TORSDOF 2
ENDMDL
MODEL      210
REMARK 921   NORMALIZED FREE ENERGY PREDICTED BY IDOCK:   -2.76 KCAL/MOL
REMARK 922        TOTAL FREE ENERGY PREDICTED BY IDOCK:   -3.38 KCAL/MOL
REMARK 923 INTER-LIGAND FREE ENERGY PREDICTED BY IDOCK:   -3.05 KCAL/MOL
REMARK 924 INTRA-LIGAND FREE ENERGY PREDICTED BY IDOCK:   -0.33 KCAL/MOL
REMARK 927      BINDING AFFINITY PREDICTED BY RF-SCORE:    0.00 PKD
ROOT
HETATM    1  O   UNL     1     -12.293  12.305  70.521  1.00  0.00    -0.329 OA 
HETATM    2  C   UNL     1     -11.738  11.063  70.371  1.00  0.00    -0.343 A  
HETATM    3  H   UNL     1     -12.121  12.978  69.872  1.00  0.00     0.000 HD 
HETATM    4  C   UNL     1     -11.991  10.075  71.323  1.00  0.00    -0.483 A  
HETATM    5  C   UNL     1     -11.419   8.812  71.165  1.00  0.00    -0.286 A  
HETATM    6  C   UNL     1     -10.572   8.547  70.090  1.00  0.00    -0.238 A  
HETATM    7 CL   UNL     1     -11.765   7.571  72.303  1.00  0.00    -0.336 Cl 
HETATM    8  C   UNL     1     -10.304   9.544  69.152  1.00  0.00    -0.218 A  
HETATM    9  C   UNL     1     -10.927  10.794  69.259  1.00  0.00    -0.241 A  
ENDROOT
BRANCH   9  10
HETATM   10  O   UNL     1     -10.714  11.807  68.351  1.00  0.00    -0.200 OA 
BRANCH  10  11
HETATM   11  C   UNL     1     -10.069  11.546  67.157  1.00  0.00    -0.197 A  
HETATM   12  C   UNL     1      -8.699  11.834  67.081  1.00  0.00    -0.169 A  
HETATM   13  C   UNL     1      -7.996  11.659  65.883  1.00  0.00     0.373 A  
HETATM   14 CL   UNL     1      -7.823  12.413  68.454  1.00  0.00    -0.143 Cl 
HETATM   15  C   UNL     1      -8.667  11.187  64.758  1.00  0.00     0.118 A  
HETATM   16  C   UNL     1     -10.028  10.894  64.817  1.00  0.00    -0.366 A  
HETATM   17 CL   UNL     1      -7.815  10.992  63.276  1.00  0.00     0.250 Cl 
HETATM   18  C   UNL     1     -10.732  11.092  66.009  1.00  0.00    -0.242 A  
ENDBRANCH  10  11
ENDBRANCH   9  10
TORSDOF 2
ENDMDL
MODEL      211
REMARK 921   NORMALIZED FREE ENERGY PREDICTED BY IDOCK:   -2.75 KCAL/MOL
REMARK 922        TOTAL FREE ENERGY PREDICTED BY IDOCK:   -3.37 KCAL/MOL
REMARK 923 INTER-LIGAND FREE ENERGY PREDICTED BY IDOCK:   -3.04 KCAL/MOL
REMARK 924 INTRA-LIGAND FREE ENERGY PREDICTED BY IDOCK:   -0.34 KCAL/MOL
REMARK 927      BINDING AFFINITY PREDICTED BY RF-SCORE:    0.00 PKD
ROOT
HETATM    1  O   UNL     1     -10.693   6.906  74.537  1.00  0.00    -0.400 OA 
HETATM    2  C   UNL     1     -10.475   5.926  73.606  1.00  0.00    -0.265 A  
HETATM    3  H   UNL     1     -10.488   7.809  74.326  1.00  0.00     0.000 HD 
HETATM    4  C   UNL     1     -10.777   4.600  73.917  1.00  0.00    -0.360 A  
HETATM    5  C   UNL     1     -10.550   3.606  72.963  1.00  0.00    -0.163 A  
HETATM    6  C   UNL     1      -9.991   3.925  71.727  1.00  0.00    -0.234 A  
HETATM    7 CL   UNL     1     -10.965   1.976  73.316  1.00  0.00    -0.263 Cl 
HETATM    8  C   UNL     1      -9.671   5.249  71.428  1.00  0.00    -0.219 A  
HETATM    9  C   UNL     1      -9.959   6.266  72.348  1.00  0.00    -0.172 A  
ENDROOT
BRANCH   9  10
HETATM   10  O   UNL     1      -9.682   7.592  72.096  1.00  0.00    -0.158 OA 
BRANCH  10  11
HETATM   11  C   UNL     1      -8.690   7.936  71.197  1.00  0.00    -0.136 A  
HETATM   12  C   UNL     1      -9.088   8.368  69.925  1.00  0.00    -0.146 A  
HETATM   13  C   UNL     1      -8.137   8.668  68.941  1.00  0.00    -0.118 A  
HETATM   14 CL   UNL     1     -10.757   8.551  69.515  1.00  0.00    -0.212 Cl 
HETATM   15  C   UNL     1      -6.782   8.540  69.237  1.00  0.00    -0.050 A  
HETATM   16  C   UNL     1      -6.371   8.114  70.497  1.00  0.00    -0.036 A  
HETATM   17 CL   UNL     1      -5.609   8.884  68.026  1.00  0.00    -0.035 Cl 
HETATM   18  C   UNL     1      -7.323   7.793  71.470  1.00  0.00    -0.069 A  
ENDBRANCH  10  11
ENDBRANCH   9  10
TORSDOF 2
ENDMDL
MODEL      212
REMARK 921   NORMALIZED FREE ENERGY PREDICTED BY IDOCK:   -2.74 KCAL/MOL
REMARK 922        TOTAL FREE ENERGY PREDICTED BY IDOCK:   -3.36 KCAL/MOL
REMARK 923 INTER-LIGAND FREE ENERGY PREDICTED BY IDOCK:   -3.00 KCAL/MOL
REMARK 924 INTRA-LIGAND FREE ENERGY PREDICTED BY IDOCK:   -0.36 KCAL/MOL
REMARK 927      BINDING AFFINITY PREDICTED BY RF-SCORE:    0.00 PKD
ROOT
HETATM    1  O   UNL     1      -6.870   8.841  63.607  1.00  0.00    -0.088 OA 
HETATM    2  C   UNL     1      -7.988   9.239  64.289  1.00  0.00    -0.135 A  
HETATM    3  H   UNL     1      -6.277   8.213  64.002  1.00  0.00     0.000 HD 
HETATM    4  C   UNL     1      -8.858  10.162  63.708  1.00  0.00    -0.245 A  
HETATM    5  C   UNL     1      -9.995  10.565  64.412  1.00  0.00    -0.343 A  
HETATM    6  C   UNL     1     -10.241  10.083  65.696  1.00  0.00    -0.258 A  
HETATM    7 CL   UNL     1     -11.102  11.661  63.686  1.00  0.00    -0.494 Cl 
HETATM    8  C   UNL     1      -9.357   9.177  66.282  1.00  0.00    -0.274 A  
HETATM    9  C   UNL     1      -8.250   8.710  65.561  1.00  0.00    -0.135 A  
ENDROOT
BRANCH   9  10
HETATM   10  O   UNL     1      -7.357   7.802  66.083  1.00  0.00    -0.075 OA 
BRANCH  10  11
HETATM   11  C   UNL     1      -7.814   6.699  66.781  1.00  0.00    -0.107 A  
HETATM   12  C   UNL     1      -8.332   5.629  66.039  1.00  0.00    -0.124 A  
HETATM   13  C   UNL     1      -8.876   4.510  66.681  1.00  0.00    -0.112 A  
HETATM   14 CL   UNL     1      -8.322   5.642  64.310  1.00  0.00    -0.115 Cl 
HETATM   15  C   UNL     1      -8.895   4.460  68.072  1.00  0.00    -0.109 A  
HETATM   16  C   UNL     1      -8.382   5.515  68.824  1.00  0.00    -0.102 A  
HETATM   17 CL   UNL     1      -9.582   3.099  68.869  1.00  0.00    -0.175 Cl 
HETATM   18  C   UNL     1      -7.861   6.642  68.180  1.00  0.00    -0.110 A  
ENDBRANCH  10  11
ENDBRANCH   9  10
TORSDOF 2
ENDMDL
MODEL      213
REMARK 921   NORMALIZED FREE ENERGY PREDICTED BY IDOCK:   -2.67 KCAL/MOL
REMARK 922        TOTAL FREE ENERGY PREDICTED BY IDOCK:   -3.28 KCAL/MOL
REMARK 923 INTER-LIGAND FREE ENERGY PREDICTED BY IDOCK:   -3.03 KCAL/MOL
REMARK 924 INTRA-LIGAND FREE ENERGY PREDICTED BY IDOCK:   -0.25 KCAL/MOL
REMARK 927      BINDING AFFINITY PREDICTED BY RF-SCORE:    0.00 PKD
ROOT
HETATM    1  O   UNL     1      -7.388   8.461  68.277  1.00  0.00    -0.091 OA 
HETATM    2  C   UNL     1      -8.615   7.920  68.550  1.00  0.00    -0.128 A  
HETATM    3  H   UNL     1      -7.159   8.677  67.380  1.00  0.00     0.000 HD 
HETATM    4  C   UNL     1      -8.951   7.603  69.867  1.00  0.00    -0.144 A  
HETATM    5  C   UNL     1     -10.204   7.049  70.137  1.00  0.00    -0.193 A  
HETATM    6  C   UNL     1     -11.097   6.777  69.103  1.00  0.00    -0.270 A  
HETATM    7 CL   UNL     1     -10.649   6.702  71.761  1.00  0.00    -0.237 Cl 
HETATM    8  C   UNL     1     -10.749   7.076  67.785  1.00  0.00    -0.300 A  
HETATM    9  C   UNL     1      -9.524   7.697  67.506  1.00  0.00    -0.140 A  
ENDROOT
BRANCH   9  10
HETATM   10  O   UNL     1      -9.139   8.031  66.227  1.00  0.00    -0.171 OA 
BRANCH  10  11
HETATM   11  C   UNL     1      -9.513   9.246  65.683  1.00  0.00    -0.256 A  
HETATM   12  C   UNL     1      -8.726   9.764  64.646  1.00  0.00    -0.194 A  
HETATM   13  C   UNL     1      -9.006  11.020  64.095  1.00  0.00    -0.045 A  
HETATM   14 CL   UNL     1      -7.385   8.881  64.004  1.00  0.00    -0.099 Cl 
HETATM   15  C   UNL     1     -10.082  11.757  64.581  1.00  0.00    -0.272 A  
HETATM   16  C   UNL     1     -10.876  11.255  65.610  1.00  0.00    -0.242 A  
HETATM   17 CL   UNL     1     -10.419  13.312  63.924  1.00  0.00    -0.179 Cl 
HETATM   18  C   UNL     1     -10.580  10.010  66.174  1.00  0.00    -0.071 A  
ENDBRANCH  10  11
ENDBRANCH   9  10
TORSDOF 2
ENDMDL
MODEL      214
REMARK 921   NORMALIZED FREE ENERGY PREDICTED BY IDOCK:   -2.62 KCAL/MOL
REMARK 922        TOTAL FREE ENERGY PREDICTED BY IDOCK:   -3.23 KCAL/MOL
REMARK 923 INTER-LIGAND FREE ENERGY PREDICTED BY IDOCK:   -2.78 KCAL/MOL
REMARK 924 INTRA-LIGAND FREE ENERGY PREDICTED BY IDOCK:   -0.45 KCAL/MOL
REMARK 927      BINDING AFFINITY PREDICTED BY RF-SCORE:    0.00 PKD
ROOT
HETATM    1  O   UNL     1     -11.687   7.131  69.655  1.00  0.00    -0.532 OA 
HETATM    2  C   UNL     1     -10.548   6.625  70.220  1.00  0.00    -0.222 A  
HETATM    3  H   UNL     1     -11.635   7.601  68.831  1.00  0.00     0.000 HD 
HETATM    4  C   UNL     1     -10.625   5.936  71.430  1.00  0.00    -0.309 A  
HETATM    5  C   UNL     1      -9.458   5.425  72.001  1.00  0.00    -0.148 A  
HETATM    6  C   UNL     1      -8.222   5.634  71.394  1.00  0.00    -0.122 A  
HETATM    7 CL   UNL     1      -9.548   4.529  73.466  1.00  0.00    -0.127 Cl 
HETATM    8  C   UNL     1      -8.146   6.343  70.195  1.00  0.00    -0.120 A  
HETATM    9  C   UNL     1      -9.316   6.800  69.574  1.00  0.00    -0.146 A  
ENDROOT
BRANCH   9  10
HETATM   10  O   UNL     1      -9.300   7.487  68.380  1.00  0.00    -0.142 OA 
BRANCH  10  11
HETATM   11  C   UNL     1      -8.921   6.848  67.215  1.00  0.00    -0.118 A  
HETATM   12  C   UNL     1      -8.141   7.570  66.302  1.00  0.00    -0.113 A  
HETATM   13  C   UNL     1      -7.778   7.009  65.071  1.00  0.00    -0.115 A  
HETATM   14 CL   UNL     1      -7.594   9.172  66.652  1.00  0.00    -0.089 Cl 
HETATM   15  C   UNL     1      -8.193   5.719  64.756  1.00  0.00    -0.135 A  
HETATM   16  C   UNL     1      -8.968   4.987  65.654  1.00  0.00    -0.149 A  
HETATM   17 CL   UNL     1      -7.771   5.032  63.236  1.00  0.00    -0.065 Cl 
HETATM   18  C   UNL     1      -9.348   5.558  66.873  1.00  0.00    -0.129 A  
ENDBRANCH  10  11
ENDBRANCH   9  10
TORSDOF 2
ENDMDL
MODEL      215
REMARK 921   NORMALIZED FREE ENERGY PREDICTED BY IDOCK:   -2.59 KCAL/MOL
REMARK 922        TOTAL FREE ENERGY PREDICTED BY IDOCK:   -3.19 KCAL/MOL
REMARK 923 INTER-LIGAND FREE ENERGY PREDICTED BY IDOCK:   -3.04 KCAL/MOL
REMARK 924 INTRA-LIGAND FREE ENERGY PREDICTED BY IDOCK:   -0.15 KCAL/MOL
REMARK 927      BINDING AFFINITY PREDICTED BY RF-SCORE:    0.00 PKD
ROOT
HETATM    1  O   UNL     1      -6.830  12.142  66.599  1.00  0.00    -0.375 OA 
HETATM    2  C   UNL     1      -7.886  12.866  67.083  1.00  0.00    -0.077 A  
HETATM    3  H   UNL     1      -6.986  11.298  66.192  1.00  0.00     0.000 HD 
HETATM    4  C   UNL     1      -7.657  14.106  67.680  1.00  0.00    -0.193 A  
HETATM    5  C   UNL     1      -8.739  14.837  68.173  1.00  0.00    -0.168 A  
HETATM    6  C   UNL     1     -10.032  14.321  68.107  1.00  0.00    -0.230 A  
HETATM    7 CL   UNL     1      -8.475  16.388  68.865  1.00  0.00    -0.242 Cl 
HETATM    8  C   UNL     1     -10.255  13.071  67.528  1.00  0.00    -0.221 A  
HETATM    9  C   UNL     1      -9.188  12.358  66.966  1.00  0.00    -0.208 A  
ENDROOT
BRANCH   9  10
HETATM   10  O   UNL     1      -9.354  11.130  66.365  1.00  0.00    -0.178 OA 
BRANCH  10  11
HETATM   11  C   UNL     1      -9.690  10.024  67.124  1.00  0.00    -0.174 A  
HETATM   12  C   UNL     1      -8.892   8.879  66.993  1.00  0.00    -0.126 A  
HETATM   13  C   UNL     1      -9.213   7.701  67.678  1.00  0.00    -0.144 A  
HETATM   14 CL   UNL     1      -7.485   8.871  65.988  1.00  0.00    -0.089 Cl 
HETATM   15  C   UNL     1     -10.334   7.672  68.502  1.00  0.00    -0.198 A  
HETATM   16  C   UNL     1     -11.136   8.802  68.645  1.00  0.00     0.230 A  
HETATM   17 CL   UNL     1     -10.748   6.222  69.330  1.00  0.00    -0.325 Cl 
HETATM   18  C   UNL     1     -10.826   9.971  67.941  1.00  0.00    -0.323 A  
ENDBRANCH  10  11
ENDBRANCH   9  10
TORSDOF 2
ENDMDL
MODEL      216
REMARK 921   NORMALIZED FREE ENERGY PREDICTED BY IDOCK:   -2.55 KCAL/MOL
REMARK 922        TOTAL FREE ENERGY PREDICTED BY IDOCK:   -3.15 KCAL/MOL
REMARK 923 INTER-LIGAND FREE ENERGY PREDICTED BY IDOCK:   -2.75 KCAL/MOL
REMARK 924 INTRA-LIGAND FREE ENERGY PREDICTED BY IDOCK:   -0.40 KCAL/MOL
REMARK 927      BINDING AFFINITY PREDICTED BY RF-SCORE:    0.00 PKD
ROOT
HETATM    1  O   UNL     1     -10.696   8.483  69.682  1.00  0.00    -0.229 OA 
HETATM    2  C   UNL     1      -9.553   8.585  70.429  1.00  0.00    -0.172 A  
HETATM    3  H   UNL     1     -10.672   8.695  68.756  1.00  0.00     0.000 HD 
HETATM    4  C   UNL     1      -9.588   8.274  71.789  1.00  0.00    -0.274 A  
HETATM    5  C   UNL     1      -8.419   8.382  72.544  1.00  0.00    -0.162 A  
HETATM    6  C   UNL     1      -7.237   8.833  71.960  1.00  0.00    -0.022 A  
HETATM    7 CL   UNL     1      -8.437   7.952  74.208  1.00  0.00    -0.297 Cl 
HETATM    8  C   UNL     1      -7.211   9.163  70.605  1.00  0.00    -0.106 A  
HETATM    9  C   UNL     1      -8.359   8.993  69.819  1.00  0.00    -0.129 A  
ENDROOT
BRANCH   9  10
HETATM   10  O   UNL     1      -8.384   9.284  68.473  1.00  0.00    -0.116 OA 
BRANCH  10  11
HETATM   11  C   UNL     1      -8.512  10.593  68.048  1.00  0.00    -0.119 A  
HETATM   12  C   UNL     1      -7.353  11.253  67.615  1.00  0.00    -0.100 A  
HETATM   13  C   UNL     1      -7.396  12.600  67.236  1.00  0.00    -0.106 A  
HETATM   14 CL   UNL     1      -5.830  10.439  67.531  1.00  0.00    -0.045 Cl 
HETATM   15  C   UNL     1      -8.606  13.287  67.283  1.00  0.00    -0.210 A  
HETATM   16  C   UNL     1      -9.767  12.645  67.708  1.00  0.00    -0.206 A  
HETATM   17 CL   UNL     1      -8.662  14.949  66.840  1.00  0.00    -0.264 Cl 
HETATM   18  C   UNL     1      -9.716  11.306  68.109  1.00  0.00    -0.188 A  
ENDBRANCH  10  11
ENDBRANCH   9  10
TORSDOF 2
ENDMDL
MODEL      217
REMARK 921   NORMALIZED FREE ENERGY PREDICTED BY IDOCK:   -2.50 KCAL/MOL
REMARK 922        TOTAL FREE ENERGY PREDICTED BY IDOCK:   -3.10 KCAL/MOL
REMARK 923 INTER-LIGAND FREE ENERGY PREDICTED BY IDOCK:   -3.31 KCAL/MOL
REMARK 924 INTRA-LIGAND FREE ENERGY PREDICTED BY IDOCK:    0.22 KCAL/MOL
REMARK 927      BINDING AFFINITY PREDICTED BY RF-SCORE:    0.00 PKD
ROOT
HETATM    1  O   UNL     1     -11.224  14.860  71.664  1.00  0.00    -0.556 OA 
HETATM    2  C   UNL     1     -10.879  15.399  70.454  1.00  0.00    -0.308 A  
HETATM    3  H   UNL     1     -11.383  13.926  71.735  1.00  0.00     0.000 HD 
HETATM    4  C   UNL     1     -10.644  16.770  70.351  1.00  0.00     0.333 A  
HETATM    5  C   UNL     1     -10.295  17.312  69.113  1.00  0.00    -0.290 A  
HETATM    6  C   UNL     1     -10.219  16.503  67.982  1.00  0.00    -0.271 A  
HETATM    7 CL   UNL     1      -9.953  18.992  68.985  1.00  0.00    -0.446 Cl 
HETATM    8  C   UNL     1     -10.475  15.136  68.084  1.00  0.00    -0.245 A  
HETATM    9  C   UNL     1     -10.757  14.566  69.333  1.00  0.00    -0.195 A  
ENDROOT
BRANCH   9  10
HETATM   10  O   UNL     1     -10.999  13.220  69.494  1.00  0.00    -0.096 OA 
BRANCH  10  11
HETATM   11  C   UNL     1     -10.600  12.321  68.523  1.00  0.00    -0.234 A  
HETATM   12  C   UNL     1      -9.228  12.216  68.257  1.00  0.00    -0.192 A  
HETATM   13  C   UNL     1      -8.759  11.377  67.239  1.00  0.00    -0.148 A  
HETATM   14 CL   UNL     1      -8.062  13.110  69.168  1.00  0.00     0.345 Cl 
HETATM   15  C   UNL     1      -9.667  10.635  66.489  1.00  0.00    -0.194 A  
HETATM   16  C   UNL     1     -11.034  10.726  66.742  1.00  0.00    -0.214 A  
HETATM   17 CL   UNL     1      -9.100   9.619  65.222  1.00  0.00    -0.246 Cl 
HETATM   18  C   UNL     1     -11.502  11.583  67.744  1.00  0.00    -0.357 A  
ENDBRANCH  10  11
ENDBRANCH   9  10
TORSDOF 2
ENDMDL
MODEL      218
REMARK 921   NORMALIZED FREE ENERGY PREDICTED BY IDOCK:   -2.45 KCAL/MOL
REMARK 922        TOTAL FREE ENERGY PREDICTED BY IDOCK:   -3.03 KCAL/MOL
REMARK 923 INTER-LIGAND FREE ENERGY PREDICTED BY IDOCK:   -3.10 KCAL/MOL
REMARK 924 INTRA-LIGAND FREE ENERGY PREDICTED BY IDOCK:    0.07 KCAL/MOL
REMARK 927      BINDING AFFINITY PREDICTED BY RF-SCORE:    0.00 PKD
ROOT
HETATM    1  O   UNL     1     -10.914  15.977  64.362  1.00  0.00    -0.893 OA 
HETATM    2  C   UNL     1     -11.395  14.775  64.806  1.00  0.00    -0.397 A  
HETATM    3  H   UNL     1     -10.415  16.531  64.952  1.00  0.00     0.000 HD 
HETATM    4  C   UNL     1     -12.127  13.962  63.941  1.00  0.00    -0.387 A  
HETATM    5  C   UNL     1     -12.616  12.739  64.402  1.00  0.00    -0.352 A  
HETATM    6  C   UNL     1     -12.410  12.346  65.723  1.00  0.00    -0.106 A  
HETATM    7 CL   UNL     1     -13.476  11.706  63.330  1.00  0.00     0.474 Cl 
HETATM    8  C   UNL     1     -11.695  13.171  66.592  1.00  0.00    -0.427 A  
HETATM    9  C   UNL     1     -11.139  14.369  66.124  1.00  0.00    -0.330 A  
ENDROOT
BRANCH   9  10
HETATM   10  O   UNL     1     -10.408  15.210  66.932  1.00  0.00    -0.263 OA 
BRANCH  10  11
HETATM   11  C   UNL     1     -10.775  15.399  68.252  1.00  0.00    -0.260 A  
HETATM   12  C   UNL     1     -10.340  14.452  69.189  1.00  0.00    -0.154 A  
HETATM   13  C   UNL     1     -10.730  14.542  70.531  1.00  0.00     0.351 A  
HETATM   14 CL   UNL     1      -9.308  13.142  68.735  1.00  0.00     0.032 Cl 
HETATM   15  C   UNL     1     -11.555  15.588  70.936  1.00  0.00    -0.375 A  
HETATM   16  C   UNL     1     -11.995  16.539  70.017  1.00  0.00     0.617 A  
HETATM   17 CL   UNL     1     -12.058  15.692  72.578  1.00  0.00    -0.509 Cl 
HETATM   18  C   UNL     1     -11.622  16.433  68.673  1.00  0.00    -0.127 A  
ENDBRANCH  10  11
ENDBRANCH   9  10
TORSDOF 2
ENDMDL
MODEL      219
REMARK 921   NORMALIZED FREE ENERGY PREDICTED BY IDOCK:   -2.41 KCAL/MOL
REMARK 922        TOTAL FREE ENERGY PREDICTED BY IDOCK:   -2.99 KCAL/MOL
REMARK 923 INTER-LIGAND FREE ENERGY PREDICTED BY IDOCK:   -3.89 KCAL/MOL
REMARK 924 INTRA-LIGAND FREE ENERGY PREDICTED BY IDOCK:    0.90 KCAL/MOL
REMARK 927      BINDING AFFINITY PREDICTED BY RF-SCORE:    0.00 PKD
ROOT
HETATM    1  O   UNL     1      -7.805  10.621  66.228  1.00  0.00    -0.138 OA 
HETATM    2  C   UNL     1      -8.403   9.562  66.856  1.00  0.00    -0.116 A  
HETATM    3  H   UNL     1      -8.303  11.141  65.607  1.00  0.00     0.000 HD 
HETATM    4  C   UNL     1      -7.672   8.799  67.767  1.00  0.00    -0.102 A  
HETATM    5  C   UNL     1      -8.287   7.718  68.402  1.00  0.00    -0.125 A  
HETATM    6  C   UNL     1      -9.605   7.378  68.103  1.00  0.00    -0.148 A  
HETATM    7 CL   UNL     1      -7.413   6.802  69.565  1.00  0.00    -0.091 Cl 
HETATM    8  C   UNL     1     -10.326   8.130  67.175  1.00  0.00    -0.391 A  
HETATM    9  C   UNL     1      -9.744   9.259  66.583  1.00  0.00    -0.219 A  
ENDROOT
BRANCH   9  10
HETATM   10  O   UNL     1     -10.416  10.048  65.677  1.00  0.00    -0.168 OA 
BRANCH  10  11
HETATM   11  C   UNL     1     -10.513  11.412  65.879  1.00  0.00    -0.258 A  
HETATM   12  C   UNL     1     -11.108  11.853  67.069  1.00  0.00    -0.302 A  
HETATM   13  C   UNL     1     -11.301  13.218  67.310  1.00  0.00    -0.347 A  
HETATM   14 CL   UNL     1     -11.626  10.738  68.284  1.00  0.00    -0.353 Cl 
HETATM   15  C   UNL     1     -10.889  14.147  66.358  1.00  0.00    -0.304 A  
HETATM   16  C   UNL     1     -10.294  13.726  65.170  1.00  0.00    -0.391 A  
HETATM   17 CL   UNL     1     -11.144  15.826  66.636  1.00  0.00    -0.178 Cl 
HETATM   18  C   UNL     1     -10.124  12.359  64.922  1.00  0.00    -0.259 A  
ENDBRANCH  10  11
ENDBRANCH   9  10
TORSDOF 2
ENDMDL
MODEL      220
REMARK 921   NORMALIZED FREE ENERGY PREDICTED BY IDOCK:   -2.34 KCAL/MOL
REMARK 922        TOTAL FREE ENERGY PREDICTED BY IDOCK:   -2.91 KCAL/MOL
REMARK 923 INTER-LIGAND FREE ENERGY PREDICTED BY IDOCK:   -3.55 KCAL/MOL
REMARK 924 INTRA-LIGAND FREE ENERGY PREDICTED BY IDOCK:    0.64 KCAL/MOL
REMARK 927      BINDING AFFINITY PREDICTED BY RF-SCORE:    0.00 PKD
ROOT
HETATM    1  O   UNL     1      -9.357   8.374  70.260  1.00  0.00    -0.160 OA 
HETATM    2  C   UNL     1      -9.425   8.519  68.900  1.00  0.00    -0.147 A  
HETATM    3  H   UNL     1      -9.923   7.747  70.695  1.00  0.00     0.000 HD 
HETATM    4  C   UNL     1      -8.594   9.440  68.262  1.00  0.00    -0.120 A  
HETATM    5  C   UNL     1      -8.671   9.584  66.876  1.00  0.00    -0.128 A  
HETATM    6  C   UNL     1      -9.595   8.847  66.137  1.00  0.00    -0.335 A  
HETATM    7 CL   UNL     1      -7.617  10.678  66.072  1.00  0.00    -0.144 Cl 
HETATM    8  C   UNL     1     -10.439   7.942  66.782  1.00  0.00    -0.317 A  
HETATM    9  C   UNL     1     -10.324   7.736  68.163  1.00  0.00    -0.200 A  
ENDROOT
BRANCH   9  10
HETATM   10  O   UNL     1     -11.118   6.842  68.846  1.00  0.00    -0.233 OA 
BRANCH  10  11
HETATM   11  C   UNL     1     -10.544   5.806  69.560  1.00  0.00    -0.319 A  
HETATM   12  C   UNL     1      -9.995   4.741  68.832  1.00  0.00    -0.126 A  
HETATM   13  C   UNL     1      -9.459   3.627  69.490  1.00  0.00    -0.246 A  
HETATM   14 CL   UNL     1      -9.955   4.755  67.104  1.00  0.00    -0.223 Cl 
HETATM   15  C   UNL     1      -9.467   3.583  70.881  1.00  0.00    -0.166 A  
HETATM   16  C   UNL     1     -10.006   4.635  71.619  1.00  0.00    -0.262 A  
HETATM   17 CL   UNL     1      -8.831   2.207  71.696  1.00  0.00    -0.108 Cl 
HETATM   18  C   UNL     1     -10.562   5.736  70.959  1.00  0.00    -0.318 A  
ENDBRANCH  10  11
ENDBRANCH   9  10
TORSDOF 2
ENDMDL
MODEL      221
REMARK 921   NORMALIZED FREE ENERGY PREDICTED BY IDOCK:   -2.28 KCAL/MOL
REMARK 922        TOTAL FREE ENERGY PREDICTED BY IDOCK:   -2.85 KCAL/MOL
REMARK 923 INTER-LIGAND FREE ENERGY PREDICTED BY IDOCK:   -2.52 KCAL/MOL
REMARK 924 INTRA-LIGAND FREE ENERGY PREDICTED BY IDOCK:   -0.34 KCAL/MOL
REMARK 927      BINDING AFFINITY PREDICTED BY RF-SCORE:    0.00 PKD
ROOT
HETATM    1  O   UNL     1     -11.305   7.632  68.648  1.00  0.00    -0.277 OA 
HETATM    2  C   UNL     1     -10.168   7.231  67.998  1.00  0.00    -0.185 A  
HETATM    3  H   UNL     1     -11.246   8.273  69.347  1.00  0.00     0.000 HD 
HETATM    4  C   UNL     1     -10.256   6.290  66.972  1.00  0.00    -0.256 A  
HETATM    5  C   UNL     1      -9.092   5.885  66.316  1.00  0.00    -0.149 A  
HETATM    6  C   UNL     1      -7.850   6.383  66.705  1.00  0.00    -0.104 A  
HETATM    7 CL   UNL     1      -9.192   4.766  65.016  1.00  0.00    -0.153 Cl 
HETATM    8  C   UNL     1      -7.764   7.307  67.746  1.00  0.00    -0.112 A  
HETATM    9  C   UNL     1      -8.930   7.776  68.366  1.00  0.00    -0.132 A  
ENDROOT
BRANCH   9  10
HETATM   10  O   UNL     1      -8.905   8.703  69.385  1.00  0.00    -0.140 OA 
BRANCH  10  11
HETATM   11  C   UNL     1      -8.174   9.868  69.247  1.00  0.00    -0.138 A  
HETATM   12  C   UNL     1      -8.713  10.883  68.444  1.00  0.00    -0.147 A  
HETATM   13  C   UNL     1      -7.997  12.062  68.205  1.00  0.00    -0.152 A  
HETATM   14 CL   UNL     1     -10.276  10.726  67.721  1.00  0.00    -0.203 Cl 
HETATM   15  C   UNL     1      -6.739  12.227  68.776  1.00  0.00    -0.089 A  
HETATM   16  C   UNL     1      -6.189  11.229  69.578  1.00  0.00    -0.099 A  
HETATM   17 CL   UNL     1      -5.843  13.664  68.468  1.00  0.00    -0.086 Cl 
HETATM   18  C   UNL     1      -6.897  10.042  69.797  1.00  0.00    -0.094 A  
ENDBRANCH  10  11
ENDBRANCH   9  10
TORSDOF 2
ENDMDL
MODEL      222
REMARK 921   NORMALIZED FREE ENERGY PREDICTED BY IDOCK:   -2.25 KCAL/MOL
REMARK 922        TOTAL FREE ENERGY PREDICTED BY IDOCK:   -2.81 KCAL/MOL
REMARK 923 INTER-LIGAND FREE ENERGY PREDICTED BY IDOCK:   -2.57 KCAL/MOL
REMARK 924 INTRA-LIGAND FREE ENERGY PREDICTED BY IDOCK:   -0.24 KCAL/MOL
REMARK 927      BINDING AFFINITY PREDICTED BY RF-SCORE:    0.00 PKD
ROOT
HETATM    1  O   UNL     1      -9.201   8.401  70.740  1.00  0.00    -0.147 OA 
HETATM    2  C   UNL     1      -9.580   8.491  69.428  1.00  0.00    -0.170 A  
HETATM    3  H   UNL     1      -9.309   7.580  71.206  1.00  0.00     0.000 HD 
HETATM    4  C   UNL     1      -9.421   9.697  68.745  1.00  0.00    -0.148 A  
HETATM    5  C   UNL     1      -9.812   9.781  67.408  1.00  0.00    -0.174 A  
HETATM    6  C   UNL     1     -10.392   8.687  66.769  1.00  0.00    -0.336 A  
HETATM    7 CL   UNL     1      -9.574  11.247  66.541  1.00  0.00    -0.208 Cl 
HETATM    8  C   UNL     1     -10.569   7.489  67.461  1.00  0.00    -0.331 A  
HETATM    9  C   UNL     1     -10.117   7.369  68.782  1.00  0.00    -0.179 A  
ENDROOT
BRANCH   9  10
HETATM   10  O   UNL     1     -10.248   6.204  69.506  1.00  0.00    -0.173 OA 
BRANCH  10  11
HETATM   11  C   UNL     1      -9.364   5.160  69.309  1.00  0.00    -0.123 A  
HETATM   12  C   UNL     1      -8.760   4.597  70.441  1.00  0.00    -0.089 A  
HETATM   13  C   UNL     1      -7.803   3.583  70.313  1.00  0.00    -0.048 A  
HETATM   14 CL   UNL     1      -9.168   5.125  72.037  1.00  0.00    -0.152 Cl 
HETATM   15  C   UNL     1      -7.455   3.127  69.044  1.00  0.00    -0.048 A  
HETATM   16  C   UNL     1      -8.048   3.674  67.908  1.00  0.00    -0.085 A  
HETATM   17 CL   UNL     1      -6.263   1.897  68.877  1.00  0.00    -0.025 Cl 
HETATM   18  C   UNL     1      -8.986   4.703  68.039  1.00  0.00    -0.131 A  
ENDBRANCH  10  11
ENDBRANCH   9  10
TORSDOF 2
ENDMDL
MODEL      223
REMARK 921   NORMALIZED FREE ENERGY PREDICTED BY IDOCK:   -1.83 KCAL/MOL
REMARK 922        TOTAL FREE ENERGY PREDICTED BY IDOCK:   -2.34 KCAL/MOL
REMARK 923 INTER-LIGAND FREE ENERGY PREDICTED BY IDOCK:   -2.16 KCAL/MOL
REMARK 924 INTRA-LIGAND FREE ENERGY PREDICTED BY IDOCK:   -0.18 KCAL/MOL
REMARK 927      BINDING AFFINITY PREDICTED BY RF-SCORE:    0.00 PKD
ROOT
HETATM    1  O   UNL     1     -11.767  10.996  70.708  1.00  0.00    -0.332 OA 
HETATM    2  C   UNL     1     -10.855   9.976  70.731  1.00  0.00    -0.260 A  
HETATM    3  H   UNL     1     -11.794  11.586  69.964  1.00  0.00     0.000 HD 
HETATM    4  C   UNL     1     -10.816   9.110  71.824  1.00  0.00    -0.416 A  
HETATM    5  C   UNL     1      -9.880   8.074  71.841  1.00  0.00    -0.191 A  
HETATM    6  C   UNL     1      -8.967   7.926  70.799  1.00  0.00    -0.141 A  
HETATM    7 CL   UNL     1      -9.856   6.969  73.158  1.00  0.00    -0.207 Cl 
HETATM    8  C   UNL     1      -8.996   8.807  69.718  1.00  0.00    -0.146 A  
HETATM    9  C   UNL     1      -9.974   9.808  69.653  1.00  0.00    -0.223 A  
ENDROOT
BRANCH   9  10
HETATM   10  O   UNL     1     -10.060  10.692  68.601  1.00  0.00    -0.168 OA 
BRANCH  10  11
HETATM   11  C   UNL     1      -9.276  11.831  68.583  1.00  0.00    -0.083 A  
HETATM   12  C   UNL     1      -9.575  12.811  67.627  1.00  0.00    -0.192 A  
HETATM   13  C   UNL     1      -8.781  13.958  67.506  1.00  0.00    -0.194 A  
HETATM   14 CL   UNL     1     -10.929  12.651  66.564  1.00  0.00    -0.288 Cl 
HETATM   15  C   UNL     1      -7.687  14.126  68.351  1.00  0.00    -0.140 A  
HETATM   16  C   UNL     1      -7.378  13.162  69.307  1.00  0.00     0.227 A  
HETATM   17 CL   UNL     1      -6.693  15.522  68.193  1.00  0.00    -0.122 Cl 
HETATM   18  C   UNL     1      -8.159  12.006  69.410  1.00  0.00     0.714 A  
ENDBRANCH  10  11
ENDBRANCH   9  10
TORSDOF 2
ENDMDL
MODEL      224
REMARK 921   NORMALIZED FREE ENERGY PREDICTED BY IDOCK:   -1.78 KCAL/MOL
REMARK 922        TOTAL FREE ENERGY PREDICTED BY IDOCK:   -2.28 KCAL/MOL
REMARK 923 INTER-LIGAND FREE ENERGY PREDICTED BY IDOCK:   -2.02 KCAL/MOL
REMARK 924 INTRA-LIGAND FREE ENERGY PREDICTED BY IDOCK:   -0.26 KCAL/MOL
REMARK 927      BINDING AFFINITY PREDICTED BY RF-SCORE:    0.00 PKD
ROOT
HETATM    1  O   UNL     1     -10.936   5.322  66.623  1.00  0.00    -0.474 OA 
HETATM    2  C   UNL     1     -10.229   5.223  67.791  1.00  0.00    -0.156 A  
HETATM    3  H   UNL     1     -10.950   6.146  66.150  1.00  0.00     0.000 HD 
HETATM    4  C   UNL     1     -10.209   4.013  68.485  1.00  0.00     0.466 A  
HETATM    5  C   UNL     1      -9.488   3.921  69.676  1.00  0.00    -0.193 A  
HETATM    6  C   UNL     1      -8.826   5.034  70.191  1.00  0.00    -0.138 A  
HETATM    7 CL   UNL     1      -9.413   2.422  70.514  1.00  0.00    -0.205 Cl 
HETATM    8  C   UNL     1      -8.866   6.248  69.505  1.00  0.00    -0.135 A  
HETATM    9  C   UNL     1      -9.527   6.336  68.273  1.00  0.00    -0.117 A  
ENDROOT
BRANCH   9  10
HETATM   10  O   UNL     1      -9.580   7.504  67.544  1.00  0.00    -0.135 OA 
BRANCH  10  11
HETATM   11  C   UNL     1      -8.702   8.536  67.819  1.00  0.00    -0.137 A  
HETATM   12  C   UNL     1      -9.243   9.743  68.283  1.00  0.00    -0.129 A  
HETATM   13  C   UNL     1      -8.420  10.852  68.516  1.00  0.00    -0.147 A  
HETATM   14 CL   UNL     1     -10.935   9.915  68.588  1.00  0.00    -0.244 Cl 
HETATM   15  C   UNL     1      -7.051  10.749  68.289  1.00  0.00    -0.078 A  
HETATM   16  C   UNL     1      -6.497   9.556  67.830  1.00  0.00    -0.058 A  
HETATM   17 CL   UNL     1      -6.037  12.115  68.551  1.00  0.00    -0.050 Cl 
HETATM   18  C   UNL     1      -7.325   8.457  67.575  1.00  0.00    -0.093 A  
ENDBRANCH  10  11
ENDBRANCH   9  10
TORSDOF 2
ENDMDL
MODEL      225
REMARK 921   NORMALIZED FREE ENERGY PREDICTED BY IDOCK:   -1.24 KCAL/MOL
REMARK 922        TOTAL FREE ENERGY PREDICTED BY IDOCK:   -1.68 KCAL/MOL
REMARK 923 INTER-LIGAND FREE ENERGY PREDICTED BY IDOCK:   -3.24 KCAL/MOL
REMARK 924 INTRA-LIGAND FREE ENERGY PREDICTED BY IDOCK:    1.56 KCAL/MOL
REMARK 927      BINDING AFFINITY PREDICTED BY RF-SCORE:    0.00 PKD
ROOT
HETATM    1  O   UNL     1      -9.167   8.226  70.204  1.00  0.00    -0.152 OA 
HETATM    2  C   UNL     1      -9.179   7.568  69.004  1.00  0.00    -0.146 A  
HETATM    3  H   UNL     1      -9.902   8.130  70.800  1.00  0.00     0.000 HD 
HETATM    4  C   UNL     1      -8.100   7.708  68.130  1.00  0.00    -0.124 A  
HETATM    5  C   UNL     1      -8.121   7.036  66.907  1.00  0.00    -0.116 A  
HETATM    6  C   UNL     1      -9.222   6.264  66.541  1.00  0.00    -0.169 A  
HETATM    7 CL   UNL     1      -6.776   7.159  65.844  1.00  0.00    -0.052 Cl 
HETATM    8  C   UNL     1     -10.308   6.143  67.409  1.00  0.00    -0.262 A  
HETATM    9  C   UNL     1     -10.271   6.755  68.669  1.00  0.00    -0.175 A  
ENDROOT
BRANCH   9  10
HETATM   10  O   UNL     1     -11.306   6.652  69.572  1.00  0.00    -0.323 OA 
BRANCH  10  11
HETATM   11  C   UNL     1     -11.133   5.951  70.750  1.00  0.00    -0.254 A  
HETATM   12  C   UNL     1     -10.424   4.743  70.690  1.00  0.00    -0.017 A  
HETATM   13  C   UNL     1     -10.271   3.947  71.832  1.00  0.00    -0.143 A  
HETATM   14 CL   UNL     1      -9.711   4.188  69.217  1.00  0.00    -0.253 Cl 
HETATM   15  C   UNL     1     -10.825   4.364  73.038  1.00  0.00    -0.212 A  
HETATM   16  C   UNL     1     -11.531   5.563  73.115  1.00  0.00    -0.219 A  
HETATM   17 CL   UNL     1     -10.660   3.379  74.440  1.00  0.00    -0.250 Cl 
HETATM   18  C   UNL     1     -11.703   6.345  71.968  1.00  0.00    -0.376 A  
ENDBRANCH  10  11
ENDBRANCH   9  10
TORSDOF 2
ENDMDL
MODEL      226
REMARK 921   NORMALIZED FREE ENERGY PREDICTED BY IDOCK:   -0.60 KCAL/MOL
REMARK 922        TOTAL FREE ENERGY PREDICTED BY IDOCK:   -0.97 KCAL/MOL
REMARK 923 INTER-LIGAND FREE ENERGY PREDICTED BY IDOCK:   -2.62 KCAL/MOL
REMARK 924 INTRA-LIGAND FREE ENERGY PREDICTED BY IDOCK:    1.65 KCAL/MOL
REMARK 927      BINDING AFFINITY PREDICTED BY RF-SCORE:    0.00 PKD
ROOT
HETATM    1  O   UNL     1      -8.466   7.510  70.291  1.00  0.00    -0.134 OA 
HETATM    2  C   UNL     1      -9.209   7.291  69.163  1.00  0.00    -0.139 A  
HETATM    3  H   UNL     1      -8.577   6.942  71.045  1.00  0.00     0.000 HD 
HETATM    4  C   UNL     1      -9.045   8.125  68.057  1.00  0.00    -0.134 A  
HETATM    5  C   UNL     1      -9.809   7.897  66.911  1.00  0.00    -0.239 A  
HETATM    6  C   UNL     1     -10.754   6.873  66.881  1.00  0.00    -0.386 A  
HETATM    7 CL   UNL     1      -9.580   8.886  65.523  1.00  0.00    -0.189 Cl 
HETATM    8  C   UNL     1     -10.930   6.055  67.997  1.00  0.00    -0.340 A  
HETATM    9  C   UNL     1     -10.121   6.228  69.128  1.00  0.00    -0.168 A  
ENDROOT
BRANCH   9  10
HETATM   10  O   UNL     1     -10.239   5.436  70.249  1.00  0.00    -0.224 OA 
BRANCH  10  11
HETATM   11  C   UNL     1      -9.153   5.247  71.084  1.00  0.00    -0.144 A  
HETATM   12  C   UNL     1      -8.184   4.315  70.689  1.00  0.00    -0.070 A  
HETATM   13  C   UNL     1      -7.094   4.023  71.518  1.00  0.00    -0.038 A  
HETATM   14 CL   UNL     1      -8.289   3.491  69.173  1.00  0.00    -0.075 Cl 
HETATM   15  C   UNL     1      -6.971   4.672  72.743  1.00  0.00    -0.075 A  
HETATM   16  C   UNL     1      -7.924   5.603  73.149  1.00  0.00    -0.111 A  
HETATM   17 CL   UNL     1      -5.646   4.301  73.777  1.00  0.00    -0.008 Cl 
HETATM   18  C   UNL     1      -9.025   5.875  72.330  1.00  0.00    -0.142 A  
ENDBRANCH  10  11
ENDBRANCH   9  10
TORSDOF 2
ENDMDL
MODEL      227
REMARK 921   NORMALIZED FREE ENERGY PREDICTED BY IDOCK:    0.88 KCAL/MOL
REMARK 922        TOTAL FREE ENERGY PREDICTED BY IDOCK:    0.68 KCAL/MOL
REMARK 923 INTER-LIGAND FREE ENERGY PREDICTED BY IDOCK:   -1.10 KCAL/MOL
REMARK 924 INTRA-LIGAND FREE ENERGY PREDICTED BY IDOCK:    1.78 KCAL/MOL
REMARK 927      BINDING AFFINITY PREDICTED BY RF-SCORE:    0.00 PKD
ROOT
HETATM    1  O   UNL     1      -5.521  12.040  66.287  1.00  0.00    -0.483 OA 
HETATM    2  C   UNL     1      -6.629  12.613  66.853  1.00  0.00     0.368 A  
HETATM    3  H   UNL     1      -5.524  11.112  66.084  1.00  0.00     0.000 HD 
HETATM    4  C   UNL     1      -6.624  13.975  67.151  1.00  0.00     0.566 A  
HETATM    5  C   UNL     1      -7.756  14.551  67.730  1.00  0.00    -0.156 A  
HETATM    6  C   UNL     1      -8.866  13.770  68.045  1.00  0.00    -0.182 A  
HETATM    7 CL   UNL     1      -7.783  16.239  68.054  1.00  0.00    -0.147 Cl 
HETATM    8  C   UNL     1      -8.859  12.403  67.765  1.00  0.00    -0.176 A  
HETATM    9  C   UNL     1      -7.757  11.825  67.120  1.00  0.00    -0.162 A  
ENDROOT
BRANCH   9  10
HETATM   10  O   UNL     1      -7.705  10.486  66.803  1.00  0.00    -0.110 OA 
BRANCH  10  11
HETATM   11  C   UNL     1      -7.602   9.538  67.803  1.00  0.00    -0.087 A  
HETATM   12  C   UNL     1      -6.596   9.713  68.764  1.00  0.00    -0.047 A  
HETATM   13  C   UNL     1      -6.390   8.756  69.765  1.00  0.00    -0.035 A  
HETATM   14 CL   UNL     1      -5.574  11.107  68.756  1.00  0.00    -0.040 Cl 
HETATM   15  C   UNL     1      -7.198   7.624  69.809  1.00  0.00    -0.079 A  
HETATM   16  C   UNL     1      -8.204   7.436  68.863  1.00  0.00    -0.129 A  
HETATM   17 CL   UNL     1      -6.936   6.433  71.023  1.00  0.00    -0.066 Cl 
HETATM   18  C   UNL     1      -8.393   8.382  67.849  1.00  0.00    -0.131 A  
ENDBRANCH  10  11
ENDBRANCH   9  10
TORSDOF 2
ENDMDL
MODEL      228
REMARK 921   NORMALIZED FREE ENERGY PREDICTED BY IDOCK:    4.79 KCAL/MOL
REMARK 922        TOTAL FREE ENERGY PREDICTED BY IDOCK:    5.05 KCAL/MOL
REMARK 923 INTER-LIGAND FREE ENERGY PREDICTED BY IDOCK:   -0.95 KCAL/MOL
REMARK 924 INTRA-LIGAND FREE ENERGY PREDICTED BY IDOCK:    6.00 KCAL/MOL
REMARK 927      BINDING AFFINITY PREDICTED BY RF-SCORE:    0.00 PKD
ROOT
HETATM    1  O   UNL     1      -9.899   7.148  69.753  1.00  0.00    -0.172 OA 
HETATM    2  C   UNL     1      -8.702   6.837  70.339  1.00  0.00    -0.151 A  
HETATM    3  H   UNL     1      -9.951   7.879  69.148  1.00  0.00     0.000 HD 
HETATM    4  C   UNL     1      -8.627   5.764  71.227  1.00  0.00    -0.129 A  
HETATM    5  C   UNL     1      -7.403   5.455  71.823  1.00  0.00    -0.090 A  
HETATM    6  C   UNL     1      -6.275   6.233  71.569  1.00  0.00    -0.041 A  
HETATM    7 CL   UNL     1      -7.286   4.103  72.879  1.00  0.00    -0.066 Cl 
HETATM    8  C   UNL     1      -6.359   7.319  70.697  1.00  0.00    -0.039 A  
HETATM    9  C   UNL     1      -7.563   7.597  70.037  1.00  0.00    -0.087 A  
ENDROOT
BRANCH   9  10
HETATM   10  O   UNL     1      -7.697   8.644  69.152  1.00  0.00    -0.093 OA 
BRANCH  10  11
HETATM   11  C   UNL     1      -7.238   9.903  69.491  1.00  0.00    -0.095 A  
HETATM   12  C   UNL     1      -6.128   9.984  70.342  1.00  0.00    -0.093 A  
HETATM   13  C   UNL     1      -5.651  11.225  70.781  1.00  0.00    -0.112 A  
HETATM   14 CL   UNL     1      -5.302   8.565  70.884  1.00  0.00    -0.028 Cl 
HETATM   15  C   UNL     1      -6.286  12.390  70.360  1.00  0.00     0.116 A  
HETATM   16  C   UNL     1      -7.389  12.328  69.512  1.00  0.00     0.417 A  
HETATM   17 CL   UNL     1      -5.720  13.918  70.914  1.00  0.00    -0.193 Cl 
HETATM   18  C   UNL     1      -7.877  11.085  69.094  1.00  0.00    -0.092 A  
ENDBRANCH  10  11
ENDBRANCH   9  10
TORSDOF 2
ENDMDL
MODEL      229
REMARK 921   NORMALIZED FREE ENERGY PREDICTED BY IDOCK:   13.86 KCAL/MOL
REMARK 922        TOTAL FREE ENERGY PREDICTED BY IDOCK:   15.18 KCAL/MOL
REMARK 923 INTER-LIGAND FREE ENERGY PREDICTED BY IDOCK:    9.45 KCAL/MOL
REMARK 924 INTRA-LIGAND FREE ENERGY PREDICTED BY IDOCK:    5.73 KCAL/MOL
REMARK 927      BINDING AFFINITY PREDICTED BY RF-SCORE:    0.00 PKD
ROOT
HETATM    1  O   UNL     1     -10.067  16.081  68.312  1.00  0.00    -0.223 OA 
HETATM    2  C   UNL     1     -10.722  14.923  68.636  1.00  0.00    -0.250 A  
HETATM    3  H   UNL     1      -9.228  16.038  67.867  1.00  0.00     0.000 HD 
HETATM    4  C   UNL     1     -11.953  14.987  69.289  1.00  0.00    -0.322 A  
HETATM    5  C   UNL     1     -12.613  13.802  69.619  1.00  0.00     0.029 A  
HETATM    6  C   UNL     1     -12.033  12.566  69.337  1.00  0.00    -0.315 A  
HETATM    7 CL   UNL     1     -14.154  13.867  70.377  1.00  0.00     1.379 Cl 
HETATM    8  C   UNL     1     -10.792  12.507  68.704  1.00  0.00    -0.280 A  
HETATM    9  C   UNL     1     -10.151  13.687  68.303  1.00  0.00    -0.240 A  
ENDROOT
BRANCH   9  10
HETATM   10  O   UNL     1      -8.935  13.686  67.657  1.00  0.00    -0.182 OA 
BRANCH  10  11
HETATM   11  C   UNL     1      -8.786  13.018  66.456  1.00  0.00     0.004 A  
HETATM   12  C   UNL     1      -9.813  12.148  66.064  1.00  0.00    -0.243 A  
HETATM   13  C   UNL     1      -9.699  11.388  64.894  1.00  0.00    -0.283 A  
HETATM   14 CL   UNL     1     -11.256  11.977  67.000  1.00  0.00    -0.353 Cl 
HETATM   15  C   UNL     1      -8.554  11.505  64.110  1.00  0.00     0.685 A  
HETATM   16  C   UNL     1      -7.526  12.367  64.484  1.00  0.00     5.849 A  
HETATM   17 CL   UNL     1      -8.397  10.557  62.683  1.00  0.00    -0.186 Cl 
HETATM   18  C   UNL     1      -7.632  13.107  65.666  1.00  0.00     4.384 A  
ENDBRANCH  10  11
ENDBRANCH   9  10
TORSDOF 2
ENDMDL
MODEL      230
REMARK 921   NORMALIZED FREE ENERGY PREDICTED BY IDOCK:   15.06 KCAL/MOL
REMARK 922        TOTAL FREE ENERGY PREDICTED BY IDOCK:   16.52 KCAL/MOL
REMARK 923 INTER-LIGAND FREE ENERGY PREDICTED BY IDOCK:    9.27 KCAL/MOL
REMARK 924 INTRA-LIGAND FREE ENERGY PREDICTED BY IDOCK:    7.25 KCAL/MOL
REMARK 927      BINDING AFFINITY PREDICTED BY RF-SCORE:    0.00 PKD
ROOT
HETATM    1  O   UNL     1     -10.012  16.219  68.399  1.00  0.00    -0.224 OA 
HETATM    2  C   UNL     1     -10.824  15.752  69.397  1.00  0.00    -0.269 A  
HETATM    3  H   UNL     1      -9.257  15.708  68.130  1.00  0.00     0.000 HD 
HETATM    4  C   UNL     1     -11.932  16.502  69.791  1.00  0.00     0.598 A  
HETATM    5  C   UNL     1     -12.754  16.021  70.812  1.00  0.00     0.114 A  
HETATM    6  C   UNL     1     -12.453  14.824  71.460  1.00  0.00    -0.403 A  
HETATM    7 CL   UNL     1     -14.152  16.910  71.271  1.00  0.00     6.337 Cl 
HETATM    8  C   UNL     1     -11.331  14.088  71.077  1.00  0.00     0.551 A  
HETATM    9  C   UNL     1     -10.537  14.523  70.007  1.00  0.00     0.158 A  
ENDROOT
BRANCH   9  10
HETATM   10  O   UNL     1      -9.431  13.825  69.576  1.00  0.00     0.574 OA 
BRANCH  10  11
HETATM   11  C   UNL     1      -9.494  12.454  69.415  1.00  0.00     1.120 A  
HETATM   12  C   UNL     1     -10.535  11.770  70.058  1.00  0.00     1.156 A  
HETATM   13  C   UNL     1     -10.620  10.374  69.995  1.00  0.00    -0.282 A  
HETATM   14 CL   UNL     1     -11.753  12.614  70.949  1.00  0.00     0.309 Cl 
HETATM   15  C   UNL     1      -9.661   9.660  69.281  1.00  0.00    -0.185 A  
HETATM   16  C   UNL     1      -8.621  10.325  68.634  1.00  0.00    -0.128 A  
HETATM   17 CL   UNL     1      -9.746   7.943  69.219  1.00  0.00    -0.157 Cl 
HETATM   18  C   UNL     1      -8.526  11.718  68.718  1.00  0.00     0.005 A  
ENDBRANCH  10  11
ENDBRANCH   9  10
TORSDOF 2
ENDMDL
