MODEL        1
REMARK 921   NORMALIZED FREE ENERGY PREDICTED BY IDOCK:   -6.60 KCAL/MOL
REMARK 922        TOTAL FREE ENERGY PREDICTED BY IDOCK:   -8.32 KCAL/MOL
REMARK 923 INTER-LIGAND FREE ENERGY PREDICTED BY IDOCK:   -7.76 KCAL/MOL
REMARK 924 INTRA-LIGAND FREE ENERGY PREDICTED BY IDOCK:   -0.56 KCAL/MOL
REMARK 927      BINDING AFFINITY PREDICTED BY RF-SCORE:    0.00 PKD
ROOT
HETATM    1  C   UNL     1     -12.436  15.560  74.135  1.00  0.00    -0.662 C  
HETATM    2  S   UNL     1     -13.523  15.518  72.695  1.00  0.00    -0.586 SA 
ENDROOT
BRANCH   2   3
HETATM    3  C   UNL     1     -13.252  13.924  72.105  1.00  0.00    -0.444 A  
HETATM    4  N   UNL     1     -13.678  12.778  72.586  1.00  0.00    -0.690 NA 
HETATM    5  C   UNL     1     -13.089  11.821  71.789  1.00  0.00    -0.375 A  
HETATM    6  H   UNL     1     -14.306  12.629  73.376  1.00  0.00     0.000 HD 
HETATM    7  C   UNL     1     -12.290  12.412  70.816  1.00  0.00    -0.286 A  
HETATM    8  C   UNL     1     -11.490  11.685  69.937  1.00  0.00    -0.308 A  
HETATM    9  N   UNL     1     -12.471  13.755  71.003  1.00  0.00    -0.367 NA 
HETATM   10  C   UNL     1     -11.480  10.288  70.085  1.00  0.00    -0.309 A  
HETATM   11  C   UNL     1     -12.371   9.645  70.957  1.00  0.00    -0.310 A  
HETATM   12 CL   UNL     1     -10.209   9.477  69.228  1.00  0.00    -0.195 Cl 
HETATM   13  C   UNL     1     -13.157  10.419  71.840  1.00  0.00    -0.563 A  
BRANCH  11  14
HETATM   14  O   UNL     1     -12.521   8.289  71.175  1.00  0.00    -0.275 OA 
BRANCH  14  15
HETATM   15  C   UNL     1     -11.592   7.520  71.846  1.00  0.00    -0.275 A  
HETATM   16  C   UNL     1     -11.148   7.782  73.145  1.00  0.00    -0.336 A  
HETATM   17  C   UNL     1     -10.310   6.875  73.798  1.00  0.00    -0.409 A  
HETATM   18  C   UNL     1      -9.837   5.749  73.124  1.00  0.00    -0.178 A  
HETATM   19  C   UNL     1     -10.168   5.550  71.784  1.00  0.00    -0.202 A  
HETATM   20  C   UNL     1     -11.043   6.434  71.136  1.00  0.00    -0.291 A  
HETATM   21 CL   UNL     1      -9.466   4.183  70.988  1.00  0.00    -0.219 Cl 
HETATM   22 CL   UNL     1     -11.445   6.218  69.460  1.00  0.00    -0.480 Cl 
ENDBRANCH  14  15
ENDBRANCH  11  14
ENDBRANCH   2   3
TORSDOF 3
ENDMDL
MODEL        2
REMARK 921   NORMALIZED FREE ENERGY PREDICTED BY IDOCK:   -6.38 KCAL/MOL
REMARK 922        TOTAL FREE ENERGY PREDICTED BY IDOCK:   -8.06 KCAL/MOL
REMARK 923 INTER-LIGAND FREE ENERGY PREDICTED BY IDOCK:   -7.50 KCAL/MOL
REMARK 924 INTRA-LIGAND FREE ENERGY PREDICTED BY IDOCK:   -0.57 KCAL/MOL
REMARK 927      BINDING AFFINITY PREDICTED BY RF-SCORE:    0.00 PKD
ROOT
HETATM    1  C   UNL     1     -12.385  15.247  73.863  1.00  0.00    -0.626 C  
HETATM    2  S   UNL     1     -13.308  14.221  72.700  1.00  0.00    -0.525 SA 
ENDROOT
BRANCH   2   3
HETATM    3  C   UNL     1     -12.562  14.639  71.206  1.00  0.00    -0.333 A  
HETATM    4  N   UNL     1     -12.060  15.791  70.823  1.00  0.00    -0.400 NA 
HETATM    5  C   UNL     1     -11.685  15.593  69.511  1.00  0.00    -0.370 A  
HETATM    6  H   UNL     1     -11.967  16.644  71.374  1.00  0.00     0.000 HD 
HETATM    7  C   UNL     1     -11.978  14.296  69.105  1.00  0.00    -0.335 A  
HETATM    8  C   UNL     1     -11.807  13.846  67.797  1.00  0.00    -0.415 A  
HETATM    9  N   UNL     1     -12.473  13.694  70.230  1.00  0.00    -0.299 NA 
HETATM   10  C   UNL     1     -11.346  14.780  66.853  1.00  0.00    -0.355 A  
HETATM   11  C   UNL     1     -10.910  16.054  67.247  1.00  0.00    -0.255 A  
HETATM   12 CL   UNL     1     -11.502  14.277  65.201  1.00  0.00    -0.337 Cl 
HETATM   13  C   UNL     1     -11.113  16.474  68.581  1.00  0.00    -0.329 A  
BRANCH  11  14
HETATM   14  O   UNL     1     -10.385  17.057  66.455  1.00  0.00    -0.309 OA 
BRANCH  14  15
HETATM   15  C   UNL     1      -9.084  17.504  66.559  1.00  0.00    -0.263 A  
HETATM   16  C   UNL     1      -7.959  16.696  66.366  1.00  0.00    -0.360 A  
HETATM   17  C   UNL     1      -6.682  17.260  66.353  1.00  0.00    -0.289 A  
HETATM   18  C   UNL     1      -6.514  18.618  66.624  1.00  0.00    -0.209 A  
HETATM   19  C   UNL     1      -7.619  19.405  66.948  1.00  0.00    -0.243 A  
HETATM   20  C   UNL     1      -8.908  18.854  66.921  1.00  0.00    -0.297 A  
HETATM   21 CL   UNL     1      -7.321  21.058  67.365  1.00  0.00    -0.388 Cl 
HETATM   22 CL   UNL     1     -10.294  19.811  67.348  1.00  0.00    -0.560 Cl 
ENDBRANCH  14  15
ENDBRANCH  11  14
ENDBRANCH   2   3
TORSDOF 3
ENDMDL
MODEL        3
REMARK 921   NORMALIZED FREE ENERGY PREDICTED BY IDOCK:   -6.37 KCAL/MOL
REMARK 922        TOTAL FREE ENERGY PREDICTED BY IDOCK:   -8.05 KCAL/MOL
REMARK 923 INTER-LIGAND FREE ENERGY PREDICTED BY IDOCK:   -7.55 KCAL/MOL
REMARK 924 INTRA-LIGAND FREE ENERGY PREDICTED BY IDOCK:   -0.50 KCAL/MOL
REMARK 927      BINDING AFFINITY PREDICTED BY RF-SCORE:    0.00 PKD
ROOT
HETATM    1  C   UNL     1     -12.797   7.497  71.621  1.00  0.00    -0.358 C  
HETATM    2  S   UNL     1     -13.608   8.950  72.320  1.00  0.00    -0.462 SA 
ENDROOT
BRANCH   2   3
HETATM    3  C   UNL     1     -13.036  10.197  71.281  1.00  0.00    -0.413 A  
HETATM    4  N   UNL     1     -12.446  10.097  70.111  1.00  0.00    -0.523 NA 
HETATM    5  C   UNL     1     -12.115  11.391  69.772  1.00  0.00    -0.320 A  
HETATM    6  H   UNL     1     -12.271   9.248  69.573  1.00  0.00     0.000 HD 
HETATM    7  C   UNL     1     -12.511  12.278  70.766  1.00  0.00    -0.265 A  
HETATM    8  C   UNL     1     -12.210  13.639  70.741  1.00  0.00    -0.424 A  
HETATM    9  N   UNL     1     -13.156  11.493  71.682  1.00  0.00    -0.439 NA 
HETATM   10  C   UNL     1     -11.437  14.106  69.665  1.00  0.00    -0.273 A  
HETATM   11  C   UNL     1     -11.135  13.275  68.575  1.00  0.00    -0.265 A  
HETATM   12 CL   UNL     1     -10.792  15.701  69.873  1.00  0.00    -0.293 Cl 
HETATM   13  C   UNL     1     -11.448  11.898  68.646  1.00  0.00    -0.350 A  
BRANCH  11  14
HETATM   14  O   UNL     1     -10.437  13.595  67.426  1.00  0.00    -0.249 OA 
BRANCH  14  15
HETATM   15  C   UNL     1     -10.928  13.381  66.155  1.00  0.00    -0.276 A  
HETATM   16  C   UNL     1     -12.061  14.013  65.634  1.00  0.00    -0.432 A  
HETATM   17  C   UNL     1     -12.407  13.842  64.292  1.00  0.00    -0.390 A  
HETATM   18  C   UNL     1     -11.678  12.967  63.487  1.00  0.00    -0.576 A  
HETATM   19  C   UNL     1     -10.626  12.231  64.034  1.00  0.00    -0.400 A  
HETATM   20  C   UNL     1     -10.248  12.429  65.369  1.00  0.00    -0.278 A  
HETATM   21 CL   UNL     1      -9.830  11.095  62.999  1.00  0.00    -0.361 Cl 
HETATM   22 CL   UNL     1      -8.959  11.503  66.076  1.00  0.00    -0.203 Cl 
ENDBRANCH  14  15
ENDBRANCH  11  14
ENDBRANCH   2   3
TORSDOF 3
ENDMDL
MODEL        4
REMARK 921   NORMALIZED FREE ENERGY PREDICTED BY IDOCK:   -6.36 KCAL/MOL
REMARK 922        TOTAL FREE ENERGY PREDICTED BY IDOCK:   -8.04 KCAL/MOL
REMARK 923 INTER-LIGAND FREE ENERGY PREDICTED BY IDOCK:   -7.54 KCAL/MOL
REMARK 924 INTRA-LIGAND FREE ENERGY PREDICTED BY IDOCK:   -0.50 KCAL/MOL
REMARK 927      BINDING AFFINITY PREDICTED BY RF-SCORE:    0.00 PKD
ROOT
HETATM    1  C   UNL     1     -10.804   9.904  70.183  1.00  0.00    -0.304 C  
HETATM    2  S   UNL     1     -12.007  11.247  70.279  1.00  0.00    -0.393 SA 
ENDROOT
BRANCH   2   3
HETATM    3  C   UNL     1     -11.420  12.321  69.069  1.00  0.00    -0.297 A  
HETATM    4  N   UNL     1     -10.445  13.198  69.140  1.00  0.00    -0.437 NA 
HETATM    5  C   UNL     1     -10.468  13.850  67.926  1.00  0.00    -0.242 A  
HETATM    6  H   UNL     1      -9.810  13.361  69.921  1.00  0.00     0.000 HD 
HETATM    7  C   UNL     1     -11.485  13.352  67.119  1.00  0.00    -0.339 A  
HETATM    8  C   UNL     1     -11.812  13.895  65.877  1.00  0.00    -0.399 A  
HETATM    9  N   UNL     1     -12.028  12.333  67.851  1.00  0.00    -0.480 NA 
HETATM   10  C   UNL     1     -11.085  15.023  65.459  1.00  0.00    -0.357 A  
HETATM   11  C   UNL     1      -9.965  15.471  66.176  1.00  0.00    -0.309 A  
HETATM   12 CL   UNL     1     -11.767  15.864  64.105  1.00  0.00    -0.236 Cl 
HETATM   13  C   UNL     1      -9.675  14.900  67.436  1.00  0.00    -0.217 A  
BRANCH  11  14
HETATM   14  O   UNL     1      -9.122  16.522  65.871  1.00  0.00    -0.460 OA 
BRANCH  14  15
HETATM   15  C   UNL     1      -9.309  17.806  66.339  1.00  0.00    -0.249 A  
HETATM   16  C   UNL     1     -10.546  18.325  66.733  1.00  0.00    -0.338 A  
HETATM   17  C   UNL     1     -10.624  19.587  67.324  1.00  0.00    -0.610 A  
HETATM   18  C   UNL     1      -9.479  20.376  67.442  1.00  0.00    -0.561 A  
HETATM   19  C   UNL     1      -8.264  19.920  66.932  1.00  0.00    -0.318 A  
HETATM   20  C   UNL     1      -8.172  18.636  66.375  1.00  0.00    -0.277 A  
HETATM   21 CL   UNL     1      -6.909  20.993  67.028  1.00  0.00    -0.403 Cl 
HETATM   22 CL   UNL     1      -6.674  18.061  65.709  1.00  0.00    -0.317 Cl 
ENDBRANCH  14  15
ENDBRANCH  11  14
ENDBRANCH   2   3
TORSDOF 3
ENDMDL
MODEL        5
REMARK 921   NORMALIZED FREE ENERGY PREDICTED BY IDOCK:   -6.36 KCAL/MOL
REMARK 922        TOTAL FREE ENERGY PREDICTED BY IDOCK:   -8.04 KCAL/MOL
REMARK 923 INTER-LIGAND FREE ENERGY PREDICTED BY IDOCK:   -7.39 KCAL/MOL
REMARK 924 INTRA-LIGAND FREE ENERGY PREDICTED BY IDOCK:   -0.65 KCAL/MOL
REMARK 927      BINDING AFFINITY PREDICTED BY RF-SCORE:    0.00 PKD
ROOT
HETATM    1  C   UNL     1     -10.498  19.776  65.992  1.00  0.00    -0.506 C  
HETATM    2  S   UNL     1      -9.176  18.623  66.418  1.00  0.00    -0.251 SA 
ENDROOT
BRANCH   2   3
HETATM    3  C   UNL     1     -10.015  17.120  66.406  1.00  0.00    -0.306 A  
HETATM    4  N   UNL     1     -10.168  16.246  67.376  1.00  0.00    -0.269 NA 
HETATM    5  C   UNL     1     -10.834  15.189  66.796  1.00  0.00    -0.322 A  
HETATM    6  H   UNL     1      -9.861  16.333  68.345  1.00  0.00     0.000 HD 
HETATM    7  C   UNL     1     -11.076  15.437  65.449  1.00  0.00    -0.326 A  
HETATM    8  C   UNL     1     -11.639  14.497  64.587  1.00  0.00    -0.413 A  
HETATM    9  N   UNL     1     -10.603  16.704  65.250  1.00  0.00    -0.633 NA 
HETATM   10  C   UNL     1     -11.934  13.232  65.122  1.00  0.00    -0.381 A  
HETATM   11  C   UNL     1     -11.835  12.986  66.500  1.00  0.00    -0.403 A  
HETATM   12 CL   UNL     1     -12.280  12.009  63.943  1.00  0.00    -0.553 Cl 
HETATM   13  C   UNL     1     -11.248  13.961  67.338  1.00  0.00    -0.330 A  
BRANCH  11  14
HETATM   14  O   UNL     1     -12.136  11.823  67.182  1.00  0.00    -0.592 OA 
BRANCH  14  15
HETATM   15  C   UNL     1     -11.187  10.894  67.556  1.00  0.00    -0.293 A  
HETATM   16  C   UNL     1     -10.348  10.225  66.660  1.00  0.00    -0.283 A  
HETATM   17  C   UNL     1      -9.322   9.406  67.135  1.00  0.00    -0.172 A  
HETATM   18  C   UNL     1      -9.187   9.177  68.505  1.00  0.00    -0.136 A  
HETATM   19  C   UNL     1     -10.102   9.735  69.398  1.00  0.00    -0.209 A  
HETATM   20  C   UNL     1     -11.108  10.592  68.930  1.00  0.00    -0.261 A  
HETATM   21 CL   UNL     1      -9.927   9.328  71.071  1.00  0.00    -0.362 Cl 
HETATM   22 CL   UNL     1     -12.274  11.275  70.023  1.00  0.00    -0.388 Cl 
ENDBRANCH  14  15
ENDBRANCH  11  14
ENDBRANCH   2   3
TORSDOF 3
ENDMDL
MODEL        6
REMARK 921   NORMALIZED FREE ENERGY PREDICTED BY IDOCK:   -6.35 KCAL/MOL
REMARK 922        TOTAL FREE ENERGY PREDICTED BY IDOCK:   -8.03 KCAL/MOL
REMARK 923 INTER-LIGAND FREE ENERGY PREDICTED BY IDOCK:   -7.63 KCAL/MOL
REMARK 924 INTRA-LIGAND FREE ENERGY PREDICTED BY IDOCK:   -0.40 KCAL/MOL
REMARK 927      BINDING AFFINITY PREDICTED BY RF-SCORE:    0.00 PKD
ROOT
HETATM    1  C   UNL     1     -13.146  11.002  71.820  1.00  0.00    -0.449 C  
HETATM    2  S   UNL     1     -11.890  10.248  70.766  1.00  0.00    -0.389 SA 
ENDROOT
BRANCH   2   3
HETATM    3  C   UNL     1     -11.598  11.505  69.627  1.00  0.00    -0.333 A  
HETATM    4  N   UNL     1     -11.227  12.747  69.839  1.00  0.00    -0.483 NA 
HETATM    5  C   UNL     1     -11.238  13.336  68.592  1.00  0.00    -0.274 A  
HETATM    6  H   UNL     1     -10.984  13.181  70.729  1.00  0.00     0.000 HD 
HETATM    7  C   UNL     1     -11.631  12.423  67.620  1.00  0.00    -0.357 A  
HETATM    8  C   UNL     1     -11.835  12.768  66.285  1.00  0.00    -0.485 A  
HETATM    9  N   UNL     1     -11.786  11.248  68.303  1.00  0.00    -0.578 NA 
HETATM   10  C   UNL     1     -11.663  14.118  65.938  1.00  0.00    -0.365 A  
HETATM   11  C   UNL     1     -11.135  15.041  66.854  1.00  0.00    -0.331 A  
HETATM   12 CL   UNL     1     -12.278  14.549  64.375  1.00  0.00    -0.507 Cl 
HETATM   13  C   UNL     1     -10.954  14.653  68.201  1.00  0.00    -0.269 A  
BRANCH  11  14
HETATM   14  O   UNL     1     -10.859  16.380  66.652  1.00  0.00    -0.229 OA 
BRANCH  14  15
HETATM   15  C   UNL     1      -9.582  16.903  66.676  1.00  0.00    -0.267 A  
HETATM   16  C   UNL     1      -8.423  16.154  66.456  1.00  0.00    -0.346 A  
HETATM   17  C   UNL     1      -7.182  16.789  66.361  1.00  0.00    -0.226 A  
HETATM   18  C   UNL     1      -7.082  18.163  66.579  1.00  0.00    -0.260 A  
HETATM   19  C   UNL     1      -8.215  18.897  66.930  1.00  0.00    -0.268 A  
HETATM   20  C   UNL     1      -9.469  18.273  66.985  1.00  0.00    -0.274 A  
HETATM   21 CL   UNL     1      -7.994  20.578  67.278  1.00  0.00    -0.374 Cl 
HETATM   22 CL   UNL     1     -10.886  19.164  67.448  1.00  0.00    -0.569 Cl 
ENDBRANCH  14  15
ENDBRANCH  11  14
ENDBRANCH   2   3
TORSDOF 3
ENDMDL
MODEL        7
REMARK 921   NORMALIZED FREE ENERGY PREDICTED BY IDOCK:   -6.34 KCAL/MOL
REMARK 922        TOTAL FREE ENERGY PREDICTED BY IDOCK:   -8.01 KCAL/MOL
REMARK 923 INTER-LIGAND FREE ENERGY PREDICTED BY IDOCK:   -7.59 KCAL/MOL
REMARK 924 INTRA-LIGAND FREE ENERGY PREDICTED BY IDOCK:   -0.42 KCAL/MOL
REMARK 927      BINDING AFFINITY PREDICTED BY RF-SCORE:    0.00 PKD
ROOT
HETATM    1  C   UNL     1     -12.415  16.436  73.953  1.00  0.00    -0.482 C  
HETATM    2  S   UNL     1     -13.418  15.351  72.918  1.00  0.00    -0.531 SA 
ENDROOT
BRANCH   2   3
HETATM    3  C   UNL     1     -12.528  15.361  71.444  1.00  0.00    -0.392 A  
HETATM    4  N   UNL     1     -11.670  16.252  71.000  1.00  0.00    -0.599 NA 
HETATM    5  C   UNL     1     -11.335  15.817  69.736  1.00  0.00    -0.339 A  
HETATM    6  H   UNL     1     -11.327  17.082  71.483  1.00  0.00     0.000 HD 
HETATM    7  C   UNL     1     -12.014  14.646  69.421  1.00  0.00    -0.313 A  
HETATM    8  C   UNL     1     -11.952  14.038  68.168  1.00  0.00    -0.382 A  
HETATM    9  N   UNL     1     -12.713  14.345  70.557  1.00  0.00    -0.352 NA 
HETATM   10  C   UNL     1     -11.185  14.681  67.181  1.00  0.00    -0.344 A  
HETATM   11  C   UNL     1     -10.376  15.784  67.495  1.00  0.00    -0.280 A  
HETATM   12 CL   UNL     1     -11.438  14.093  65.569  1.00  0.00    -0.317 Cl 
HETATM   13  C   UNL     1     -10.479  16.376  68.774  1.00  0.00    -0.300 A  
BRANCH  11  14
HETATM   14  O   UNL     1      -9.532  16.487  66.657  1.00  0.00    -0.233 OA 
BRANCH  14  15
HETATM   15  C   UNL     1      -9.452  17.865  66.643  1.00  0.00    -0.298 A  
HETATM   16  C   UNL     1     -10.455  18.704  66.148  1.00  0.00    -0.473 A  
HETATM   17  C   UNL     1     -10.351  20.088  66.299  1.00  0.00    -0.570 A  
HETATM   18  C   UNL     1      -9.203  20.647  66.860  1.00  0.00    -0.331 A  
HETATM   19  C   UNL     1      -8.140  19.824  67.235  1.00  0.00    -0.292 A  
HETATM   20  C   UNL     1      -8.256  18.431  67.126  1.00  0.00    -0.245 A  
HETATM   21 CL   UNL     1      -6.712  20.597  67.835  1.00  0.00    -0.345 Cl 
HETATM   22 CL   UNL     1      -6.934  17.392  67.561  1.00  0.00    -0.170 Cl 
ENDBRANCH  14  15
ENDBRANCH  11  14
ENDBRANCH   2   3
TORSDOF 3
ENDMDL
MODEL        8
REMARK 921   NORMALIZED FREE ENERGY PREDICTED BY IDOCK:   -6.31 KCAL/MOL
REMARK 922        TOTAL FREE ENERGY PREDICTED BY IDOCK:   -7.98 KCAL/MOL
REMARK 923 INTER-LIGAND FREE ENERGY PREDICTED BY IDOCK:   -7.43 KCAL/MOL
REMARK 924 INTRA-LIGAND FREE ENERGY PREDICTED BY IDOCK:   -0.55 KCAL/MOL
REMARK 927      BINDING AFFINITY PREDICTED BY RF-SCORE:    0.00 PKD
ROOT
HETATM    1  C   UNL     1      -9.872  10.276  64.480  1.00  0.00    -0.315 C  
HETATM    2  S   UNL     1     -10.375  11.588  63.347  1.00  0.00    -0.418 SA 
ENDROOT
BRANCH   2   3
HETATM    3  C   UNL     1     -10.625  12.901  64.432  1.00  0.00    -0.396 A  
HETATM    4  N   UNL     1     -10.107  14.108  64.407  1.00  0.00    -0.663 NA 
HETATM    5  C   UNL     1     -10.567  14.713  65.556  1.00  0.00    -0.355 A  
HETATM    6  H   UNL     1      -9.499  14.510  63.693  1.00  0.00     0.000 HD 
HETATM    7  C   UNL     1     -11.370  13.842  66.284  1.00  0.00    -0.321 A  
HETATM    8  C   UNL     1     -11.886  14.147  67.542  1.00  0.00    -0.437 A  
HETATM    9  N   UNL     1     -11.442  12.720  65.505  1.00  0.00    -0.322 NA 
HETATM   10  C   UNL     1     -11.533  15.389  68.096  1.00  0.00    -0.343 A  
HETATM   11  C   UNL     1     -10.841  16.350  67.341  1.00  0.00    -0.219 A  
HETATM   12 CL   UNL     1     -11.890  15.559  69.784  1.00  0.00    -0.351 Cl 
HETATM   13  C   UNL     1     -10.326  15.995  66.074  1.00  0.00    -0.366 A  
BRANCH  11  14
HETATM   14  O   UNL     1     -10.470  17.625  67.720  1.00  0.00    -0.351 OA 
BRANCH  14  15
HETATM   15  C   UNL     1      -9.165  17.989  67.984  1.00  0.00    -0.272 A  
HETATM   16  C   UNL     1      -8.255  17.192  68.685  1.00  0.00    -0.255 A  
HETATM   17  C   UNL     1      -6.917  17.577  68.788  1.00  0.00    -0.237 A  
HETATM   18  C   UNL     1      -6.500  18.803  68.270  1.00  0.00    -0.235 A  
HETATM   19  C   UNL     1      -7.429  19.664  67.685  1.00  0.00    -0.269 A  
HETATM   20  C   UNL     1      -8.766  19.265  67.542  1.00  0.00    -0.299 A  
HETATM   21 CL   UNL     1      -6.855  21.208  67.153  1.00  0.00    -0.418 Cl 
HETATM   22 CL   UNL     1      -9.943  20.334  66.842  1.00  0.00    -0.590 Cl 
ENDBRANCH  14  15
ENDBRANCH  11  14
ENDBRANCH   2   3
TORSDOF 3
ENDMDL
MODEL        9
REMARK 921   NORMALIZED FREE ENERGY PREDICTED BY IDOCK:   -6.31 KCAL/MOL
REMARK 922        TOTAL FREE ENERGY PREDICTED BY IDOCK:   -7.98 KCAL/MOL
REMARK 923 INTER-LIGAND FREE ENERGY PREDICTED BY IDOCK:   -7.46 KCAL/MOL
REMARK 924 INTRA-LIGAND FREE ENERGY PREDICTED BY IDOCK:   -0.51 KCAL/MOL
REMARK 927      BINDING AFFINITY PREDICTED BY RF-SCORE:    0.00 PKD
ROOT
HETATM    1  C   UNL     1     -10.654  12.098  63.664  1.00  0.00    -0.461 C  
HETATM    2  S   UNL     1     -12.068  13.047  64.264  1.00  0.00    -0.428 SA 
ENDROOT
BRANCH   2   3
HETATM    3  C   UNL     1     -11.938  12.819  65.965  1.00  0.00    -0.432 A  
HETATM    4  N   UNL     1     -11.692  11.718  66.638  1.00  0.00    -0.554 NA 
HETATM    5  C   UNL     1     -11.798  12.084  67.963  1.00  0.00    -0.269 A  
HETATM    6  H   UNL     1     -11.471  10.795  66.264  1.00  0.00     0.000 HD 
HETATM    7  C   UNL     1     -12.121  13.431  68.077  1.00  0.00    -0.248 A  
HETATM    8  C   UNL     1     -12.396  14.051  69.295  1.00  0.00    -0.210 A  
HETATM    9  N   UNL     1     -12.136  13.886  66.788  1.00  0.00    -0.439 NA 
HETATM   10  C   UNL     1     -12.374  13.244  70.445  1.00  0.00    -0.295 A  
HETATM   11  C   UNL     1     -11.920  11.917  70.391  1.00  0.00    -0.311 A  
HETATM   12 CL   UNL     1     -13.073  13.971  71.855  1.00  0.00    -0.440 Cl 
HETATM   13  C   UNL     1     -11.663  11.323  69.135  1.00  0.00    -0.410 A  
BRANCH  11  14
HETATM   14  O   UNL     1     -11.789  11.018  71.432  1.00  0.00    -0.083 OA 
BRANCH  14  15
HETATM   15  C   UNL     1     -12.399   9.781  71.448  1.00  0.00    -0.388 A  
HETATM   16  C   UNL     1     -13.775   9.586  71.600  1.00  0.00    -0.365 A  
HETATM   17  C   UNL     1     -14.324   8.309  71.465  1.00  0.00    -0.525 A  
HETATM   18  C   UNL     1     -13.491   7.207  71.271  1.00  0.00    -0.309 A  
HETATM   19  C   UNL     1     -12.106   7.375  71.250  1.00  0.00    -0.328 A  
HETATM   20  C   UNL     1     -11.552   8.660  71.343  1.00  0.00    -0.293 A  
HETATM   21 CL   UNL     1     -11.136   5.950  71.101  1.00  0.00    -0.329 Cl 
HETATM   22 CL   UNL     1      -9.830   8.887  71.347  1.00  0.00    -0.349 Cl 
ENDBRANCH  14  15
ENDBRANCH  11  14
ENDBRANCH   2   3
TORSDOF 3
ENDMDL
MODEL       10
REMARK 921   NORMALIZED FREE ENERGY PREDICTED BY IDOCK:   -6.24 KCAL/MOL
REMARK 922        TOTAL FREE ENERGY PREDICTED BY IDOCK:   -7.90 KCAL/MOL
REMARK 923 INTER-LIGAND FREE ENERGY PREDICTED BY IDOCK:   -7.32 KCAL/MOL
REMARK 924 INTRA-LIGAND FREE ENERGY PREDICTED BY IDOCK:   -0.57 KCAL/MOL
REMARK 927      BINDING AFFINITY PREDICTED BY RF-SCORE:    0.00 PKD
ROOT
HETATM    1  C   UNL     1     -12.399  15.311  73.934  1.00  0.00    -0.626 C  
HETATM    2  S   UNL     1     -13.699  15.126  72.696  1.00  0.00    -0.473 SA 
ENDROOT
BRANCH   2   3
HETATM    3  C   UNL     1     -12.820  15.369  71.236  1.00  0.00    -0.452 A  
HETATM    4  N   UNL     1     -13.029  14.853  70.046  1.00  0.00    -0.603 NA 
HETATM    5  C   UNL     1     -11.979  15.305  69.276  1.00  0.00    -0.299 A  
HETATM    6  H   UNL     1     -13.800  14.251  69.755  1.00  0.00     0.000 HD 
HETATM    7  C   UNL     1     -11.124  16.102  70.029  1.00  0.00    -0.363 A  
HETATM    8  C   UNL     1      -9.921  16.608  69.540  1.00  0.00    -0.091 A  
HETATM    9  N   UNL     1     -11.725  16.178  71.255  1.00  0.00    -0.446 NA 
HETATM   10  C   UNL     1      -9.561  16.252  68.229  1.00  0.00    -0.218 A  
HETATM   11  C   UNL     1     -10.456  15.568  67.392  1.00  0.00    -0.281 A  
HETATM   12 CL   UNL     1      -7.914  16.597  67.810  1.00  0.00    -0.176 Cl 
HETATM   13  C   UNL     1     -11.660  15.062  67.931  1.00  0.00    -0.350 A  
BRANCH  11  14
HETATM   14  O   UNL     1     -10.275  15.195  66.074  1.00  0.00    -0.272 OA 
BRANCH  14  15
HETATM   15  C   UNL     1     -10.312  13.885  65.644  1.00  0.00    -0.325 A  
HETATM   16  C   UNL     1      -9.393  12.905  66.031  1.00  0.00    -0.036 A  
HETATM   17  C   UNL     1      -9.585  11.573  65.659  1.00  0.00    -0.256 A  
HETATM   18  C   UNL     1     -10.645  11.227  64.821  1.00  0.00    -0.376 A  
HETATM   19  C   UNL     1     -11.490  12.219  64.321  1.00  0.00    -0.362 A  
HETATM   20  C   UNL     1     -11.327  13.551  64.726  1.00  0.00    -0.347 A  
HETATM   21 CL   UNL     1     -12.723  11.725  63.212  1.00  0.00    -0.553 Cl 
HETATM   22 CL   UNL     1     -12.352  14.804  64.094  1.00  0.00    -0.420 Cl 
ENDBRANCH  14  15
ENDBRANCH  11  14
ENDBRANCH   2   3
TORSDOF 3
ENDMDL
MODEL       11
REMARK 921   NORMALIZED FREE ENERGY PREDICTED BY IDOCK:   -6.22 KCAL/MOL
REMARK 922        TOTAL FREE ENERGY PREDICTED BY IDOCK:   -7.88 KCAL/MOL
REMARK 923 INTER-LIGAND FREE ENERGY PREDICTED BY IDOCK:   -7.42 KCAL/MOL
REMARK 924 INTRA-LIGAND FREE ENERGY PREDICTED BY IDOCK:   -0.45 KCAL/MOL
REMARK 927      BINDING AFFINITY PREDICTED BY RF-SCORE:    0.00 PKD
ROOT
HETATM    1  C   UNL     1      -9.886  19.168  68.688  1.00  0.00    -0.420 C  
HETATM    2  S   UNL     1     -10.406  18.113  67.320  1.00  0.00    -0.391 SA 
ENDROOT
BRANCH   2   3
HETATM    3  C   UNL     1     -10.767  16.642  68.137  1.00  0.00    -0.349 A  
HETATM    4  N   UNL     1     -10.768  15.413  67.673  1.00  0.00    -0.285 NA 
HETATM    5  C   UNL     1     -11.223  14.641  68.720  1.00  0.00    -0.267 A  
HETATM    6  H   UNL     1     -10.492  15.099  66.742  1.00  0.00     0.000 HD 
HETATM    7  C   UNL     1     -11.505  15.431  69.829  1.00  0.00    -0.324 A  
HETATM    8  C   UNL     1     -12.081  14.933  70.996  1.00  0.00    -0.380 A  
HETATM    9  N   UNL     1     -11.138  16.692  69.446  1.00  0.00    -0.247 NA 
HETATM   10  C   UNL     1     -12.416  13.569  71.015  1.00  0.00    -0.369 A  
HETATM   11  C   UNL     1     -12.025  12.711  69.975  1.00  0.00    -0.306 A  
HETATM   12 CL   UNL     1     -13.448  13.093  72.324  1.00  0.00    -0.659 Cl 
HETATM   13  C   UNL     1     -11.453  13.259  68.804  1.00  0.00    -0.346 A  
BRANCH  11  14
HETATM   14  O   UNL     1     -12.229  11.349  69.871  1.00  0.00    -0.298 OA 
BRANCH  14  15
HETATM   15  C   UNL     1     -11.303  10.409  70.275  1.00  0.00    -0.328 A  
HETATM   16  C   UNL     1     -10.048  10.240  69.683  1.00  0.00    -0.257 A  
HETATM   17  C   UNL     1      -9.119   9.360  70.242  1.00  0.00    -0.283 A  
HETATM   18  C   UNL     1      -9.472   8.576  71.341  1.00  0.00    -0.279 A  
HETATM   19  C   UNL     1     -10.767   8.643  71.857  1.00  0.00    -0.344 A  
HETATM   20  C   UNL     1     -11.690   9.555  71.326  1.00  0.00    -0.370 A  
HETATM   21 CL   UNL     1     -11.159   7.572  73.159  1.00  0.00    -0.424 Cl 
HETATM   22 CL   UNL     1     -13.315   9.633  71.936  1.00  0.00    -0.496 Cl 
ENDBRANCH  14  15
ENDBRANCH  11  14
ENDBRANCH   2   3
TORSDOF 3
ENDMDL
MODEL       12
REMARK 921   NORMALIZED FREE ENERGY PREDICTED BY IDOCK:   -6.22 KCAL/MOL
REMARK 922        TOTAL FREE ENERGY PREDICTED BY IDOCK:   -7.87 KCAL/MOL
REMARK 923 INTER-LIGAND FREE ENERGY PREDICTED BY IDOCK:   -7.67 KCAL/MOL
REMARK 924 INTRA-LIGAND FREE ENERGY PREDICTED BY IDOCK:   -0.20 KCAL/MOL
REMARK 927      BINDING AFFINITY PREDICTED BY RF-SCORE:    0.00 PKD
ROOT
HETATM    1  C   UNL     1      -7.932  19.949  66.506  1.00  0.00    -0.321 C  
HETATM    2  S   UNL     1      -9.709  19.934  66.192  1.00  0.00    -0.387 SA 
ENDROOT
BRANCH   2   3
HETATM    3  C   UNL     1     -10.128  18.332  66.665  1.00  0.00    -0.375 A  
HETATM    4  N   UNL     1     -10.411  17.292  65.914  1.00  0.00    -0.524 NA 
HETATM    5  C   UNL     1     -10.767  16.301  66.803  1.00  0.00    -0.204 A  
HETATM    6  H   UNL     1     -10.374  17.231  64.896  1.00  0.00     0.000 HD 
HETATM    7  C   UNL     1     -10.701  16.767  68.111  1.00  0.00    -0.361 A  
HETATM    8  C   UNL     1     -11.109  16.015  69.212  1.00  0.00    -0.331 A  
HETATM    9  N   UNL     1     -10.225  18.043  67.992  1.00  0.00    -0.363 NA 
HETATM   10  C   UNL     1     -11.643  14.740  68.956  1.00  0.00    -0.297 A  
HETATM   11  C   UNL     1     -11.600  14.181  67.670  1.00  0.00    -0.365 A  
HETATM   12 CL   UNL     1     -12.460  14.013  70.301  1.00  0.00    -0.410 Cl 
HETATM   13  C   UNL     1     -11.190  14.981  66.580  1.00  0.00    -0.312 A  
BRANCH  11  14
HETATM   14  O   UNL     1     -12.030  12.931  67.269  1.00  0.00    -0.372 OA 
BRANCH  14  15
HETATM   15  C   UNL     1     -11.820  12.426  66.002  1.00  0.00    -0.395 A  
HETATM   16  C   UNL     1     -12.644  12.692  64.905  1.00  0.00    -0.525 A  
HETATM   17  C   UNL     1     -12.282  12.253  63.630  1.00  0.00    -0.665 A  
HETATM   18  C   UNL     1     -11.142  11.467  63.459  1.00  0.00    -0.373 A  
HETATM   19  C   UNL     1     -10.386  11.086  64.567  1.00  0.00    -0.354 A  
HETATM   20  C   UNL     1     -10.721  11.558  65.844  1.00  0.00    -0.272 A  
HETATM   21 CL   UNL     1      -9.042  10.032  64.287  1.00  0.00    -0.269 Cl 
HETATM   22 CL   UNL     1      -9.809  11.072  67.240  1.00  0.00    -0.198 Cl 
ENDBRANCH  14  15
ENDBRANCH  11  14
ENDBRANCH   2   3
TORSDOF 3
ENDMDL
MODEL       13
REMARK 921   NORMALIZED FREE ENERGY PREDICTED BY IDOCK:   -6.20 KCAL/MOL
REMARK 922        TOTAL FREE ENERGY PREDICTED BY IDOCK:   -7.85 KCAL/MOL
REMARK 923 INTER-LIGAND FREE ENERGY PREDICTED BY IDOCK:   -7.62 KCAL/MOL
REMARK 924 INTRA-LIGAND FREE ENERGY PREDICTED BY IDOCK:   -0.22 KCAL/MOL
REMARK 927      BINDING AFFINITY PREDICTED BY RF-SCORE:    0.00 PKD
ROOT
HETATM    1  C   UNL     1     -12.683   7.367  71.634  1.00  0.00    -0.365 C  
HETATM    2  S   UNL     1     -13.508   8.753  72.444  1.00  0.00    -0.374 SA 
ENDROOT
BRANCH   2   3
HETATM    3  C   UNL     1     -13.048  10.066  71.430  1.00  0.00    -0.417 A  
HETATM    4  N   UNL     1     -12.515  10.041  70.230  1.00  0.00    -0.512 NA 
HETATM    5  C   UNL     1     -12.263  11.361  69.929  1.00  0.00    -0.277 A  
HETATM    6  H   UNL     1     -12.329   9.223  69.649  1.00  0.00     0.000 HD 
HETATM    7  C   UNL     1     -12.649  12.189  70.977  1.00  0.00    -0.263 A  
HETATM    8  C   UNL     1     -12.414  13.563  70.994  1.00  0.00    -0.451 A  
HETATM    9  N   UNL     1     -13.208  11.338  71.890  1.00  0.00    -0.461 NA 
HETATM   10  C   UNL     1     -11.719  14.108  69.901  1.00  0.00    -0.309 A  
HETATM   11  C   UNL     1     -11.435  13.336  68.764  1.00  0.00    -0.306 A  
HETATM   12 CL   UNL     1     -11.140  15.724  70.143  1.00  0.00    -0.325 Cl 
HETATM   13  C   UNL     1     -11.679  11.944  68.793  1.00  0.00    -0.379 A  
BRANCH  11  14
HETATM   14  O   UNL     1     -10.812  13.735  67.597  1.00  0.00    -0.250 OA 
BRANCH  14  15
HETATM   15  C   UNL     1     -10.584  12.889  66.531  1.00  0.00    -0.259 A  
HETATM   16  C   UNL     1      -9.444  12.093  66.391  1.00  0.00    -0.238 A  
HETATM   17  C   UNL     1      -9.358  11.164  65.352  1.00  0.00    -0.243 A  
HETATM   18  C   UNL     1     -10.369  11.089  64.394  1.00  0.00    -0.424 A  
HETATM   19  C   UNL     1     -11.449  11.972  64.452  1.00  0.00    -0.343 A  
HETATM   20  C   UNL     1     -11.561  12.878  65.516  1.00  0.00    -0.358 A  
HETATM   21 CL   UNL     1     -12.615  11.883  63.176  1.00  0.00    -0.545 Cl 
HETATM   22 CL   UNL     1     -12.883  14.003  65.590  1.00  0.00    -0.528 Cl 
ENDBRANCH  14  15
ENDBRANCH  11  14
ENDBRANCH   2   3
TORSDOF 3
ENDMDL
MODEL       14
REMARK 921   NORMALIZED FREE ENERGY PREDICTED BY IDOCK:   -6.17 KCAL/MOL
REMARK 922        TOTAL FREE ENERGY PREDICTED BY IDOCK:   -7.82 KCAL/MOL
REMARK 923 INTER-LIGAND FREE ENERGY PREDICTED BY IDOCK:   -7.41 KCAL/MOL
REMARK 924 INTRA-LIGAND FREE ENERGY PREDICTED BY IDOCK:   -0.41 KCAL/MOL
REMARK 927      BINDING AFFINITY PREDICTED BY RF-SCORE:    0.00 PKD
ROOT
HETATM    1  C   UNL     1      -9.579  10.233  64.234  1.00  0.00    -0.313 C  
HETATM    2  S   UNL     1     -10.442  11.607  63.443  1.00  0.00    -0.419 SA 
ENDROOT
BRANCH   2   3
HETATM    3  C   UNL     1     -10.564  12.729  64.742  1.00  0.00    -0.327 A  
HETATM    4  N   UNL     1      -9.847  13.804  64.982  1.00  0.00    -0.604 NA 
HETATM    5  C   UNL     1     -10.303  14.269  66.196  1.00  0.00    -0.299 A  
HETATM    6  H   UNL     1      -9.113  14.205  64.398  1.00  0.00     0.000 HD 
HETATM    7  C   UNL     1     -11.310  13.448  66.691  1.00  0.00    -0.323 A  
HETATM    8  C   UNL     1     -11.883  13.615  67.951  1.00  0.00    -0.402 A  
HETATM    9  N   UNL     1     -11.499  12.516  65.709  1.00  0.00    -0.346 NA 
HETATM   10  C   UNL     1     -11.376  14.651  68.754  1.00  0.00    -0.281 A  
HETATM   11  C   UNL     1     -10.461  15.584  68.242  1.00  0.00    -0.242 A  
HETATM   12 CL   UNL     1     -11.858  14.581  70.418  1.00  0.00    -0.355 Cl 
HETATM   13  C   UNL     1      -9.895  15.370  66.965  1.00  0.00    -0.236 A  
BRANCH  11  14
HETATM   14  O   UNL     1      -9.913  16.679  68.881  1.00  0.00    -0.246 OA 
BRANCH  14  15
HETATM   15  C   UNL     1      -9.754  17.910  68.277  1.00  0.00    -0.327 A  
HETATM   16  C   UNL     1     -10.773  18.593  67.607  1.00  0.00    -0.428 A  
HETATM   17  C   UNL     1     -10.562  19.893  67.145  1.00  0.00    -0.527 A  
HETATM   18  C   UNL     1      -9.304  20.484  67.267  1.00  0.00    -0.526 A  
HETATM   19  C   UNL     1      -8.245  19.760  67.815  1.00  0.00    -0.305 A  
HETATM   20  C   UNL     1      -8.462  18.469  68.319  1.00  0.00    -0.318 A  
HETATM   21 CL   UNL     1      -6.693  20.524  67.845  1.00  0.00    -0.333 Cl 
HETATM   22 CL   UNL     1      -7.150  17.541  68.979  1.00  0.00    -0.251 Cl 
ENDBRANCH  14  15
ENDBRANCH  11  14
ENDBRANCH   2   3
TORSDOF 3
ENDMDL
MODEL       15
REMARK 921   NORMALIZED FREE ENERGY PREDICTED BY IDOCK:   -6.15 KCAL/MOL
REMARK 922        TOTAL FREE ENERGY PREDICTED BY IDOCK:   -7.79 KCAL/MOL
REMARK 923 INTER-LIGAND FREE ENERGY PREDICTED BY IDOCK:   -7.45 KCAL/MOL
REMARK 924 INTRA-LIGAND FREE ENERGY PREDICTED BY IDOCK:   -0.34 KCAL/MOL
REMARK 927      BINDING AFFINITY PREDICTED BY RF-SCORE:    0.00 PKD
ROOT
HETATM    1  C   UNL     1     -11.662  13.193  63.824  1.00  0.00    -0.461 C  
HETATM    2  S   UNL     1     -11.040  14.396  65.017  1.00  0.00    -0.403 SA 
ENDROOT
BRANCH   2   3
HETATM    3  C   UNL     1     -11.312  13.576  66.506  1.00  0.00    -0.319 A  
HETATM    4  N   UNL     1     -11.468  12.290  66.729  1.00  0.00    -0.345 NA 
HETATM    5  C   UNL     1     -11.751  12.198  68.074  1.00  0.00    -0.344 A  
HETATM    6  H   UNL     1     -11.396  11.529  66.054  1.00  0.00     0.000 HD 
HETATM    7  C   UNL     1     -11.769  13.458  68.662  1.00  0.00    -0.349 A  
HETATM    8  C   UNL     1     -12.133  13.678  69.989  1.00  0.00    -0.417 A  
HETATM    9  N   UNL     1     -11.418  14.307  67.649  1.00  0.00    -0.327 NA 
HETATM   10  C   UNL     1     -12.530  12.558  70.740  1.00  0.00    -0.268 A  
HETATM   11  C   UNL     1     -12.394  11.257  70.229  1.00  0.00    -0.307 A  
HETATM   12 CL   UNL     1     -13.311  12.931  72.242  1.00  0.00    -0.635 Cl 
HETATM   13  C   UNL     1     -12.034  11.079  68.874  1.00  0.00    -0.332 A  
BRANCH  11  14
HETATM   14  O   UNL     1     -12.687  10.061  70.855  1.00  0.00    -0.329 OA 
BRANCH  14  15
HETATM   15  C   UNL     1     -11.722   9.178  71.293  1.00  0.00    -0.326 A  
HETATM   16  C   UNL     1     -10.351   9.453  71.300  1.00  0.00    -0.363 A  
HETATM   17  C   UNL     1      -9.457   8.556  71.889  1.00  0.00    -0.350 A  
HETATM   18  C   UNL     1      -9.916   7.339  72.392  1.00  0.00    -0.208 A  
HETATM   19  C   UNL     1     -11.263   6.999  72.270  1.00  0.00    -0.263 A  
HETATM   20  C   UNL     1     -12.173   7.912  71.718  1.00  0.00    -0.310 A  
HETATM   21 CL   UNL     1     -11.740   5.433  72.831  1.00  0.00    -0.312 Cl 
HETATM   22 CL   UNL     1     -13.849   7.497  71.532  1.00  0.00    -0.483 Cl 
ENDBRANCH  14  15
ENDBRANCH  11  14
ENDBRANCH   2   3
TORSDOF 3
ENDMDL
MODEL       16
REMARK 921   NORMALIZED FREE ENERGY PREDICTED BY IDOCK:   -6.13 KCAL/MOL
REMARK 922        TOTAL FREE ENERGY PREDICTED BY IDOCK:   -7.77 KCAL/MOL
REMARK 923 INTER-LIGAND FREE ENERGY PREDICTED BY IDOCK:   -7.24 KCAL/MOL
REMARK 924 INTRA-LIGAND FREE ENERGY PREDICTED BY IDOCK:   -0.53 KCAL/MOL
REMARK 927      BINDING AFFINITY PREDICTED BY RF-SCORE:    0.00 PKD
ROOT
HETATM    1  C   UNL     1      -8.176  20.055  66.795  1.00  0.00    -0.318 C  
HETATM    2  S   UNL     1      -9.897  19.951  66.262  1.00  0.00    -0.464 SA 
ENDROOT
BRANCH   2   3
HETATM    3  C   UNL     1     -10.215  18.271  66.452  1.00  0.00    -0.403 A  
HETATM    4  N   UNL     1     -10.502  17.371  65.538  1.00  0.00    -0.638 NA 
HETATM    5  C   UNL     1     -10.757  16.217  66.246  1.00  0.00    -0.185 A  
HETATM    6  H   UNL     1     -10.530  17.499  64.526  1.00  0.00     0.000 HD 
HETATM    7  C   UNL     1     -10.625  16.438  67.612  1.00  0.00    -0.313 A  
HETATM    8  C   UNL     1     -10.928  15.477  68.576  1.00  0.00    -0.288 A  
HETATM    9  N   UNL     1     -10.212  17.739  67.705  1.00  0.00    -0.344 NA 
HETATM   10  C   UNL     1     -11.422  14.244  68.118  1.00  0.00    -0.308 A  
HETATM   11  C   UNL     1     -11.440  13.932  66.750  1.00  0.00    -0.352 A  
HETATM   12 CL   UNL     1     -12.118  13.241  69.349  1.00  0.00    -0.333 Cl 
HETATM   13  C   UNL     1     -11.137  14.940  65.806  1.00  0.00    -0.342 A  
BRANCH  11  14
HETATM   14  O   UNL     1     -11.843  12.755  66.150  1.00  0.00    -0.388 OA 
BRANCH  14  15
HETATM   15  C   UNL     1     -11.004  11.676  65.957  1.00  0.00    -0.286 A  
HETATM   16  C   UNL     1     -10.506  10.875  66.988  1.00  0.00    -0.291 A  
HETATM   17  C   UNL     1      -9.776   9.722  66.693  1.00  0.00    -0.257 A  
HETATM   18  C   UNL     1      -9.462   9.412  65.370  1.00  0.00    -0.322 A  
HETATM   19  C   UNL     1      -9.842  10.277  64.343  1.00  0.00    -0.305 A  
HETATM   20  C   UNL     1     -10.611  11.414  64.629  1.00  0.00    -0.318 A  
HETATM   21 CL   UNL     1      -9.334   9.875  62.738  1.00  0.00    -0.294 Cl 
HETATM   22 CL   UNL     1     -11.071  12.517  63.368  1.00  0.00    -0.488 Cl 
ENDBRANCH  14  15
ENDBRANCH  11  14
ENDBRANCH   2   3
TORSDOF 3
ENDMDL
MODEL       17
REMARK 921   NORMALIZED FREE ENERGY PREDICTED BY IDOCK:   -6.07 KCAL/MOL
REMARK 922        TOTAL FREE ENERGY PREDICTED BY IDOCK:   -7.70 KCAL/MOL
REMARK 923 INTER-LIGAND FREE ENERGY PREDICTED BY IDOCK:   -7.70 KCAL/MOL
REMARK 924 INTRA-LIGAND FREE ENERGY PREDICTED BY IDOCK:   -0.00 KCAL/MOL
REMARK 927      BINDING AFFINITY PREDICTED BY RF-SCORE:    0.00 PKD
ROOT
HETATM    1  C   UNL     1     -13.006  15.505  73.451  1.00  0.00    -0.551 C  
HETATM    2  S   UNL     1     -13.537  14.181  72.345  1.00  0.00    -0.563 SA 
ENDROOT
BRANCH   2   3
HETATM    3  C   UNL     1     -12.783  14.643  70.869  1.00  0.00    -0.348 A  
HETATM    4  N   UNL     1     -12.675  13.970  69.746  1.00  0.00    -0.358 NA 
HETATM    5  C   UNL     1     -11.897  14.765  68.932  1.00  0.00    -0.296 A  
HETATM    6  H   UNL     1     -13.078  13.059  69.525  1.00  0.00     0.000 HD 
HETATM    7  C   UNL     1     -11.530  15.933  69.589  1.00  0.00    -0.346 A  
HETATM    8  C   UNL     1     -10.656  16.874  69.047  1.00  0.00    -0.338 A  
HETATM    9  N   UNL     1     -12.167  15.855  70.797  1.00  0.00    -0.386 NA 
HETATM   10  C   UNL     1     -10.105  16.586  67.787  1.00  0.00    -0.264 A  
HETATM   11  C   UNL     1     -10.553  15.491  67.032  1.00  0.00    -0.311 A  
HETATM   12 CL   UNL     1      -8.766  17.590  67.334  1.00  0.00    -0.226 Cl 
HETATM   13  C   UNL     1     -11.431  14.555  67.624  1.00  0.00    -0.374 A  
BRANCH  11  14
HETATM   14  O   UNL     1     -10.154  15.107  65.767  1.00  0.00    -0.297 OA 
BRANCH  14  15
HETATM   15  C   UNL     1     -10.721  14.054  65.079  1.00  0.00    -0.396 A  
HETATM   16  C   UNL     1     -11.835  14.171  64.242  1.00  0.00    -0.420 A  
HETATM   17  C   UNL     1     -12.258  13.082  63.477  1.00  0.00    -0.580 A  
HETATM   18  C   UNL     1     -11.628  11.845  63.613  1.00  0.00    -0.559 A  
HETATM   19  C   UNL     1     -10.600  11.685  64.543  1.00  0.00    -0.318 A  
HETATM   20  C   UNL     1     -10.144  12.785  65.283  1.00  0.00    -0.246 A  
HETATM   21 CL   UNL     1      -9.933  10.098  64.722  1.00  0.00    -0.391 Cl 
HETATM   22 CL   UNL     1      -8.884  12.599  66.466  1.00  0.00    -0.127 Cl 
ENDBRANCH  14  15
ENDBRANCH  11  14
ENDBRANCH   2   3
TORSDOF 3
ENDMDL
MODEL       18
REMARK 921   NORMALIZED FREE ENERGY PREDICTED BY IDOCK:   -5.99 KCAL/MOL
REMARK 922        TOTAL FREE ENERGY PREDICTED BY IDOCK:   -7.60 KCAL/MOL
REMARK 923 INTER-LIGAND FREE ENERGY PREDICTED BY IDOCK:   -7.55 KCAL/MOL
REMARK 924 INTRA-LIGAND FREE ENERGY PREDICTED BY IDOCK:   -0.05 KCAL/MOL
REMARK 927      BINDING AFFINITY PREDICTED BY RF-SCORE:    0.00 PKD
ROOT
HETATM    1  C   UNL     1     -13.474   7.358  71.675  1.00  0.00    -0.366 C  
HETATM    2  S   UNL     1     -11.805   8.042  71.731  1.00  0.00    -0.315 SA 
ENDROOT
BRANCH   2   3
HETATM    3  C   UNL     1     -12.090   9.680  71.283  1.00  0.00    -0.371 A  
HETATM    4  N   UNL     1     -11.556  10.379  70.307  1.00  0.00    -0.303 NA 
HETATM    5  C   UNL     1     -12.063  11.650  70.465  1.00  0.00    -0.366 A  
HETATM    6  H   UNL     1     -10.908  10.052  69.591  1.00  0.00     0.000 HD 
HETATM    7  C   UNL     1     -12.914  11.708  71.563  1.00  0.00    -0.358 A  
HETATM    8  C   UNL     1     -13.486  12.892  72.025  1.00  0.00    -0.568 A  
HETATM    9  N   UNL     1     -12.962  10.421  72.021  1.00  0.00    -0.440 NA 
HETATM   10  C   UNL     1     -13.144  14.077  71.351  1.00  0.00    -0.353 A  
HETATM   11  C   UNL     1     -12.403  14.044  70.159  1.00  0.00    -0.345 A  
HETATM   12 CL   UNL     1     -13.582  15.535  72.179  1.00  0.00    -0.558 Cl 
HETATM   13  C   UNL     1     -11.830  12.825  69.732  1.00  0.00    -0.380 A  
BRANCH  11  14
HETATM   14  O   UNL     1     -12.033  15.106  69.357  1.00  0.00    -0.313 OA 
BRANCH  14  15
HETATM   15  C   UNL     1     -11.514  14.953  68.087  1.00  0.00    -0.330 A  
HETATM   16  C   UNL     1     -12.142  14.238  67.063  1.00  0.00    -0.424 A  
HETATM   17  C   UNL     1     -11.614  14.250  65.771  1.00  0.00    -0.346 A  
HETATM   18  C   UNL     1     -10.407  14.900  65.514  1.00  0.00    -0.388 A  
HETATM   19  C   UNL     1      -9.706  15.504  66.558  1.00  0.00    -0.270 A  
HETATM   20  C   UNL     1     -10.252  15.531  67.849  1.00  0.00    -0.238 A  
HETATM   21 CL   UNL     1      -8.170  16.207  66.180  1.00  0.00    -0.272 Cl 
HETATM   22 CL   UNL     1      -9.381  16.254  69.167  1.00  0.00    -0.251 Cl 
ENDBRANCH  14  15
ENDBRANCH  11  14
ENDBRANCH   2   3
TORSDOF 3
ENDMDL
MODEL       19
REMARK 921   NORMALIZED FREE ENERGY PREDICTED BY IDOCK:   -5.98 KCAL/MOL
REMARK 922        TOTAL FREE ENERGY PREDICTED BY IDOCK:   -7.59 KCAL/MOL
REMARK 923 INTER-LIGAND FREE ENERGY PREDICTED BY IDOCK:   -7.34 KCAL/MOL
REMARK 924 INTRA-LIGAND FREE ENERGY PREDICTED BY IDOCK:   -0.25 KCAL/MOL
REMARK 927      BINDING AFFINITY PREDICTED BY RF-SCORE:    0.00 PKD
ROOT
HETATM    1  C   UNL     1     -10.531  19.704  66.285  1.00  0.00    -0.519 C  
HETATM    2  S   UNL     1      -9.247  18.519  66.734  1.00  0.00    -0.305 SA 
ENDROOT
BRANCH   2   3
HETATM    3  C   UNL     1     -10.073  17.023  66.530  1.00  0.00    -0.314 A  
HETATM    4  N   UNL     1     -10.224  16.034  67.383  1.00  0.00    -0.267 NA 
HETATM    5  C   UNL     1     -10.879  15.052  66.672  1.00  0.00    -0.318 A  
HETATM    6  H   UNL     1      -9.922  16.001  68.357  1.00  0.00     0.000 HD 
HETATM    7  C   UNL     1     -11.116  15.465  65.366  1.00  0.00    -0.326 A  
HETATM    8  C   UNL     1     -11.667  14.636  64.390  1.00  0.00    -0.358 A  
HETATM    9  N   UNL     1     -10.652  16.750  65.328  1.00  0.00    -0.648 NA 
HETATM   10  C   UNL     1     -11.956  13.311  64.761  1.00  0.00    -0.388 A  
HETATM   11  C   UNL     1     -11.860  12.896  66.099  1.00  0.00    -0.429 A  
HETATM   12 CL   UNL     1     -12.286  12.242  63.437  1.00  0.00    -0.634 Cl 
HETATM   13  C   UNL     1     -11.285  13.764  67.054  1.00  0.00    -0.326 A  
BRANCH  11  14
HETATM   14  O   UNL     1     -12.156  11.655  66.629  1.00  0.00    -0.441 OA 
BRANCH  14  15
HETATM   15  C   UNL     1     -11.392  11.044  67.602  1.00  0.00    -0.281 A  
HETATM   16  C   UNL     1     -11.547  11.262  68.974  1.00  0.00    -0.386 A  
HETATM   17  C   UNL     1     -10.825  10.498  69.893  1.00  0.00    -0.334 A  
HETATM   18  C   UNL     1      -9.877   9.577  69.446  1.00  0.00    -0.194 A  
HETATM   19  C   UNL     1      -9.621   9.448  68.081  1.00  0.00    -0.142 A  
HETATM   20  C   UNL     1     -10.372  10.181  67.152  1.00  0.00    -0.238 A  
HETATM   21 CL   UNL     1      -8.365   8.355  67.609  1.00  0.00    -0.129 Cl 
HETATM   22 CL   UNL     1     -10.050  10.055  65.449  1.00  0.00    -0.367 Cl 
ENDBRANCH  14  15
ENDBRANCH  11  14
ENDBRANCH   2   3
TORSDOF 3
ENDMDL
MODEL       20
REMARK 921   NORMALIZED FREE ENERGY PREDICTED BY IDOCK:   -5.97 KCAL/MOL
REMARK 922        TOTAL FREE ENERGY PREDICTED BY IDOCK:   -7.58 KCAL/MOL
REMARK 923 INTER-LIGAND FREE ENERGY PREDICTED BY IDOCK:   -7.01 KCAL/MOL
REMARK 924 INTRA-LIGAND FREE ENERGY PREDICTED BY IDOCK:   -0.57 KCAL/MOL
REMARK 927      BINDING AFFINITY PREDICTED BY RF-SCORE:    0.00 PKD
ROOT
HETATM    1  C   UNL     1     -11.592   5.988  72.260  1.00  0.00    -0.307 C  
HETATM    2  S   UNL     1     -10.751   7.395  73.015  1.00  0.00    -0.388 SA 
ENDROOT
BRANCH   2   3
HETATM    3  C   UNL     1     -10.878   8.579  71.772  1.00  0.00    -0.304 A  
HETATM    4  N   UNL     1     -10.151   8.725  70.687  1.00  0.00    -0.193 NA 
HETATM    5  C   UNL     1     -10.618   9.882  70.103  1.00  0.00    -0.297 A  
HETATM    6  H   UNL     1      -9.404   8.116  70.352  1.00  0.00     0.000 HD 
HETATM    7  C   UNL     1     -11.642  10.439  70.861  1.00  0.00    -0.337 A  
HETATM    8  C   UNL     1     -12.230  11.667  70.568  1.00  0.00    -0.451 A  
HETATM    9  N   UNL     1     -11.829   9.547  71.882  1.00  0.00    -0.350 NA 
HETATM   10  C   UNL     1     -11.722  12.375  69.465  1.00  0.00    -0.322 A  
HETATM   11  C   UNL     1     -10.789  11.790  68.596  1.00  0.00    -0.220 A  
HETATM   12 CL   UNL     1     -12.228  14.031  69.370  1.00  0.00    -0.373 Cl 
HETATM   13  C   UNL     1     -10.208  10.547  68.937  1.00  0.00    -0.223 A  
BRANCH  11  14
HETATM   14  O   UNL     1     -10.237  12.329  67.450  1.00  0.00    -0.202 OA 
BRANCH  14  15
HETATM   15  C   UNL     1     -10.791  12.176  66.196  1.00  0.00    -0.282 A  
HETATM   16  C   UNL     1     -12.033  12.695  65.818  1.00  0.00    -0.503 A  
HETATM   17  C   UNL     1     -12.456  12.612  64.490  1.00  0.00    -0.525 A  
HETATM   18  C   UNL     1     -11.683  11.929  63.551  1.00  0.00    -0.550 A  
HETATM   19  C   UNL     1     -10.506  11.294  63.948  1.00  0.00    -0.391 A  
HETATM   20  C   UNL     1     -10.055  11.410  65.271  1.00  0.00    -0.268 A  
HETATM   21 CL   UNL     1      -9.650  10.387  62.748  1.00  0.00    -0.339 Cl 
HETATM   22 CL   UNL     1      -8.607  10.604  65.791  1.00  0.00    -0.178 Cl 
ENDBRANCH  14  15
ENDBRANCH  11  14
ENDBRANCH   2   3
TORSDOF 3
ENDMDL
MODEL       21
REMARK 921   NORMALIZED FREE ENERGY PREDICTED BY IDOCK:   -5.96 KCAL/MOL
REMARK 922        TOTAL FREE ENERGY PREDICTED BY IDOCK:   -7.57 KCAL/MOL
REMARK 923 INTER-LIGAND FREE ENERGY PREDICTED BY IDOCK:   -7.12 KCAL/MOL
REMARK 924 INTRA-LIGAND FREE ENERGY PREDICTED BY IDOCK:   -0.46 KCAL/MOL
REMARK 927      BINDING AFFINITY PREDICTED BY RF-SCORE:    0.00 PKD
ROOT
HETATM    1  C   UNL     1     -13.609  15.628  73.079  1.00  0.00    -0.532 C  
HETATM    2  S   UNL     1     -11.977  16.091  72.463  1.00  0.00    -0.565 SA 
ENDROOT
BRANCH   2   3
HETATM    3  C   UNL     1     -12.001  15.410  70.882  1.00  0.00    -0.359 A  
HETATM    4  N   UNL     1     -12.339  14.198  70.505  1.00  0.00    -0.342 NA 
HETATM    5  C   UNL     1     -12.080  14.164  69.152  1.00  0.00    -0.325 A  
HETATM    6  H   UNL     1     -12.712  13.447  71.086  1.00  0.00     0.000 HD 
HETATM    7  C   UNL     1     -11.570  15.383  68.717  1.00  0.00    -0.368 A  
HETATM    8  C   UNL     1     -11.118  15.602  67.417  1.00  0.00    -0.260 A  
HETATM    9  N   UNL     1     -11.597  16.176  69.831  1.00  0.00    -0.292 NA 
HETATM   10  C   UNL     1     -11.157  14.513  66.531  1.00  0.00    -0.332 A  
HETATM   11  C   UNL     1     -11.790  13.311  66.887  1.00  0.00    -0.392 A  
HETATM   12 CL   UNL     1     -10.257  14.735  65.066  1.00  0.00    -0.411 Cl 
HETATM   13  C   UNL     1     -12.224  13.125  68.219  1.00  0.00    -0.065 A  
BRANCH  11  14
HETATM   14  O   UNL     1     -11.958  12.176  66.118  1.00  0.00    -0.593 OA 
BRANCH  14  15
HETATM   15  C   UNL     1     -10.953  11.259  65.888  1.00  0.00    -0.157 A  
HETATM   16  C   UNL     1     -10.303  10.538  66.895  1.00  0.00    -0.293 A  
HETATM   17  C   UNL     1      -9.395   9.530  66.565  1.00  0.00    -0.220 A  
HETATM   18  C   UNL     1      -9.062   9.299  65.230  1.00  0.00    -0.271 A  
HETATM   19  C   UNL     1      -9.606  10.102  64.227  1.00  0.00    -0.290 A  
HETATM   20  C   UNL     1     -10.550  11.088  64.549  1.00  0.00    -0.313 A  
HETATM   21 CL   UNL     1      -9.072   9.817  62.606  1.00  0.00    -0.283 Cl 
HETATM   22 CL   UNL     1     -11.218  12.116  63.318  1.00  0.00    -0.453 Cl 
ENDBRANCH  14  15
ENDBRANCH  11  14
ENDBRANCH   2   3
TORSDOF 3
ENDMDL
MODEL       22
REMARK 921   NORMALIZED FREE ENERGY PREDICTED BY IDOCK:   -5.90 KCAL/MOL
REMARK 922        TOTAL FREE ENERGY PREDICTED BY IDOCK:   -7.50 KCAL/MOL
REMARK 923 INTER-LIGAND FREE ENERGY PREDICTED BY IDOCK:   -7.01 KCAL/MOL
REMARK 924 INTRA-LIGAND FREE ENERGY PREDICTED BY IDOCK:   -0.49 KCAL/MOL
REMARK 927      BINDING AFFINITY PREDICTED BY RF-SCORE:    0.00 PKD
ROOT
HETATM    1  C   UNL     1      -9.105   5.633  73.390  1.00  0.00    -0.129 C  
HETATM    2  S   UNL     1     -10.895   5.750  73.188  1.00  0.00    -0.276 SA 
ENDROOT
BRANCH   2   3
HETATM    3  C   UNL     1     -11.055   7.283  72.421  1.00  0.00    -0.275 A  
HETATM    4  N   UNL     1     -11.982   8.200  72.584  1.00  0.00    -0.558 NA 
HETATM    5  C   UNL     1     -11.680   9.174  71.658  1.00  0.00    -0.378 A  
HETATM    6  H   UNL     1     -12.755   8.192  73.249  1.00  0.00     0.000 HD 
HETATM    7  C   UNL     1     -10.551   8.825  70.924  1.00  0.00    -0.220 A  
HETATM    8  C   UNL     1     -10.078   9.571  69.846  1.00  0.00    -0.262 A  
HETATM    9  N   UNL     1     -10.138   7.647  71.482  1.00  0.00    -0.178 NA 
HETATM   10  C   UNL     1     -10.815  10.710  69.481  1.00  0.00    -0.259 A  
HETATM   11  C   UNL     1     -11.875  11.173  70.276  1.00  0.00    -0.366 A  
HETATM   12 CL   UNL     1     -10.401  11.378  67.936  1.00  0.00    -0.196 Cl 
HETATM   13  C   UNL     1     -12.331  10.380  71.353  1.00  0.00    -0.500 A  
BRANCH  11  14
HETATM   14  O   UNL     1     -12.657  12.296  70.084  1.00  0.00    -0.054 OA 
BRANCH  14  15
HETATM   15  C   UNL     1     -12.266  13.566  70.455  1.00  0.00    -0.356 A  
HETATM   16  C   UNL     1     -11.294  14.314  69.785  1.00  0.00    -0.279 A  
HETATM   17  C   UNL     1     -11.058  15.643  70.143  1.00  0.00    -0.347 A  
HETATM   18  C   UNL     1     -11.726  16.203  71.233  1.00  0.00    -0.480 A  
HETATM   19  C   UNL     1     -12.600  15.422  71.989  1.00  0.00    -0.371 A  
HETATM   20  C   UNL     1     -12.873  14.100  71.609  1.00  0.00    -0.349 A  
HETATM   21 CL   UNL     1     -13.318  16.157  73.382  1.00  0.00    -0.617 Cl 
HETATM   22 CL   UNL     1     -13.937  13.104  72.553  1.00  0.00    -0.561 Cl 
ENDBRANCH  14  15
ENDBRANCH  11  14
ENDBRANCH   2   3
TORSDOF 3
ENDMDL
MODEL       23
REMARK 921   NORMALIZED FREE ENERGY PREDICTED BY IDOCK:   -5.85 KCAL/MOL
REMARK 922        TOTAL FREE ENERGY PREDICTED BY IDOCK:   -7.43 KCAL/MOL
REMARK 923 INTER-LIGAND FREE ENERGY PREDICTED BY IDOCK:   -6.86 KCAL/MOL
REMARK 924 INTRA-LIGAND FREE ENERGY PREDICTED BY IDOCK:   -0.57 KCAL/MOL
REMARK 927      BINDING AFFINITY PREDICTED BY RF-SCORE:    0.00 PKD
ROOT
HETATM    1  C   UNL     1      -9.228   7.575  73.671  1.00  0.00    -0.268 C  
HETATM    2  S   UNL     1     -10.890   7.331  73.013  1.00  0.00    -0.362 SA 
ENDROOT
BRANCH   2   3
HETATM    3  C   UNL     1     -10.960   8.548  71.797  1.00  0.00    -0.306 A  
HETATM    4  N   UNL     1     -10.176   8.730  70.759  1.00  0.00    -0.199 NA 
HETATM    5  C   UNL     1     -10.622   9.898  70.181  1.00  0.00    -0.297 A  
HETATM    6  H   UNL     1      -9.406   8.137  70.449  1.00  0.00     0.000 HD 
HETATM    7  C   UNL     1     -11.692  10.425  70.896  1.00  0.00    -0.360 A  
HETATM    8  C   UNL     1     -12.276  11.656  70.603  1.00  0.00    -0.461 A  
HETATM    9  N   UNL     1     -11.926   9.504  71.880  1.00  0.00    -0.358 NA 
HETATM   10  C   UNL     1     -11.714  12.399  69.551  1.00  0.00    -0.322 A  
HETATM   11  C   UNL     1     -10.728  11.846  68.719  1.00  0.00    -0.224 A  
HETATM   12 CL   UNL     1     -12.231  14.052  69.472  1.00  0.00    -0.380 Cl 
HETATM   13  C   UNL     1     -10.154  10.599  69.058  1.00  0.00    -0.226 A  
BRANCH  11  14
HETATM   14  O   UNL     1     -10.119  12.421  67.620  1.00  0.00    -0.194 OA 
BRANCH  14  15
HETATM   15  C   UNL     1     -10.816  12.900  66.530  1.00  0.00    -0.271 A  
HETATM   16  C   UNL     1     -11.724  12.142  65.785  1.00  0.00    -0.391 A  
HETATM   17  C   UNL     1     -12.488  12.744  64.784  1.00  0.00    -0.539 A  
HETATM   18  C   UNL     1     -12.283  14.085  64.459  1.00  0.00    -0.463 A  
HETATM   19  C   UNL     1     -11.286  14.814  65.107  1.00  0.00    -0.382 A  
HETATM   20  C   UNL     1     -10.545  14.227  66.142  1.00  0.00    -0.293 A  
HETATM   21 CL   UNL     1     -11.026  16.443  64.583  1.00  0.00    -0.324 Cl 
HETATM   22 CL   UNL     1      -9.280  15.109  66.942  1.00  0.00    -0.241 Cl 
ENDBRANCH  14  15
ENDBRANCH  11  14
ENDBRANCH   2   3
TORSDOF 3
ENDMDL
MODEL       24
REMARK 921   NORMALIZED FREE ENERGY PREDICTED BY IDOCK:   -5.83 KCAL/MOL
REMARK 922        TOTAL FREE ENERGY PREDICTED BY IDOCK:   -7.42 KCAL/MOL
REMARK 923 INTER-LIGAND FREE ENERGY PREDICTED BY IDOCK:   -7.02 KCAL/MOL
REMARK 924 INTRA-LIGAND FREE ENERGY PREDICTED BY IDOCK:   -0.40 KCAL/MOL
REMARK 927      BINDING AFFINITY PREDICTED BY RF-SCORE:    0.00 PKD
ROOT
HETATM    1  C   UNL     1     -10.876   3.708  73.521  1.00  0.00    -0.231 C  
HETATM    2  S   UNL     1     -10.104   4.978  74.544  1.00  0.00    -0.271 SA 
ENDROOT
BRANCH   2   3
HETATM    3  C   UNL     1     -10.359   6.389  73.591  1.00  0.00    -0.286 A  
HETATM    4  N   UNL     1     -11.485   7.000  73.298  1.00  0.00    -0.493 NA 
HETATM    5  C   UNL     1     -11.123   8.008  72.430  1.00  0.00    -0.352 A  
HETATM    6  H   UNL     1     -12.420   6.778  73.638  1.00  0.00     0.000 HD 
HETATM    7  C   UNL     1      -9.752   7.990  72.197  1.00  0.00    -0.221 A  
HETATM    8  C   UNL     1      -9.121   8.826  71.279  1.00  0.00    -0.300 A  
HETATM    9  N   UNL     1      -9.286   6.989  73.006  1.00  0.00    -0.142 NA 
HETATM   10  C   UNL     1      -9.937   9.698  70.538  1.00  0.00    -0.254 A  
HETATM   11  C   UNL     1     -11.301   9.845  70.838  1.00  0.00    -0.370 A  
HETATM   12 CL   UNL     1      -9.161  10.436  69.175  1.00  0.00    -0.197 Cl 
HETATM   13  C   UNL     1     -11.904   8.969  71.768  1.00  0.00    -0.442 A  
BRANCH  11  14
HETATM   14  O   UNL     1     -12.217  10.690  70.244  1.00  0.00    -0.294 OA 
BRANCH  14  15
HETATM   15  C   UNL     1     -12.531  11.939  70.740  1.00  0.00    -0.291 A  
HETATM   16  C   UNL     1     -13.275  12.157  71.903  1.00  0.00    -0.474 A  
HETATM   17  C   UNL     1     -13.428  13.450  72.408  1.00  0.00    -0.685 A  
HETATM   18  C   UNL     1     -12.918  14.541  71.704  1.00  0.00    -0.408 A  
HETATM   19  C   UNL     1     -12.289  14.344  70.475  1.00  0.00    -0.345 A  
HETATM   20  C   UNL     1     -12.096  13.045  69.983  1.00  0.00    -0.297 A  
HETATM   21 CL   UNL     1     -11.768  15.753  69.615  1.00  0.00    -0.357 Cl 
HETATM   22 CL   UNL     1     -11.340  12.781  68.442  1.00  0.00    -0.307 Cl 
ENDBRANCH  14  15
ENDBRANCH  11  14
ENDBRANCH   2   3
TORSDOF 3
ENDMDL
MODEL       25
REMARK 921   NORMALIZED FREE ENERGY PREDICTED BY IDOCK:   -5.82 KCAL/MOL
REMARK 922        TOTAL FREE ENERGY PREDICTED BY IDOCK:   -7.41 KCAL/MOL
REMARK 923 INTER-LIGAND FREE ENERGY PREDICTED BY IDOCK:   -6.85 KCAL/MOL
REMARK 924 INTRA-LIGAND FREE ENERGY PREDICTED BY IDOCK:   -0.56 KCAL/MOL
REMARK 927      BINDING AFFINITY PREDICTED BY RF-SCORE:    0.00 PKD
ROOT
HETATM    1  C   UNL     1      -7.556  19.411  67.655  1.00  0.00    -0.258 C  
HETATM    2  S   UNL     1      -7.195  18.159  66.406  1.00  0.00    -0.268 SA 
ENDROOT
BRANCH   2   3
HETATM    3  C   UNL     1      -8.496  17.056  66.639  1.00  0.00    -0.248 A  
HETATM    4  N   UNL     1      -8.818  16.365  67.709  1.00  0.00    -0.188 NA 
HETATM    5  C   UNL     1      -9.876  15.576  67.314  1.00  0.00    -0.224 A  
HETATM    6  H   UNL     1      -8.380  16.405  68.630  1.00  0.00     0.000 HD 
HETATM    7  C   UNL     1     -10.185  15.799  65.977  1.00  0.00    -0.333 A  
HETATM    8  C   UNL     1     -11.142  15.063  65.280  1.00  0.00    -0.391 A  
HETATM    9  N   UNL     1      -9.332  16.797  65.595  1.00  0.00    -0.480 NA 
HETATM   10  C   UNL     1     -11.787  14.027  65.977  1.00  0.00    -0.388 A  
HETATM   11  C   UNL     1     -11.606  13.859  67.359  1.00  0.00    -0.368 A  
HETATM   12 CL   UNL     1     -12.680  12.927  64.978  1.00  0.00    -0.542 Cl 
HETATM   13  C   UNL     1     -10.617  14.618  68.025  1.00  0.00    -0.240 A  
BRANCH  11  14
HETATM   14  O   UNL     1     -12.202  12.931  68.190  1.00  0.00    -0.211 OA 
BRANCH  14  15
HETATM   15  C   UNL     1     -11.679  11.676  68.426  1.00  0.00    -0.307 A  
HETATM   16  C   UNL     1     -11.127  10.858  67.436  1.00  0.00    -0.373 A  
HETATM   17  C   UNL     1     -10.495   9.662  67.784  1.00  0.00    -0.309 A  
HETATM   18  C   UNL     1     -10.493   9.232  69.111  1.00  0.00    -0.231 A  
HETATM   19  C   UNL     1     -11.157   9.978  70.086  1.00  0.00    -0.310 A  
HETATM   20  C   UNL     1     -11.756  11.200  69.750  1.00  0.00    -0.345 A  
HETATM   21 CL   UNL     1     -11.192   9.333  71.691  1.00  0.00    -0.440 Cl 
HETATM   22 CL   UNL     1     -12.611  12.129  70.943  1.00  0.00    -0.398 Cl 
ENDBRANCH  14  15
ENDBRANCH  11  14
ENDBRANCH   2   3
TORSDOF 3
ENDMDL
MODEL       26
REMARK 921   NORMALIZED FREE ENERGY PREDICTED BY IDOCK:   -5.80 KCAL/MOL
REMARK 922        TOTAL FREE ENERGY PREDICTED BY IDOCK:   -7.38 KCAL/MOL
REMARK 923 INTER-LIGAND FREE ENERGY PREDICTED BY IDOCK:   -6.85 KCAL/MOL
REMARK 924 INTRA-LIGAND FREE ENERGY PREDICTED BY IDOCK:   -0.53 KCAL/MOL
REMARK 927      BINDING AFFINITY PREDICTED BY RF-SCORE:    0.00 PKD
ROOT
HETATM    1  C   UNL     1     -11.372   5.408  72.927  1.00  0.00    -0.303 C  
HETATM    2  S   UNL     1     -10.385   6.717  73.683  1.00  0.00    -0.343 SA 
ENDROOT
BRANCH   2   3
HETATM    3  C   UNL     1     -10.556   7.984  72.531  1.00  0.00    -0.329 A  
HETATM    4  N   UNL     1     -11.628   8.668  72.203  1.00  0.00    -0.364 NA 
HETATM    5  C   UNL     1     -11.224   9.483  71.168  1.00  0.00    -0.376 A  
HETATM    6  H   UNL     1     -12.556   8.609  72.622  1.00  0.00     0.000 HD 
HETATM    7  C   UNL     1      -9.882   9.273  70.871  1.00  0.00    -0.293 A  
HETATM    8  C   UNL     1      -9.231   9.881  69.799  1.00  0.00    -0.252 A  
HETATM    9  N   UNL     1      -9.469   8.361  71.803  1.00  0.00    -0.208 NA 
HETATM   10  C   UNL     1     -10.000  10.717  68.972  1.00  0.00    -0.213 A  
HETATM   11  C   UNL     1     -11.317  11.063  69.314  1.00  0.00    -0.282 A  
HETATM   12 CL   UNL     1      -9.247  11.144  67.470  1.00  0.00    -0.152 Cl 
HETATM   13  C   UNL     1     -11.943  10.414  70.402  1.00  0.00    -0.409 A  
BRANCH  11  14
HETATM   14  O   UNL     1     -12.179  11.907  68.641  1.00  0.00    -0.358 OA 
BRANCH  14  15
HETATM   15  C   UNL     1     -11.907  13.239  68.404  1.00  0.00    -0.360 A  
HETATM   16  C   UNL     1     -11.872  14.221  69.398  1.00  0.00    -0.372 A  
HETATM   17  C   UNL     1     -11.452  15.518  69.092  1.00  0.00    -0.356 A  
HETATM   18  C   UNL     1     -11.154  15.863  67.773  1.00  0.00    -0.288 A  
HETATM   19  C   UNL     1     -11.314  14.924  66.754  1.00  0.00    -0.328 A  
HETATM   20  C   UNL     1     -11.694  13.609  67.062  1.00  0.00    -0.384 A  
HETATM   21 CL   UNL     1     -11.018  15.453  65.133  1.00  0.00    -0.407 Cl 
HETATM   22 CL   UNL     1     -11.925  12.433  65.804  1.00  0.00    -0.475 Cl 
ENDBRANCH  14  15
ENDBRANCH  11  14
ENDBRANCH   2   3
TORSDOF 3
ENDMDL
MODEL       27
REMARK 921   NORMALIZED FREE ENERGY PREDICTED BY IDOCK:   -5.77 KCAL/MOL
REMARK 922        TOTAL FREE ENERGY PREDICTED BY IDOCK:   -7.34 KCAL/MOL
REMARK 923 INTER-LIGAND FREE ENERGY PREDICTED BY IDOCK:   -6.88 KCAL/MOL
REMARK 924 INTRA-LIGAND FREE ENERGY PREDICTED BY IDOCK:   -0.46 KCAL/MOL
REMARK 927      BINDING AFFINITY PREDICTED BY RF-SCORE:    0.00 PKD
ROOT
HETATM    1  C   UNL     1     -11.442   6.561  71.228  1.00  0.00    -0.318 C  
HETATM    2  S   UNL     1     -11.401   8.045  72.254  1.00  0.00    -0.380 SA 
ENDROOT
BRANCH   2   3
HETATM    3  C   UNL     1     -11.364   9.286  71.061  1.00  0.00    -0.320 A  
HETATM    4  N   UNL     1     -11.875  10.496  71.105  1.00  0.00    -0.332 NA 
HETATM    5  C   UNL     1     -11.639  11.024  69.854  1.00  0.00    -0.337 A  
HETATM    6  H   UNL     1     -12.343  10.945  71.892  1.00  0.00     0.000 HD 
HETATM    7  C   UNL     1     -10.979  10.104  69.047  1.00  0.00    -0.226 A  
HETATM    8  C   UNL     1     -10.707  10.327  67.699  1.00  0.00    -0.339 A  
HETATM    9  N   UNL     1     -10.758   9.033  69.868  1.00  0.00    -0.227 NA 
HETATM   10  C   UNL     1     -11.164  11.533  67.142  1.00  0.00    -0.301 A  
HETATM   11  C   UNL     1     -11.709  12.543  67.950  1.00  0.00    -0.359 A  
HETATM   12 CL   UNL     1     -11.125  11.594  65.410  1.00  0.00    -0.331 Cl 
HETATM   13  C   UNL     1     -11.980  12.272  69.310  1.00  0.00    -0.308 A  
BRANCH  11  14
HETATM   14  O   UNL     1     -12.152  13.795  67.567  1.00  0.00    -0.384 OA 
BRANCH  14  15
HETATM   15  C   UNL     1     -11.304  14.835  67.247  1.00  0.00    -0.357 A  
HETATM   16  C   UNL     1     -10.541  14.894  66.077  1.00  0.00    -0.321 A  
HETATM   17  C   UNL     1      -9.816  16.047  65.767  1.00  0.00    -0.357 A  
HETATM   18  C   UNL     1      -9.774  17.110  66.669  1.00  0.00    -0.285 A  
HETATM   19  C   UNL     1     -10.425  17.006  67.899  1.00  0.00    -0.354 A  
HETATM   20  C   UNL     1     -11.189  15.869  68.197  1.00  0.00    -0.339 A  
HETATM   21 CL   UNL     1     -10.249  18.326  69.004  1.00  0.00    -0.329 Cl 
HETATM   22 CL   UNL     1     -11.984  15.709  69.733  1.00  0.00    -0.374 Cl 
ENDBRANCH  14  15
ENDBRANCH  11  14
ENDBRANCH   2   3
TORSDOF 3
ENDMDL
MODEL       28
REMARK 921   NORMALIZED FREE ENERGY PREDICTED BY IDOCK:   -5.74 KCAL/MOL
REMARK 922        TOTAL FREE ENERGY PREDICTED BY IDOCK:   -7.30 KCAL/MOL
REMARK 923 INTER-LIGAND FREE ENERGY PREDICTED BY IDOCK:   -6.93 KCAL/MOL
REMARK 924 INTRA-LIGAND FREE ENERGY PREDICTED BY IDOCK:   -0.38 KCAL/MOL
REMARK 927      BINDING AFFINITY PREDICTED BY RF-SCORE:    0.00 PKD
ROOT
HETATM    1  C   UNL     1     -12.635  10.368  71.417  1.00  0.00    -0.434 C  
HETATM    2  S   UNL     1     -13.052  12.070  71.850  1.00  0.00    -0.242 SA 
ENDROOT
BRANCH   2   3
HETATM    3  C   UNL     1     -12.339  12.941  70.548  1.00  0.00    -0.283 A  
HETATM    4  N   UNL     1     -12.284  14.239  70.348  1.00  0.00    -0.320 NA 
HETATM    5  C   UNL     1     -11.691  14.380  69.113  1.00  0.00    -0.317 A  
HETATM    6  H   UNL     1     -12.609  14.978  70.971  1.00  0.00     0.000 HD 
HETATM    7  C   UNL     1     -11.393  13.138  68.563  1.00  0.00    -0.286 A  
HETATM    8  C   UNL     1     -10.885  12.973  67.276  1.00  0.00    -0.270 A  
HETATM    9  N   UNL     1     -11.756  12.245  69.533  1.00  0.00    -0.321 NA 
HETATM   10  C   UNL     1     -10.708  14.132  66.502  1.00  0.00    -0.289 A  
HETATM   11  C   UNL     1     -10.865  15.409  67.063  1.00  0.00    -0.320 A  
HETATM   12 CL   UNL     1     -10.432  13.844  64.815  1.00  0.00    -0.446 Cl 
HETATM   13  C   UNL     1     -11.393  15.533  68.368  1.00  0.00    -0.357 A  
BRANCH  11  14
HETATM   14  O   UNL     1     -10.678  16.636  66.456  1.00  0.00    -0.250 OA 
BRANCH  14  15
HETATM   15  C   UNL     1     -10.072  17.707  67.079  1.00  0.00    -0.330 A  
HETATM   16  C   UNL     1     -10.749  18.854  67.505  1.00  0.00    -0.509 A  
HETATM   17  C   UNL     1     -10.083  19.828  68.251  1.00  0.00    -0.575 A  
HETATM   18  C   UNL     1      -8.714  19.708  68.495  1.00  0.00    -0.344 A  
HETATM   19  C   UNL     1      -8.004  18.633  67.961  1.00  0.00    -0.273 A  
HETATM   20  C   UNL     1      -8.675  17.630  67.247  1.00  0.00    -0.235 A  
HETATM   21 CL   UNL     1      -6.294  18.602  68.226  1.00  0.00    -0.213 Cl 
HETATM   22 CL   UNL     1      -7.803  16.298  66.551  1.00  0.00    -0.310 Cl 
ENDBRANCH  14  15
ENDBRANCH  11  14
ENDBRANCH   2   3
TORSDOF 3
ENDMDL
MODEL       29
REMARK 921   NORMALIZED FREE ENERGY PREDICTED BY IDOCK:   -5.72 KCAL/MOL
REMARK 922        TOTAL FREE ENERGY PREDICTED BY IDOCK:   -7.28 KCAL/MOL
REMARK 923 INTER-LIGAND FREE ENERGY PREDICTED BY IDOCK:   -6.64 KCAL/MOL
REMARK 924 INTRA-LIGAND FREE ENERGY PREDICTED BY IDOCK:   -0.65 KCAL/MOL
REMARK 927      BINDING AFFINITY PREDICTED BY RF-SCORE:    0.00 PKD
ROOT
HETATM    1  C   UNL     1      -5.952   8.685  73.700  1.00  0.00    -0.110 C  
HETATM    2  S   UNL     1      -6.784   7.177  73.158  1.00  0.00    -0.065 SA 
ENDROOT
BRANCH   2   3
HETATM    3  C   UNL     1      -8.254   7.806  72.520  1.00  0.00    -0.127 A  
HETATM    4  N   UNL     1      -8.444   8.858  71.756  1.00  0.00    -0.359 NA 
HETATM    5  C   UNL     1      -9.813   8.956  71.627  1.00  0.00    -0.317 A  
HETATM    6  H   UNL     1      -7.736   9.467  71.348  1.00  0.00     0.000 HD 
HETATM    7  C   UNL     1     -10.449   7.943  72.336  1.00  0.00    -0.277 A  
HETATM    8  C   UNL     1     -11.833   7.858  72.473  1.00  0.00    -0.390 A  
HETATM    9  N   UNL     1      -9.425   7.188  72.837  1.00  0.00    -0.145 NA 
HETATM   10  C   UNL     1     -12.600   8.878  71.885  1.00  0.00    -0.377 A  
HETATM   11  C   UNL     1     -12.010   9.838  71.047  1.00  0.00    -0.352 A  
HETATM   12 CL   UNL     1     -14.258   8.923  72.390  1.00  0.00    -0.511 Cl 
HETATM   13  C   UNL     1     -10.602   9.896  70.946  1.00  0.00    -0.254 A  
BRANCH  11  14
HETATM   14  O   UNL     1     -12.628  10.863  70.359  1.00  0.00    -0.320 OA 
BRANCH  14  15
HETATM   15  C   UNL     1     -12.745  12.147  70.852  1.00  0.00    -0.189 A  
HETATM   16  C   UNL     1     -13.391  12.471  72.049  1.00  0.00    -0.528 A  
HETATM   17  C   UNL     1     -13.343  13.777  72.543  1.00  0.00    -0.656 A  
HETATM   18  C   UNL     1     -12.728  14.784  71.798  1.00  0.00    -0.396 A  
HETATM   19  C   UNL     1     -12.197  14.495  70.541  1.00  0.00    -0.332 A  
HETATM   20  C   UNL     1     -12.205  13.178  70.059  1.00  0.00    -0.253 A  
HETATM   21 CL   UNL     1     -11.536  15.814  69.637  1.00  0.00    -0.344 Cl 
HETATM   22 CL   UNL     1     -11.573  12.803  68.485  1.00  0.00    -0.334 Cl 
ENDBRANCH  14  15
ENDBRANCH  11  14
ENDBRANCH   2   3
TORSDOF 3
ENDMDL
MODEL       30
REMARK 921   NORMALIZED FREE ENERGY PREDICTED BY IDOCK:   -5.70 KCAL/MOL
REMARK 922        TOTAL FREE ENERGY PREDICTED BY IDOCK:   -7.27 KCAL/MOL
REMARK 923 INTER-LIGAND FREE ENERGY PREDICTED BY IDOCK:   -6.69 KCAL/MOL
REMARK 924 INTRA-LIGAND FREE ENERGY PREDICTED BY IDOCK:   -0.57 KCAL/MOL
REMARK 927      BINDING AFFINITY PREDICTED BY RF-SCORE:    0.00 PKD
ROOT
HETATM    1  C   UNL     1     -10.983   6.183  68.700  1.00  0.00    -0.336 C  
HETATM    2  S   UNL     1      -9.915   6.661  67.326  1.00  0.00    -0.170 SA 
ENDROOT
BRANCH   2   3
HETATM    3  C   UNL     1     -10.272   8.339  67.181  1.00  0.00    -0.295 A  
HETATM    4  N   UNL     1     -10.916   9.126  68.013  1.00  0.00    -0.493 NA 
HETATM    5  C   UNL     1     -10.999  10.337  67.360  1.00  0.00    -0.252 A  
HETATM    6  H   UNL     1     -11.275   8.892  68.939  1.00  0.00     0.000 HD 
HETATM    7  C   UNL     1     -10.397  10.265  66.110  1.00  0.00    -0.183 A  
HETATM    8  C   UNL     1     -10.424  11.309  65.186  1.00  0.00    -0.351 A  
HETATM    9  N   UNL     1      -9.883   8.999  66.055  1.00  0.00    -0.276 NA 
HETATM   10  C   UNL     1     -11.133  12.467  65.548  1.00  0.00    -0.300 A  
HETATM   11  C   UNL     1     -11.635  12.633  66.848  1.00  0.00    -0.373 A  
HETATM   12 CL   UNL     1     -11.442  13.565  64.243  1.00  0.00    -0.411 Cl 
HETATM   13  C   UNL     1     -11.598  11.546  67.750  1.00  0.00    -0.338 A  
BRANCH  11  14
HETATM   14  O   UNL     1     -12.302  13.724  67.371  1.00  0.00    -0.312 OA 
BRANCH  14  15
HETATM   15  C   UNL     1     -11.664  14.770  68.007  1.00  0.00    -0.333 A  
HETATM   16  C   UNL     1     -10.787  15.655  67.375  1.00  0.00    -0.315 A  
HETATM   17  C   UNL     1     -10.294  16.767  68.062  1.00  0.00    -0.317 A  
HETATM   18  C   UNL     1     -10.601  16.949  69.410  1.00  0.00    -0.292 A  
HETATM   19  C   UNL     1     -11.369  15.999  70.084  1.00  0.00    -0.365 A  
HETATM   20  C   UNL     1     -11.901  14.903  69.390  1.00  0.00    -0.324 A  
HETATM   21 CL   UNL     1     -11.628  16.244  71.778  1.00  0.00    -0.509 Cl 
HETATM   22 CL   UNL     1     -12.835  13.695  70.217  1.00  0.00    -0.147 Cl 
ENDBRANCH  14  15
ENDBRANCH  11  14
ENDBRANCH   2   3
TORSDOF 3
ENDMDL
MODEL       31
REMARK 921   NORMALIZED FREE ENERGY PREDICTED BY IDOCK:   -5.69 KCAL/MOL
REMARK 922        TOTAL FREE ENERGY PREDICTED BY IDOCK:   -7.25 KCAL/MOL
REMARK 923 INTER-LIGAND FREE ENERGY PREDICTED BY IDOCK:   -6.85 KCAL/MOL
REMARK 924 INTRA-LIGAND FREE ENERGY PREDICTED BY IDOCK:   -0.40 KCAL/MOL
REMARK 927      BINDING AFFINITY PREDICTED BY RF-SCORE:    0.00 PKD
ROOT
HETATM    1  C   UNL     1     -11.119  15.680  67.865  1.00  0.00    -0.324 C  
HETATM    2  S   UNL     1     -11.869  15.758  69.505  1.00  0.00    -0.301 SA 
ENDROOT
BRANCH   2   3
HETATM    3  C   UNL     1     -11.829  14.104  69.979  1.00  0.00    -0.323 A  
HETATM    4  N   UNL     1     -11.119  13.115  69.484  1.00  0.00    -0.461 NA 
HETATM    5  C   UNL     1     -11.547  11.997  70.167  1.00  0.00    -0.143 A  
HETATM    6  H   UNL     1     -10.408  13.164  68.755  1.00  0.00     0.000 HD 
HETATM    7  C   UNL     1     -12.538  12.330  71.084  1.00  0.00    -0.253 A  
HETATM    8  C   UNL     1     -13.230  11.384  71.839  1.00  0.00    -0.485 A  
HETATM    9  N   UNL     1     -12.645  13.690  70.987  1.00  0.00    -0.361 NA 
HETATM   10  C   UNL     1     -12.917  10.032  71.618  1.00  0.00    -0.449 A  
HETATM   11  C   UNL     1     -11.832   9.663  70.807  1.00  0.00    -0.300 A  
HETATM   12 CL   UNL     1     -14.044   8.905  72.299  1.00  0.00    -0.511 Cl 
HETATM   13  C   UNL     1     -11.165  10.652  70.050  1.00  0.00    -0.382 A  
BRANCH  11  14
HETATM   14  O   UNL     1     -11.367   8.391  70.534  1.00  0.00    -0.263 OA 
BRANCH  14  15
HETATM   15  C   UNL     1     -10.817   7.563  71.491  1.00  0.00    -0.227 A  
HETATM   16  C   UNL     1     -10.458   7.978  72.776  1.00  0.00    -0.415 A  
HETATM   17  C   UNL     1     -10.038   7.045  73.726  1.00  0.00    -0.390 A  
HETATM   18  C   UNL     1      -9.886   5.705  73.370  1.00  0.00    -0.175 A  
HETATM   19  C   UNL     1     -10.115   5.304  72.053  1.00  0.00    -0.194 A  
HETATM   20  C   UNL     1     -10.578   6.229  71.106  1.00  0.00    -0.239 A  
HETATM   21 CL   UNL     1      -9.813   3.644  71.665  1.00  0.00    -0.242 Cl 
HETATM   22 CL   UNL     1     -10.842   5.755  69.456  1.00  0.00    -0.416 Cl 
ENDBRANCH  14  15
ENDBRANCH  11  14
ENDBRANCH   2   3
TORSDOF 3
ENDMDL
MODEL       32
REMARK 921   NORMALIZED FREE ENERGY PREDICTED BY IDOCK:   -5.64 KCAL/MOL
REMARK 922        TOTAL FREE ENERGY PREDICTED BY IDOCK:   -7.19 KCAL/MOL
REMARK 923 INTER-LIGAND FREE ENERGY PREDICTED BY IDOCK:   -6.72 KCAL/MOL
REMARK 924 INTRA-LIGAND FREE ENERGY PREDICTED BY IDOCK:   -0.47 KCAL/MOL
REMARK 927      BINDING AFFINITY PREDICTED BY RF-SCORE:    0.00 PKD
ROOT
HETATM    1  C   UNL     1      -8.612  18.084  68.506  1.00  0.00    -0.297 C  
HETATM    2  S   UNL     1     -10.364  18.227  68.097  1.00  0.00    -0.348 SA 
ENDROOT
BRANCH   2   3
HETATM    3  C   UNL     1     -10.855  16.577  68.108  1.00  0.00    -0.345 A  
HETATM    4  N   UNL     1     -11.238  15.831  69.120  1.00  0.00    -0.297 NA 
HETATM    5  C   UNL     1     -11.419  14.575  68.583  1.00  0.00    -0.293 A  
HETATM    6  H   UNL     1     -11.373  16.119  70.089  1.00  0.00     0.000 HD 
HETATM    7  C   UNL     1     -11.129  14.573  67.223  1.00  0.00    -0.312 A  
HETATM    8  C   UNL     1     -11.122  13.418  66.444  1.00  0.00    -0.312 A  
HETATM    9  N   UNL     1     -10.839  15.879  66.939  1.00  0.00    -0.286 NA 
HETATM   10  C   UNL     1     -11.390  12.202  67.096  1.00  0.00    -0.331 A  
HETATM   11  C   UNL     1     -11.820  12.176  68.432  1.00  0.00    -0.303 A  
HETATM   12 CL   UNL     1     -11.010  10.785  66.173  1.00  0.00    -0.119 Cl 
HETATM   13  C   UNL     1     -11.802  13.368  69.190  1.00  0.00    -0.383 A  
BRANCH  11  14
HETATM   14  O   UNL     1     -12.170  11.077  69.193  1.00  0.00    -0.434 OA 
BRANCH  14  15
HETATM   15  C   UNL     1     -11.253  10.294  69.863  1.00  0.00    -0.299 A  
HETATM   16  C   UNL     1      -9.900  10.206  69.523  1.00  0.00    -0.255 A  
HETATM   17  C   UNL     1      -9.014   9.499  70.339  1.00  0.00    -0.291 A  
HETATM   18  C   UNL     1      -9.491   8.800  71.448  1.00  0.00    -0.330 A  
HETATM   19  C   UNL     1     -10.859   8.774  71.719  1.00  0.00    -0.345 A  
HETATM   20  C   UNL     1     -11.748   9.516  70.928  1.00  0.00    -0.317 A  
HETATM   21 CL   UNL     1     -11.385   7.808  73.055  1.00  0.00    -0.420 Cl 
HETATM   22 CL   UNL     1     -13.457   9.475  71.233  1.00  0.00    -0.401 Cl 
ENDBRANCH  14  15
ENDBRANCH  11  14
ENDBRANCH   2   3
TORSDOF 3
ENDMDL
MODEL       33
REMARK 921   NORMALIZED FREE ENERGY PREDICTED BY IDOCK:   -5.60 KCAL/MOL
REMARK 922        TOTAL FREE ENERGY PREDICTED BY IDOCK:   -7.14 KCAL/MOL
REMARK 923 INTER-LIGAND FREE ENERGY PREDICTED BY IDOCK:   -6.94 KCAL/MOL
REMARK 924 INTRA-LIGAND FREE ENERGY PREDICTED BY IDOCK:   -0.20 KCAL/MOL
REMARK 927      BINDING AFFINITY PREDICTED BY RF-SCORE:    0.00 PKD
ROOT
HETATM    1  C   UNL     1     -12.026   9.118  71.387  1.00  0.00    -0.339 C  
HETATM    2  S   UNL     1     -12.882  10.698  71.221  1.00  0.00    -0.453 SA 
ENDROOT
BRANCH   2   3
HETATM    3  C   UNL     1     -12.020  11.422  69.919  1.00  0.00    -0.359 A  
HETATM    4  N   UNL     1     -11.226  12.468  69.929  1.00  0.00    -0.480 NA 
HETATM    5  C   UNL     1     -10.886  12.666  68.608  1.00  0.00    -0.249 A  
HETATM    6  H   UNL     1     -10.926  13.014  70.737  1.00  0.00     0.000 HD 
HETATM    7  C   UNL     1     -11.498  11.719  67.795  1.00  0.00    -0.311 A  
HETATM    8  C   UNL     1     -11.420  11.741  66.403  1.00  0.00    -0.309 A  
HETATM    9  N   UNL     1     -12.158  10.900  68.669  1.00  0.00    -0.516 NA 
HETATM   10  C   UNL     1     -10.711  12.803  65.817  1.00  0.00    -0.272 A  
HETATM   11  C   UNL     1      -9.966  13.698  66.601  1.00  0.00    -0.283 A  
HETATM   12 CL   UNL     1     -10.955  12.982  64.110  1.00  0.00    -0.416 Cl 
HETATM   13  C   UNL     1     -10.083  13.649  68.008  1.00  0.00    -0.250 A  
BRANCH  11  14
HETATM   14  O   UNL     1      -9.181  14.752  66.176  1.00  0.00    -0.276 OA 
BRANCH  14  15
HETATM   15  C   UNL     1      -9.250  16.017  66.722  1.00  0.00    -0.240 A  
HETATM   16  C   UNL     1      -8.627  16.393  67.915  1.00  0.00    -0.175 A  
HETATM   17  C   UNL     1      -8.633  17.728  68.323  1.00  0.00    -0.277 A  
HETATM   18  C   UNL     1      -9.341  18.680  67.589  1.00  0.00    -0.309 A  
HETATM   19  C   UNL     1     -10.075  18.290  66.469  1.00  0.00    -0.385 A  
HETATM   20  C   UNL     1     -10.038  16.959  66.031  1.00  0.00    -0.319 A  
HETATM   21 CL   UNL     1     -11.004  19.510  65.665  1.00  0.00    -0.397 Cl 
HETATM   22 CL   UNL     1     -10.968  16.449  64.655  1.00  0.00    -0.324 Cl 
ENDBRANCH  14  15
ENDBRANCH  11  14
ENDBRANCH   2   3
TORSDOF 3
ENDMDL
MODEL       34
REMARK 921   NORMALIZED FREE ENERGY PREDICTED BY IDOCK:   -5.56 KCAL/MOL
REMARK 922        TOTAL FREE ENERGY PREDICTED BY IDOCK:   -7.10 KCAL/MOL
REMARK 923 INTER-LIGAND FREE ENERGY PREDICTED BY IDOCK:   -6.51 KCAL/MOL
REMARK 924 INTRA-LIGAND FREE ENERGY PREDICTED BY IDOCK:   -0.59 KCAL/MOL
REMARK 927      BINDING AFFINITY PREDICTED BY RF-SCORE:    0.00 PKD
ROOT
HETATM    1  C   UNL     1      -5.699  19.874  63.820  1.00  0.00    -0.277 C  
HETATM    2  S   UNL     1      -6.280  20.487  65.415  1.00  0.00    -0.262 SA 
ENDROOT
BRANCH   2   3
HETATM    3  C   UNL     1      -7.113  19.111  66.029  1.00  0.00    -0.266 A  
HETATM    4  N   UNL     1      -7.158  17.887  65.553  1.00  0.00    -0.456 NA 
HETATM    5  C   UNL     1      -8.043  17.223  66.374  1.00  0.00    -0.293 A  
HETATM    6  H   UNL     1      -6.649  17.511  64.753  1.00  0.00     0.000 HD 
HETATM    7  C   UNL     1      -8.541  18.074  67.354  1.00  0.00    -0.244 A  
HETATM    8  C   UNL     1      -9.535  17.702  68.257  1.00  0.00    -0.295 A  
HETATM    9  N   UNL     1      -7.876  19.251  67.148  1.00  0.00    -0.248 NA 
HETATM   10  C   UNL     1     -10.069  16.409  68.127  1.00  0.00    -0.251 A  
HETATM   11  C   UNL     1      -9.503  15.475  67.245  1.00  0.00    -0.213 A  
HETATM   12 CL   UNL     1     -11.531  16.134  69.018  1.00  0.00    -0.345 Cl 
HETATM   13  C   UNL     1      -8.504  15.897  66.338  1.00  0.00    -0.348 A  
BRANCH  11  14
HETATM   14  O   UNL     1      -9.875  14.161  67.041  1.00  0.00    -0.247 OA 
BRANCH  14  15
HETATM   15  C   UNL     1     -10.562  13.731  65.924  1.00  0.00    -0.289 A  
HETATM   16  C   UNL     1     -11.674  14.386  65.386  1.00  0.00    -0.362 A  
HETATM   17  C   UNL     1     -12.223  13.961  64.175  1.00  0.00    -0.436 A  
HETATM   18  C   UNL     1     -11.723  12.824  63.541  1.00  0.00    -0.597 A  
HETATM   19  C   UNL     1     -10.700  12.087  64.138  1.00  0.00    -0.357 A  
HETATM   20  C   UNL     1     -10.116  12.533  65.332  1.00  0.00    -0.267 A  
HETATM   21 CL   UNL     1     -10.198  10.636  63.340  1.00  0.00    -0.284 Cl 
HETATM   22 CL   UNL     1      -8.860  11.615  66.105  1.00  0.00    -0.176 Cl 
ENDBRANCH  14  15
ENDBRANCH  11  14
ENDBRANCH   2   3
TORSDOF 3
ENDMDL
MODEL       35
REMARK 921   NORMALIZED FREE ENERGY PREDICTED BY IDOCK:   -5.55 KCAL/MOL
REMARK 922        TOTAL FREE ENERGY PREDICTED BY IDOCK:   -7.09 KCAL/MOL
REMARK 923 INTER-LIGAND FREE ENERGY PREDICTED BY IDOCK:   -6.63 KCAL/MOL
REMARK 924 INTRA-LIGAND FREE ENERGY PREDICTED BY IDOCK:   -0.46 KCAL/MOL
REMARK 927      BINDING AFFINITY PREDICTED BY RF-SCORE:    0.00 PKD
ROOT
HETATM    1  C   UNL     1      -6.338  19.951  64.553  1.00  0.00    -0.194 C  
HETATM    2  S   UNL     1      -6.811  20.348  66.249  1.00  0.00    -0.226 SA 
ENDROOT
BRANCH   2   3
HETATM    3  C   UNL     1      -7.836  19.021  66.639  1.00  0.00    -0.263 A  
HETATM    4  N   UNL     1      -8.408  18.150  65.838  1.00  0.00    -0.511 NA 
HETATM    5  C   UNL     1      -9.190  17.373  66.664  1.00  0.00    -0.261 A  
HETATM    6  H   UNL     1      -8.297  18.068  64.828  1.00  0.00     0.000 HD 
HETATM    7  C   UNL     1      -9.085  17.796  67.985  1.00  0.00    -0.269 A  
HETATM    8  C   UNL     1      -9.847  17.262  69.022  1.00  0.00    -0.237 A  
HETATM    9  N   UNL     1      -8.161  18.804  67.943  1.00  0.00    -0.264 NA 
HETATM   10  C   UNL     1     -10.786  16.272  68.685  1.00  0.00    -0.309 A  
HETATM   11  C   UNL     1     -10.827  15.721  67.395  1.00  0.00    -0.306 A  
HETATM   12 CL   UNL     1     -11.941  15.915  69.928  1.00  0.00    -0.319 Cl 
HETATM   13  C   UNL     1     -10.046  16.300  66.369  1.00  0.00    -0.318 A  
BRANCH  11  14
HETATM   14  O   UNL     1     -11.647  14.714  66.924  1.00  0.00    -0.361 OA 
BRANCH  14  15
HETATM   15  C   UNL     1     -11.433  13.376  67.185  1.00  0.00    -0.339 A  
HETATM   16  C   UNL     1     -11.684  12.766  68.417  1.00  0.00    -0.380 A  
HETATM   17  C   UNL     1     -11.570  11.381  68.552  1.00  0.00    -0.384 A  
HETATM   18  C   UNL     1     -11.115  10.609  67.484  1.00  0.00    -0.367 A  
HETATM   19  C   UNL     1     -10.735  11.225  66.291  1.00  0.00    -0.257 A  
HETATM   20  C   UNL     1     -10.887  12.610  66.135  1.00  0.00    -0.273 A  
HETATM   21 CL   UNL     1     -10.090  10.212  65.045  1.00  0.00    -0.375 Cl 
HETATM   22 CL   UNL     1     -10.394  13.400  64.668  1.00  0.00    -0.416 Cl 
ENDBRANCH  14  15
ENDBRANCH  11  14
ENDBRANCH   2   3
TORSDOF 3
ENDMDL
MODEL       36
REMARK 921   NORMALIZED FREE ENERGY PREDICTED BY IDOCK:   -5.55 KCAL/MOL
REMARK 922        TOTAL FREE ENERGY PREDICTED BY IDOCK:   -7.09 KCAL/MOL
REMARK 923 INTER-LIGAND FREE ENERGY PREDICTED BY IDOCK:   -7.06 KCAL/MOL
REMARK 924 INTRA-LIGAND FREE ENERGY PREDICTED BY IDOCK:   -0.03 KCAL/MOL
REMARK 927      BINDING AFFINITY PREDICTED BY RF-SCORE:    0.00 PKD
ROOT
HETATM    1  C   UNL     1     -10.629   6.312  69.401  1.00  0.00    -0.271 C  
HETATM    2  S   UNL     1     -11.364   6.733  70.995  1.00  0.00    -0.328 SA 
ENDROOT
BRANCH   2   3
HETATM    3  C   UNL     1     -11.730   8.400  70.775  1.00  0.00    -0.202 A  
HETATM    4  N   UNL     1     -11.236   9.251  69.904  1.00  0.00    -0.390 NA 
HETATM    5  C   UNL     1     -11.802  10.463  70.234  1.00  0.00    -0.312 A  
HETATM    6  H   UNL     1     -10.577   9.057  69.150  1.00  0.00     0.000 HD 
HETATM    7  C   UNL     1     -12.648  10.329  71.330  1.00  0.00    -0.434 A  
HETATM    8  C   UNL     1     -13.273  11.410  71.949  1.00  0.00    -0.485 A  
HETATM    9  N   UNL     1     -12.632   8.990  71.607  1.00  0.00    -0.330 NA 
HETATM   10  C   UNL     1     -12.992  12.690  71.443  1.00  0.00    -0.258 A  
HETATM   11  C   UNL     1     -12.258  12.857  70.259  1.00  0.00    -0.289 A  
HETATM   12 CL   UNL     1     -13.494  14.000  72.463  1.00  0.00    -0.614 Cl 
HETATM   13  C   UNL     1     -11.631  11.736  69.669  1.00  0.00    -0.393 A  
BRANCH  11  14
HETATM   14  O   UNL     1     -11.945  14.035  69.609  1.00  0.00    -0.298 OA 
BRANCH  14  15
HETATM   15  C   UNL     1     -11.564  14.093  68.284  1.00  0.00    -0.321 A  
HETATM   16  C   UNL     1     -12.223  13.425  67.248  1.00  0.00    -0.282 A  
HETATM   17  C   UNL     1     -11.854  13.650  65.920  1.00  0.00    -0.406 A  
HETATM   18  C   UNL     1     -10.765  14.470  65.625  1.00  0.00    -0.335 A  
HETATM   19  C   UNL     1     -10.019  15.035  66.660  1.00  0.00    -0.256 A  
HETATM   20  C   UNL     1     -10.410  14.848  67.993  1.00  0.00    -0.244 A  
HETATM   21 CL   UNL     1      -8.626  15.963  66.218  1.00  0.00    -0.365 Cl 
HETATM   22 CL   UNL     1      -9.478  15.520  69.296  1.00  0.00    -0.248 Cl 
ENDBRANCH  14  15
ENDBRANCH  11  14
ENDBRANCH   2   3
TORSDOF 3
ENDMDL
MODEL       37
REMARK 921   NORMALIZED FREE ENERGY PREDICTED BY IDOCK:   -5.53 KCAL/MOL
REMARK 922        TOTAL FREE ENERGY PREDICTED BY IDOCK:   -7.06 KCAL/MOL
REMARK 923 INTER-LIGAND FREE ENERGY PREDICTED BY IDOCK:   -6.60 KCAL/MOL
REMARK 924 INTRA-LIGAND FREE ENERGY PREDICTED BY IDOCK:   -0.46 KCAL/MOL
REMARK 927      BINDING AFFINITY PREDICTED BY RF-SCORE:    0.00 PKD
ROOT
HETATM    1  C   UNL     1     -10.388   6.066  73.912  1.00  0.00    -0.284 C  
HETATM    2  S   UNL     1     -11.512   5.689  72.551  1.00  0.00    -0.226 SA 
ENDROOT
BRANCH   2   3
HETATM    3  C   UNL     1     -11.486   7.165  71.665  1.00  0.00    -0.266 A  
HETATM    4  N   UNL     1     -10.668   7.545  70.709  1.00  0.00    -0.225 NA 
HETATM    5  C   UNL     1     -11.035   8.843  70.427  1.00  0.00    -0.244 A  
HETATM    6  H   UNL     1      -9.926   6.999  70.272  1.00  0.00     0.000 HD 
HETATM    7  C   UNL     1     -12.090   9.245  71.239  1.00  0.00    -0.337 A  
HETATM    8  C   UNL     1     -12.597  10.543  71.248  1.00  0.00    -0.531 A  
HETATM    9  N   UNL     1     -12.398   8.130  71.968  1.00  0.00    -0.322 NA 
HETATM   10  C   UNL     1     -11.971  11.482  70.412  1.00  0.00    -0.368 A  
HETATM   11  C   UNL     1     -10.998  11.089  69.480  1.00  0.00    -0.243 A  
HETATM   12 CL   UNL     1     -12.392  13.133  70.731  1.00  0.00    -0.439 Cl 
HETATM   13  C   UNL     1     -10.503   9.765  69.512  1.00  0.00    -0.250 A  
BRANCH  11  14
HETATM   14  O   UNL     1     -10.332  11.875  68.559  1.00  0.00    -0.210 OA 
BRANCH  14  15
HETATM   15  C   UNL     1     -10.918  12.351  67.403  1.00  0.00    -0.254 A  
HETATM   16  C   UNL     1     -11.982  13.257  67.379  1.00  0.00    -0.383 A  
HETATM   17  C   UNL     1     -12.422  13.792  66.166  1.00  0.00    -0.466 A  
HETATM   18  C   UNL     1     -11.863  13.355  64.965  1.00  0.00    -0.381 A  
HETATM   19  C   UNL     1     -10.892  12.354  64.972  1.00  0.00    -0.295 A  
HETATM   20  C   UNL     1     -10.417  11.843  66.189  1.00  0.00    -0.237 A  
HETATM   21 CL   UNL     1     -10.315  11.797  63.438  1.00  0.00    -0.454 Cl 
HETATM   22 CL   UNL     1      -9.228  10.576  66.217  1.00  0.00    -0.185 Cl 
ENDBRANCH  14  15
ENDBRANCH  11  14
ENDBRANCH   2   3
TORSDOF 3
ENDMDL
MODEL       38
REMARK 921   NORMALIZED FREE ENERGY PREDICTED BY IDOCK:   -5.51 KCAL/MOL
REMARK 922        TOTAL FREE ENERGY PREDICTED BY IDOCK:   -7.04 KCAL/MOL
REMARK 923 INTER-LIGAND FREE ENERGY PREDICTED BY IDOCK:   -6.62 KCAL/MOL
REMARK 924 INTRA-LIGAND FREE ENERGY PREDICTED BY IDOCK:   -0.42 KCAL/MOL
REMARK 927      BINDING AFFINITY PREDICTED BY RF-SCORE:    0.00 PKD
ROOT
HETATM    1  C   UNL     1     -10.896  15.822  64.955  1.00  0.00    -0.443 C  
HETATM    2  S   UNL     1     -12.096  14.568  64.461  1.00  0.00    -0.446 SA 
ENDROOT
BRANCH   2   3
HETATM    3  C   UNL     1     -11.904  13.398  65.708  1.00  0.00    -0.377 A  
HETATM    4  N   UNL     1     -12.252  13.468  66.973  1.00  0.00    -0.347 NA 
HETATM    5  C   UNL     1     -11.778  12.302  67.534  1.00  0.00    -0.332 A  
HETATM    6  H   UNL     1     -12.761  14.220  67.438  1.00  0.00     0.000 HD 
HETATM    7  C   UNL     1     -11.128  11.525  66.582  1.00  0.00    -0.295 A  
HETATM    8  C   UNL     1     -10.457  10.342  66.888  1.00  0.00    -0.300 A  
HETATM    9  N   UNL     1     -11.287  12.220  65.415  1.00  0.00    -0.332 NA 
HETATM   10  C   UNL     1     -10.420   9.957  68.238  1.00  0.00    -0.210 A  
HETATM   11  C   UNL     1     -11.176  10.635  69.207  1.00  0.00    -0.273 A  
HETATM   12 CL   UNL     1      -9.280   8.702  68.603  1.00  0.00    -0.139 Cl 
HETATM   13  C   UNL     1     -11.832  11.837  68.858  1.00  0.00    -0.381 A  
BRANCH  11  14
HETATM   14  O   UNL     1     -11.287  10.350  70.555  1.00  0.00    -0.310 OA 
BRANCH  14  15
HETATM   15  C   UNL     1     -12.108   9.361  71.056  1.00  0.00    -0.298 A  
HETATM   16  C   UNL     1     -13.503   9.448  71.104  1.00  0.00    -0.253 A  
HETATM   17  C   UNL     1     -14.263   8.345  71.499  1.00  0.00    -0.471 A  
HETATM   18  C   UNL     1     -13.632   7.180  71.935  1.00  0.00    -0.279 A  
HETATM   19  C   UNL     1     -12.240   7.131  72.016  1.00  0.00    -0.278 A  
HETATM   20  C   UNL     1     -11.471   8.219  71.581  1.00  0.00    -0.278 A  
HETATM   21 CL   UNL     1     -11.534   5.687  72.656  1.00  0.00    -0.355 Cl 
HETATM   22 CL   UNL     1      -9.738   8.187  71.699  1.00  0.00    -0.218 Cl 
ENDBRANCH  14  15
ENDBRANCH  11  14
ENDBRANCH   2   3
TORSDOF 3
ENDMDL
MODEL       39
REMARK 921   NORMALIZED FREE ENERGY PREDICTED BY IDOCK:   -5.46 KCAL/MOL
REMARK 922        TOTAL FREE ENERGY PREDICTED BY IDOCK:   -6.98 KCAL/MOL
REMARK 923 INTER-LIGAND FREE ENERGY PREDICTED BY IDOCK:   -6.45 KCAL/MOL
REMARK 924 INTRA-LIGAND FREE ENERGY PREDICTED BY IDOCK:   -0.54 KCAL/MOL
REMARK 927      BINDING AFFINITY PREDICTED BY RF-SCORE:    0.00 PKD
ROOT
HETATM    1  C   UNL     1     -13.202  15.557  73.473  1.00  0.00    -0.406 C  
HETATM    2  S   UNL     1     -14.188  15.294  71.984  1.00  0.00    -0.587 SA 
ENDROOT
BRANCH   2   3
HETATM    3  C   UNL     1     -13.073  14.453  70.978  1.00  0.00    -0.353 A  
HETATM    4  N   UNL     1     -12.375  14.900  69.958  1.00  0.00    -0.440 NA 
HETATM    5  C   UNL     1     -11.728  13.790  69.461  1.00  0.00    -0.323 A  
HETATM    6  H   UNL     1     -12.323  15.858  69.611  1.00  0.00     0.000 HD 
HETATM    7  C   UNL     1     -12.054  12.657  70.198  1.00  0.00    -0.294 A  
HETATM    8  C   UNL     1     -11.630  11.374  69.857  1.00  0.00    -0.402 A  
HETATM    9  N   UNL     1     -12.859  13.127  71.199  1.00  0.00    -0.306 NA 
HETATM   10  C   UNL     1     -10.865  11.241  68.685  1.00  0.00    -0.204 A  
HETATM   11  C   UNL     1     -10.399  12.369  67.992  1.00  0.00    -0.216 A  
HETATM   12 CL   UNL     1     -10.683   9.612  68.119  1.00  0.00    -0.276 Cl 
HETATM   13  C   UNL     1     -10.863  13.651  68.363  1.00  0.00    -0.274 A  
BRANCH  11  14
HETATM   14  O   UNL     1      -9.601  12.406  66.865  1.00  0.00    -0.207 OA 
BRANCH  14  15
HETATM   15  C   UNL     1     -10.047  12.058  65.606  1.00  0.00    -0.243 A  
HETATM   16  C   UNL     1     -11.134  12.660  64.965  1.00  0.00    -0.326 A  
HETATM   17  C   UNL     1     -11.431  12.343  63.638  1.00  0.00    -0.568 A  
HETATM   18  C   UNL     1     -10.702  11.356  62.975  1.00  0.00    -0.104 A  
HETATM   19  C   UNL     1      -9.702  10.656  63.650  1.00  0.00    -0.330 A  
HETATM   20  C   UNL     1      -9.371  11.000  64.969  1.00  0.00    -0.221 A  
HETATM   21 CL   UNL     1      -8.907   9.381  62.791  1.00  0.00    -0.236 Cl 
HETATM   22 CL   UNL     1      -8.148  10.122  65.836  1.00  0.00    -0.130 Cl 
ENDBRANCH  14  15
ENDBRANCH  11  14
ENDBRANCH   2   3
TORSDOF 3
ENDMDL
MODEL       40
REMARK 921   NORMALIZED FREE ENERGY PREDICTED BY IDOCK:   -5.45 KCAL/MOL
REMARK 922        TOTAL FREE ENERGY PREDICTED BY IDOCK:   -6.96 KCAL/MOL
REMARK 923 INTER-LIGAND FREE ENERGY PREDICTED BY IDOCK:   -6.51 KCAL/MOL
REMARK 924 INTRA-LIGAND FREE ENERGY PREDICTED BY IDOCK:   -0.45 KCAL/MOL
REMARK 927      BINDING AFFINITY PREDICTED BY RF-SCORE:    0.00 PKD
ROOT
HETATM    1  C   UNL     1      -8.368   6.503  66.547  1.00  0.00    -0.116 C  
HETATM    2  S   UNL     1      -8.176   7.778  65.284  1.00  0.00    -0.124 SA 
ENDROOT
BRANCH   2   3
HETATM    3  C   UNL     1      -9.057   9.084  65.977  1.00  0.00    -0.208 A  
HETATM    4  N   UNL     1      -9.545   9.205  67.191  1.00  0.00    -0.156 NA 
HETATM    5  C   UNL     1     -10.237  10.396  67.176  1.00  0.00    -0.222 A  
HETATM    6  H   UNL     1      -9.436   8.559  67.973  1.00  0.00     0.000 HD 
HETATM    7  C   UNL     1     -10.164  10.993  65.922  1.00  0.00    -0.254 A  
HETATM    8  C   UNL     1     -10.859  12.153  65.586  1.00  0.00    -0.323 A  
HETATM    9  N   UNL     1      -9.348  10.165  65.202  1.00  0.00    -0.213 NA 
HETATM   10  C   UNL     1     -11.696  12.708  66.569  1.00  0.00    -0.400 A  
HETATM   11  C   UNL     1     -11.692  12.219  67.885  1.00  0.00    -0.347 A  
HETATM   12 CL   UNL     1     -12.798  13.913  65.987  1.00  0.00    -0.416 Cl 
HETATM   13  C   UNL     1     -10.983  11.033  68.181  1.00  0.00    -0.301 A  
BRANCH  11  14
HETATM   14  O   UNL     1     -12.411  12.684  68.969  1.00  0.00    -0.069 OA 
BRANCH  14  15
HETATM   15  C   UNL     1     -12.048  13.798  69.698  1.00  0.00    -0.336 A  
HETATM   16  C   UNL     1     -11.266  14.843  69.198  1.00  0.00    -0.293 A  
HETATM   17  C   UNL     1     -11.062  15.996  69.959  1.00  0.00    -0.362 A  
HETATM   18  C   UNL     1     -11.560  16.072  71.260  1.00  0.00    -0.506 A  
HETATM   19  C   UNL     1     -12.228  14.981  71.815  1.00  0.00    -0.350 A  
HETATM   20  C   UNL     1     -12.473  13.837  71.041  1.00  0.00    -0.380 A  
HETATM   21 CL   UNL     1     -12.733  15.114  73.465  1.00  0.00    -0.629 Cl 
HETATM   22 CL   UNL     1     -13.279  12.457  71.722  1.00  0.00    -0.509 Cl 
ENDBRANCH  14  15
ENDBRANCH  11  14
ENDBRANCH   2   3
TORSDOF 3
ENDMDL
MODEL       41
REMARK 921   NORMALIZED FREE ENERGY PREDICTED BY IDOCK:   -5.45 KCAL/MOL
REMARK 922        TOTAL FREE ENERGY PREDICTED BY IDOCK:   -6.96 KCAL/MOL
REMARK 923 INTER-LIGAND FREE ENERGY PREDICTED BY IDOCK:   -6.86 KCAL/MOL
REMARK 924 INTRA-LIGAND FREE ENERGY PREDICTED BY IDOCK:   -0.10 KCAL/MOL
REMARK 927      BINDING AFFINITY PREDICTED BY RF-SCORE:    0.00 PKD
ROOT
HETATM    1  C   UNL     1     -12.176  12.293  63.474  1.00  0.00    -0.568 C  
HETATM    2  S   UNL     1     -12.179  13.485  64.830  1.00  0.00    -0.419 SA 
ENDROOT
BRANCH   2   3
HETATM    3  C   UNL     1     -11.666  12.505  66.149  1.00  0.00    -0.409 A  
HETATM    4  N   UNL     1     -10.851  11.474  66.150  1.00  0.00    -0.282 NA 
HETATM    5  C   UNL     1     -10.870  11.011  67.448  1.00  0.00    -0.274 A  
HETATM    6  H   UNL     1     -10.320  11.100  65.363  1.00  0.00     0.000 HD 
HETATM    7  C   UNL     1     -11.721  11.780  68.233  1.00  0.00    -0.310 A  
HETATM    8  C   UNL     1     -12.019  11.477  69.561  1.00  0.00    -0.402 A  
HETATM    9  N   UNL     1     -12.159  12.765  67.392  1.00  0.00    -0.400 NA 
HETATM   10  C   UNL     1     -11.445  10.312  70.097  1.00  0.00    -0.309 A  
HETATM   11  C   UNL     1     -10.477   9.587  69.386  1.00  0.00    -0.217 A  
HETATM   12 CL   UNL     1     -12.130   9.793  71.603  1.00  0.00    -0.476 Cl 
HETATM   13  C   UNL     1     -10.213   9.920  68.038  1.00  0.00    -0.219 A  
BRANCH  11  14
HETATM   14  O   UNL     1      -9.786   8.461  69.792  1.00  0.00    -0.182 OA 
BRANCH  14  15
HETATM   15  C   UNL     1      -9.765   8.013  71.097  1.00  0.00    -0.160 A  
HETATM   16  C   UNL     1      -8.988   8.582  72.110  1.00  0.00    -0.300 A  
HETATM   17  C   UNL     1      -9.132   8.155  73.432  1.00  0.00    -0.309 A  
HETATM   18  C   UNL     1      -9.986   7.095  73.735  1.00  0.00    -0.373 A  
HETATM   19  C   UNL     1     -10.666   6.434  72.712  1.00  0.00    -0.239 A  
HETATM   20  C   UNL     1     -10.558   6.885  71.389  1.00  0.00    -0.219 A  
HETATM   21 CL   UNL     1     -11.631   5.067  73.154  1.00  0.00    -0.373 Cl 
HETATM   22 CL   UNL     1     -11.375   6.059  70.098  1.00  0.00    -0.420 Cl 
ENDBRANCH  14  15
ENDBRANCH  11  14
ENDBRANCH   2   3
TORSDOF 3
ENDMDL
MODEL       42
REMARK 921   NORMALIZED FREE ENERGY PREDICTED BY IDOCK:   -5.44 KCAL/MOL
REMARK 922        TOTAL FREE ENERGY PREDICTED BY IDOCK:   -6.96 KCAL/MOL
REMARK 923 INTER-LIGAND FREE ENERGY PREDICTED BY IDOCK:   -6.51 KCAL/MOL
REMARK 924 INTRA-LIGAND FREE ENERGY PREDICTED BY IDOCK:   -0.45 KCAL/MOL
REMARK 927      BINDING AFFINITY PREDICTED BY RF-SCORE:    0.00 PKD
ROOT
HETATM    1  C   UNL     1      -9.211  10.902  62.458  1.00  0.00    -0.304 C  
HETATM    2  S   UNL     1      -8.532   9.818  63.731  1.00  0.00    -0.202 SA 
ENDROOT
BRANCH   2   3
HETATM    3  C   UNL     1      -9.514  10.222  65.086  1.00  0.00    -0.252 A  
HETATM    4  N   UNL     1     -10.252  11.290  65.288  1.00  0.00    -0.261 NA 
HETATM    5  C   UNL     1     -10.741  11.143  66.567  1.00  0.00    -0.260 A  
HETATM    6  H   UNL     1     -10.424  12.059  64.640  1.00  0.00     0.000 HD 
HETATM    7  C   UNL     1     -10.279   9.964  67.140  1.00  0.00    -0.228 A  
HETATM    8  C   UNL     1     -10.526   9.609  68.465  1.00  0.00    -0.241 A  
HETATM    9  N   UNL     1      -9.555   9.367  66.145  1.00  0.00    -0.226 NA 
HETATM   10  C   UNL     1     -11.252  10.521  69.249  1.00  0.00    -0.262 A  
HETATM   11  C   UNL     1     -11.853  11.653  68.676  1.00  0.00    -0.308 A  
HETATM   12 CL   UNL     1     -11.213  10.205  70.954  1.00  0.00    -0.414 Cl 
HETATM   13  C   UNL     1     -11.567  11.983  67.332  1.00  0.00    -0.388 A  
BRANCH  11  14
HETATM   14  O   UNL     1     -12.636  12.608  69.295  1.00  0.00     0.213 OA 
BRANCH  14  15
HETATM   15  C   UNL     1     -12.116  13.689  69.977  1.00  0.00    -0.348 A  
HETATM   16  C   UNL     1     -11.226  14.614  69.422  1.00  0.00    -0.307 A  
HETATM   17  C   UNL     1     -10.858  15.754  70.138  1.00  0.00    -0.360 A  
HETATM   18  C   UNL     1     -11.303  15.931  71.449  1.00  0.00    -0.407 A  
HETATM   19  C   UNL     1     -12.084  14.948  72.057  1.00  0.00    -0.359 A  
HETATM   20  C   UNL     1     -12.491  13.821  71.328  1.00  0.00    -0.345 A  
HETATM   21 CL   UNL     1     -12.518  15.193  73.715  1.00  0.00    -0.688 Cl 
HETATM   22 CL   UNL     1     -13.440  12.573  72.077  1.00  0.00    -0.564 Cl 
ENDBRANCH  14  15
ENDBRANCH  11  14
ENDBRANCH   2   3
TORSDOF 3
ENDMDL
MODEL       43
REMARK 921   NORMALIZED FREE ENERGY PREDICTED BY IDOCK:   -5.44 KCAL/MOL
REMARK 922        TOTAL FREE ENERGY PREDICTED BY IDOCK:   -6.96 KCAL/MOL
REMARK 923 INTER-LIGAND FREE ENERGY PREDICTED BY IDOCK:   -6.57 KCAL/MOL
REMARK 924 INTRA-LIGAND FREE ENERGY PREDICTED BY IDOCK:   -0.39 KCAL/MOL
REMARK 927      BINDING AFFINITY PREDICTED BY RF-SCORE:    0.00 PKD
ROOT
HETATM    1  C   UNL     1      -8.436   7.257  69.196  1.00  0.00    -0.133 C  
HETATM    2  S   UNL     1      -9.736   6.905  67.994  1.00  0.00    -0.132 SA 
ENDROOT
BRANCH   2   3
HETATM    3  C   UNL     1     -10.142   8.488  67.453  1.00  0.00    -0.234 A  
HETATM    4  N   UNL     1     -10.752   9.455  68.100  1.00  0.00    -0.383 NA 
HETATM    5  C   UNL     1     -10.906  10.459  67.169  1.00  0.00    -0.238 A  
HETATM    6  H   UNL     1     -11.048   9.461  69.076  1.00  0.00     0.000 HD 
HETATM    7  C   UNL     1     -10.380  10.077  65.940  1.00  0.00    -0.132 A  
HETATM    8  C   UNL     1     -10.490  10.851  64.786  1.00  0.00    -0.373 A  
HETATM    9  N   UNL     1      -9.840   8.842  66.174  1.00  0.00    -0.277 NA 
HETATM   10  C   UNL     1     -11.203  12.058  64.889  1.00  0.00    -0.320 A  
HETATM   11  C   UNL     1     -11.629  12.545  66.135  1.00  0.00    -0.395 A  
HETATM   12 CL   UNL     1     -11.620  12.786  63.372  1.00  0.00    -0.558 Cl 
HETATM   13  C   UNL     1     -11.508  11.723  67.278  1.00  0.00    -0.373 A  
BRANCH  11  14
HETATM   14  O   UNL     1     -12.288  13.728  66.407  1.00  0.00    -0.439 OA 
BRANCH  14  15
HETATM   15  C   UNL     1     -11.775  14.711  67.229  1.00  0.00    -0.385 A  
HETATM   16  C   UNL     1     -12.035  14.803  68.599  1.00  0.00    -0.292 A  
HETATM   17  C   UNL     1     -11.365  15.747  69.380  1.00  0.00    -0.348 A  
HETATM   18  C   UNL     1     -10.501  16.665  68.781  1.00  0.00    -0.324 A  
HETATM   19  C   UNL     1     -10.338  16.665  67.395  1.00  0.00    -0.292 A  
HETATM   20  C   UNL     1     -10.975  15.693  66.611  1.00  0.00    -0.212 A  
HETATM   21 CL   UNL     1      -9.326  17.894  66.716  1.00  0.00    -0.268 Cl 
HETATM   22 CL   UNL     1     -10.806  15.694  64.882  1.00  0.00    -0.458 Cl 
ENDBRANCH  14  15
ENDBRANCH  11  14
ENDBRANCH   2   3
TORSDOF 3
ENDMDL
MODEL       44
REMARK 921   NORMALIZED FREE ENERGY PREDICTED BY IDOCK:   -5.44 KCAL/MOL
REMARK 922        TOTAL FREE ENERGY PREDICTED BY IDOCK:   -6.95 KCAL/MOL
REMARK 923 INTER-LIGAND FREE ENERGY PREDICTED BY IDOCK:   -6.59 KCAL/MOL
REMARK 924 INTRA-LIGAND FREE ENERGY PREDICTED BY IDOCK:   -0.36 KCAL/MOL
REMARK 927      BINDING AFFINITY PREDICTED BY RF-SCORE:    0.00 PKD
ROOT
HETATM    1  C   UNL     1     -10.614   5.726  71.818  1.00  0.00    -0.238 C  
HETATM    2  S   UNL     1     -10.845   7.216  72.810  1.00  0.00    -0.325 SA 
ENDROOT
BRANCH   2   3
HETATM    3  C   UNL     1     -11.082   8.408  71.591  1.00  0.00    -0.278 A  
HETATM    4  N   UNL     1     -10.632   8.433  70.357  1.00  0.00    -0.218 NA 
HETATM    5  C   UNL     1     -11.036   9.653  69.860  1.00  0.00    -0.235 A  
HETATM    6  H   UNL     1     -10.102   7.709  69.873  1.00  0.00     0.000 HD 
HETATM    7  C   UNL     1     -11.736  10.371  70.824  1.00  0.00    -0.368 A  
HETATM    8  C   UNL     1     -12.171  11.682  70.636  1.00  0.00    -0.461 A  
HETATM    9  N   UNL     1     -11.806   9.521  71.893  1.00  0.00    -0.350 NA 
HETATM   10  C   UNL     1     -11.843  12.298  69.416  1.00  0.00    -0.310 A  
HETATM   11  C   UNL     1     -11.262  11.567  68.368  1.00  0.00    -0.255 A  
HETATM   12 CL   UNL     1     -12.082  14.015  69.384  1.00  0.00    -0.381 Cl 
HETATM   13  C   UNL     1     -10.825  10.245  68.604  1.00  0.00    -0.272 A  
BRANCH  11  14
HETATM   14  O   UNL     1     -10.932  12.010  67.102  1.00  0.00    -0.243 OA 
BRANCH  14  15
HETATM   15  C   UNL     1     -10.351  13.237  66.854  1.00  0.00    -0.255 A  
HETATM   16  C   UNL     1      -9.152  13.668  67.429  1.00  0.00    -0.222 A  
HETATM   17  C   UNL     1      -8.565  14.867  67.017  1.00  0.00    -0.265 A  
HETATM   18  C   UNL     1      -9.220  15.686  66.098  1.00  0.00    -0.378 A  
HETATM   19  C   UNL     1     -10.480  15.327  65.619  1.00  0.00    -0.358 A  
HETATM   20  C   UNL     1     -11.055  14.105  65.996  1.00  0.00    -0.314 A  
HETATM   21 CL   UNL     1     -11.272  16.440  64.556  1.00  0.00    -0.332 Cl 
HETATM   22 CL   UNL     1     -12.635  13.654  65.433  1.00  0.00    -0.529 Cl 
ENDBRANCH  14  15
ENDBRANCH  11  14
ENDBRANCH   2   3
TORSDOF 3
ENDMDL
MODEL       45
REMARK 921   NORMALIZED FREE ENERGY PREDICTED BY IDOCK:   -5.39 KCAL/MOL
REMARK 922        TOTAL FREE ENERGY PREDICTED BY IDOCK:   -6.90 KCAL/MOL
REMARK 923 INTER-LIGAND FREE ENERGY PREDICTED BY IDOCK:   -6.29 KCAL/MOL
REMARK 924 INTRA-LIGAND FREE ENERGY PREDICTED BY IDOCK:   -0.61 KCAL/MOL
REMARK 927      BINDING AFFINITY PREDICTED BY RF-SCORE:    0.00 PKD
ROOT
HETATM    1  C   UNL     1      -8.466   6.305  66.616  1.00  0.00    -0.114 C  
HETATM    2  S   UNL     1      -7.921   7.131  65.106  1.00  0.00    -0.129 SA 
ENDROOT
BRANCH   2   3
HETATM    3  C   UNL     1      -8.746   8.637  65.222  1.00  0.00    -0.165 A  
HETATM    4  N   UNL     1      -9.292   9.206  66.273  1.00  0.00    -0.197 NA 
HETATM    5  C   UNL     1      -9.896  10.344  65.783  1.00  0.00    -0.239 A  
HETATM    6  H   UNL     1      -9.273   8.878  67.238  1.00  0.00     0.000 HD 
HETATM    7  C   UNL     1      -9.709  10.449  64.410  1.00  0.00    -0.333 A  
HETATM    8  C   UNL     1     -10.299  11.444  63.631  1.00  0.00    -0.463 A  
HETATM    9  N   UNL     1      -8.914   9.382  64.095  1.00  0.00    -0.191 NA 
HETATM   10  C   UNL     1     -11.149  12.351  64.286  1.00  0.00    -0.349 A  
HETATM   11  C   UNL     1     -11.255  12.365  65.686  1.00  0.00    -0.322 A  
HETATM   12 CL   UNL     1     -12.128  13.318  63.232  1.00  0.00    -0.551 Cl 
HETATM   13  C   UNL     1     -10.650  11.332  66.436  1.00  0.00    -0.316 A  
BRANCH  11  14
HETATM   14  O   UNL     1     -12.000  13.220  66.476  1.00  0.00    -0.375 OA 
BRANCH  14  15
HETATM   15  C   UNL     1     -11.476  14.345  67.078  1.00  0.00    -0.361 A  
HETATM   16  C   UNL     1     -10.887  15.406  66.382  1.00  0.00    -0.303 A  
HETATM   17  C   UNL     1     -10.509  16.567  67.059  1.00  0.00    -0.289 A  
HETATM   18  C   UNL     1     -10.631  16.639  68.447  1.00  0.00    -0.343 A  
HETATM   19  C   UNL     1     -11.094  15.535  69.164  1.00  0.00    -0.272 A  
HETATM   20  C   UNL     1     -11.515  14.382  68.486  1.00  0.00    -0.297 A  
HETATM   21 CL   UNL     1     -11.127  15.666  70.889  1.00  0.00    -0.375 Cl 
HETATM   22 CL   UNL     1     -12.069  12.988  69.361  1.00  0.00    -0.307 Cl 
ENDBRANCH  14  15
ENDBRANCH  11  14
ENDBRANCH   2   3
TORSDOF 3
ENDMDL
MODEL       46
REMARK 921   NORMALIZED FREE ENERGY PREDICTED BY IDOCK:   -5.35 KCAL/MOL
REMARK 922        TOTAL FREE ENERGY PREDICTED BY IDOCK:   -6.84 KCAL/MOL
REMARK 923 INTER-LIGAND FREE ENERGY PREDICTED BY IDOCK:   -6.18 KCAL/MOL
REMARK 924 INTRA-LIGAND FREE ENERGY PREDICTED BY IDOCK:   -0.66 KCAL/MOL
REMARK 927      BINDING AFFINITY PREDICTED BY RF-SCORE:    0.00 PKD
ROOT
HETATM    1  C   UNL     1      -6.496   7.105  72.493  1.00  0.00    -0.052 C  
HETATM    2  S   UNL     1      -6.235   7.751  70.828  1.00  0.00    -0.034 SA 
ENDROOT
BRANCH   2   3
HETATM    3  C   UNL     1      -7.760   8.476  70.497  1.00  0.00    -0.084 A  
HETATM    4  N   UNL     1      -8.119   9.227  69.481  1.00  0.00    -0.104 NA 
HETATM    5  C   UNL     1      -9.411   9.613  69.766  1.00  0.00    -0.218 A  
HETATM    6  H   UNL     1      -7.564   9.472  68.660  1.00  0.00     0.000 HD 
HETATM    7  C   UNL     1      -9.825   9.084  70.983  1.00  0.00    -0.282 A  
HETATM    8  C   UNL     1     -11.048   9.394  71.576  1.00  0.00    -0.446 A  
HETATM    9  N   UNL     1      -8.775   8.308  71.389  1.00  0.00    -0.144 NA 
HETATM   10  C   UNL     1     -11.869  10.318  70.907  1.00  0.00    -0.377 A  
HETATM   11  C   UNL     1     -11.552  10.768  69.616  1.00  0.00    -0.316 A  
HETATM   12 CL   UNL     1     -13.184  10.937  71.852  1.00  0.00    -0.565 Cl 
HETATM   13  C   UNL     1     -10.296  10.439  69.056  1.00  0.00    -0.232 A  
BRANCH  11  14
HETATM   14  O   UNL     1     -12.275  11.627  68.811  1.00  0.00    -0.416 OA 
BRANCH  14  15
HETATM   15  C   UNL     1     -12.024  12.981  68.728  1.00  0.00    -0.266 A  
HETATM   16  C   UNL     1     -12.107  13.863  69.810  1.00  0.00    -0.404 A  
HETATM   17  C   UNL     1     -11.702  15.192  69.667  1.00  0.00    -0.353 A  
HETATM   18  C   UNL     1     -11.301  15.670  68.420  1.00  0.00    -0.365 A  
HETATM   19  C   UNL     1     -11.342  14.832  67.306  1.00  0.00    -0.357 A  
HETATM   20  C   UNL     1     -11.707  13.486  67.451  1.00  0.00    -0.380 A  
HETATM   21 CL   UNL     1     -10.920  15.523  65.776  1.00  0.00    -0.313 Cl 
HETATM   22 CL   UNL     1     -11.790  12.433  66.072  1.00  0.00    -0.474 Cl 
ENDBRANCH  14  15
ENDBRANCH  11  14
ENDBRANCH   2   3
TORSDOF 3
ENDMDL
MODEL       47
REMARK 921   NORMALIZED FREE ENERGY PREDICTED BY IDOCK:   -5.34 KCAL/MOL
REMARK 922        TOTAL FREE ENERGY PREDICTED BY IDOCK:   -6.84 KCAL/MOL
REMARK 923 INTER-LIGAND FREE ENERGY PREDICTED BY IDOCK:   -6.66 KCAL/MOL
REMARK 924 INTRA-LIGAND FREE ENERGY PREDICTED BY IDOCK:   -0.18 KCAL/MOL
REMARK 927      BINDING AFFINITY PREDICTED BY RF-SCORE:    0.00 PKD
ROOT
HETATM    1  C   UNL     1     -12.603  12.225  63.395  1.00  0.00    -0.427 C  
HETATM    2  S   UNL     1     -10.847  11.867  63.602  1.00  0.00    -0.466 SA 
ENDROOT
BRANCH   2   3
HETATM    3  C   UNL     1     -10.463  12.818  64.985  1.00  0.00    -0.314 A  
HETATM    4  N   UNL     1     -10.852  14.036  65.289  1.00  0.00    -0.327 NA 
HETATM    5  C   UNL     1     -10.174  14.343  66.448  1.00  0.00    -0.289 A  
HETATM    6  H   UNL     1     -11.511  14.624  64.779  1.00  0.00     0.000 HD 
HETATM    7  C   UNL     1      -9.358  13.287  66.837  1.00  0.00    -0.244 A  
HETATM    8  C   UNL     1      -8.476  13.358  67.914  1.00  0.00    -0.173 A  
HETATM    9  N   UNL     1      -9.618  12.305  65.921  1.00  0.00    -0.229 NA 
HETATM   10  C   UNL     1      -8.401  14.580  68.603  1.00  0.00    -0.164 A  
HETATM   11  C   UNL     1      -9.302  15.622  68.331  1.00  0.00    -0.195 A  
HETATM   12 CL   UNL     1      -7.047  14.726  69.676  1.00  0.00    -0.172 Cl 
HETATM   13  C   UNL     1     -10.172  15.514  67.223  1.00  0.00    -0.260 A  
BRANCH  11  14
HETATM   14  O   UNL     1      -9.392  16.853  68.950  1.00  0.00    -0.256 OA 
BRANCH  14  15
HETATM   15  C   UNL     1      -9.451  18.047  68.261  1.00  0.00    -0.302 A  
HETATM   16  C   UNL     1     -10.604  18.542  67.645  1.00  0.00    -0.450 A  
HETATM   17  C   UNL     1     -10.610  19.822  67.088  1.00  0.00    -0.577 A  
HETATM   18  C   UNL     1      -9.438  20.579  67.060  1.00  0.00    -0.516 A  
HETATM   19  C   UNL     1      -8.250  20.040  67.554  1.00  0.00    -0.329 A  
HETATM   20  C   UNL     1      -8.247  18.772  68.153  1.00  0.00    -0.304 A  
HETATM   21 CL   UNL     1      -6.818  21.000  67.399  1.00  0.00    -0.429 Cl 
HETATM   22 CL   UNL     1      -6.773  18.072  68.748  1.00  0.00    -0.239 Cl 
ENDBRANCH  14  15
ENDBRANCH  11  14
ENDBRANCH   2   3
TORSDOF 3
ENDMDL
MODEL       48
REMARK 921   NORMALIZED FREE ENERGY PREDICTED BY IDOCK:   -5.33 KCAL/MOL
REMARK 922        TOTAL FREE ENERGY PREDICTED BY IDOCK:   -6.82 KCAL/MOL
REMARK 923 INTER-LIGAND FREE ENERGY PREDICTED BY IDOCK:   -6.21 KCAL/MOL
REMARK 924 INTRA-LIGAND FREE ENERGY PREDICTED BY IDOCK:   -0.62 KCAL/MOL
REMARK 927      BINDING AFFINITY PREDICTED BY RF-SCORE:    0.00 PKD
ROOT
HETATM    1  C   UNL     1     -12.044  13.021  63.402  1.00  0.00    -0.515 C  
HETATM    2  S   UNL     1     -12.201  14.038  64.884  1.00  0.00    -0.439 SA 
ENDROOT
BRANCH   2   3
HETATM    3  C   UNL     1     -11.882  12.889  66.125  1.00  0.00    -0.429 A  
HETATM    4  N   UNL     1     -12.237  12.913  67.390  1.00  0.00    -0.324 NA 
HETATM    5  C   UNL     1     -11.637  11.803  67.945  1.00  0.00    -0.307 A  
HETATM    6  H   UNL     1     -12.828  13.600  67.858  1.00  0.00     0.000 HD 
HETATM    7  C   UNL     1     -10.903  11.109  66.990  1.00  0.00    -0.284 A  
HETATM    8  C   UNL     1     -10.105  10.007  67.291  1.00  0.00    -0.259 A  
HETATM    9  N   UNL     1     -11.136  11.789  65.827  1.00  0.00    -0.313 NA 
HETATM   10  C   UNL     1     -10.028   9.620  68.639  1.00  0.00    -0.165 A  
HETATM   11  C   UNL     1     -10.856  10.204  69.610  1.00  0.00    -0.263 A  
HETATM   12 CL   UNL     1      -8.756   8.498  69.000  1.00  0.00    -0.134 Cl 
HETATM   13  C   UNL     1     -11.642  11.327  69.266  1.00  0.00    -0.390 A  
BRANCH  11  14
HETATM   14  O   UNL     1     -10.938   9.900  70.955  1.00  0.00    -0.335 OA 
BRANCH  14  15
HETATM   15  C   UNL     1     -11.440   8.707  71.435  1.00  0.00    -0.289 A  
HETATM   16  C   UNL     1     -12.764   8.290  71.268  1.00  0.00    -0.209 A  
HETATM   17  C   UNL     1     -13.152   7.009  71.665  1.00  0.00    -0.384 A  
HETATM   18  C   UNL     1     -12.245   6.172  72.314  1.00  0.00    -0.175 A  
HETATM   19  C   UNL     1     -10.959   6.630  72.603  1.00  0.00    -0.255 A  
HETATM   20  C   UNL     1     -10.550   7.899  72.170  1.00  0.00    -0.253 A  
HETATM   21 CL   UNL     1      -9.921   5.570  73.495  1.00  0.00    -0.176 Cl 
HETATM   22 CL   UNL     1      -8.963   8.498  72.545  1.00  0.00    -0.306 Cl 
ENDBRANCH  14  15
ENDBRANCH  11  14
ENDBRANCH   2   3
TORSDOF 3
ENDMDL
MODEL       49
REMARK 921   NORMALIZED FREE ENERGY PREDICTED BY IDOCK:   -5.31 KCAL/MOL
REMARK 922        TOTAL FREE ENERGY PREDICTED BY IDOCK:   -6.80 KCAL/MOL
REMARK 923 INTER-LIGAND FREE ENERGY PREDICTED BY IDOCK:   -6.19 KCAL/MOL
REMARK 924 INTRA-LIGAND FREE ENERGY PREDICTED BY IDOCK:   -0.61 KCAL/MOL
REMARK 927      BINDING AFFINITY PREDICTED BY RF-SCORE:    0.00 PKD
ROOT
HETATM    1  C   UNL     1     -10.277   8.479  69.046  1.00  0.00    -0.207 C  
HETATM    2  S   UNL     1     -10.486   9.190  67.401  1.00  0.00    -0.245 SA 
ENDROOT
BRANCH   2   3
HETATM    3  C   UNL     1     -10.458  10.876  67.749  1.00  0.00    -0.203 A  
HETATM    4  N   UNL     1      -9.487  11.744  67.572  1.00  0.00    -0.172 NA 
HETATM    5  C   UNL     1      -9.964  12.920  68.109  1.00  0.00    -0.234 A  
HETATM    6  H   UNL     1      -8.581  11.583  67.133  1.00  0.00     0.000 HD 
HETATM    7  C   UNL     1     -11.243  12.744  68.624  1.00  0.00    -0.282 A  
HETATM    8  C   UNL     1     -11.930  13.735  69.323  1.00  0.00    -0.399 A  
HETATM    9  N   UNL     1     -11.555  11.448  68.316  1.00  0.00    -0.399 NA 
HETATM   10  C   UNL     1     -11.259  14.951  69.536  1.00  0.00    -0.277 A  
HETATM   11  C   UNL     1     -10.028  15.218  68.918  1.00  0.00    -0.225 A  
HETATM   12 CL   UNL     1     -12.001  15.993  70.707  1.00  0.00    -0.388 Cl 
HETATM   13  C   UNL     1      -9.360  14.181  68.228  1.00  0.00    -0.203 A  
BRANCH  11  14
HETATM   14  O   UNL     1      -9.274  16.374  68.984  1.00  0.00    -0.249 OA 
BRANCH  14  15
HETATM   15  C   UNL     1      -9.415  17.423  68.099  1.00  0.00    -0.288 A  
HETATM   16  C   UNL     1     -10.610  18.116  67.887  1.00  0.00    -0.389 A  
HETATM   17  C   UNL     1     -10.630  19.253  67.076  1.00  0.00    -0.571 A  
HETATM   18  C   UNL     1      -9.477  19.650  66.399  1.00  0.00    -0.479 A  
HETATM   19  C   UNL     1      -8.313  18.888  66.501  1.00  0.00    -0.302 A  
HETATM   20  C   UNL     1      -8.275  17.770  67.346  1.00  0.00    -0.214 A  
HETATM   21 CL   UNL     1      -6.951  19.389  65.557  1.00  0.00    -0.306 Cl 
HETATM   22 CL   UNL     1      -6.844  16.792  67.464  1.00  0.00    -0.156 Cl 
ENDBRANCH  14  15
ENDBRANCH  11  14
ENDBRANCH   2   3
TORSDOF 3
ENDMDL
MODEL       50
REMARK 921   NORMALIZED FREE ENERGY PREDICTED BY IDOCK:   -5.30 KCAL/MOL
REMARK 922        TOTAL FREE ENERGY PREDICTED BY IDOCK:   -6.79 KCAL/MOL
REMARK 923 INTER-LIGAND FREE ENERGY PREDICTED BY IDOCK:   -6.61 KCAL/MOL
REMARK 924 INTRA-LIGAND FREE ENERGY PREDICTED BY IDOCK:   -0.18 KCAL/MOL
REMARK 927      BINDING AFFINITY PREDICTED BY RF-SCORE:    0.00 PKD
ROOT
HETATM    1  C   UNL     1     -11.583   8.068  72.476  1.00  0.00    -0.403 C  
HETATM    2  S   UNL     1     -11.079   8.021  70.744  1.00  0.00    -0.259 SA 
ENDROOT
BRANCH   2   3
HETATM    3  C   UNL     1     -11.458   9.620  70.232  1.00  0.00    -0.233 A  
HETATM    4  N   UNL     1     -11.203  10.207  69.085  1.00  0.00    -0.351 NA 
HETATM    5  C   UNL     1     -11.635  11.505  69.250  1.00  0.00    -0.322 A  
HETATM    6  H   UNL     1     -10.779   9.793  68.255  1.00  0.00     0.000 HD 
HETATM    7  C   UNL     1     -12.152  11.695  70.526  1.00  0.00    -0.366 A  
HETATM    8  C   UNL     1     -12.564  12.936  71.008  1.00  0.00    -0.376 A  
HETATM    9  N   UNL     1     -12.087  10.457  71.104  1.00  0.00    -0.375 NA 
HETATM   10  C   UNL     1     -12.406  14.040  70.154  1.00  0.00    -0.345 A  
HETATM   11  C   UNL     1     -12.020  13.873  68.816  1.00  0.00    -0.358 A  
HETATM   12 CL   UNL     1     -12.586  15.584  70.924  1.00  0.00    -0.478 Cl 
HETATM   13  C   UNL     1     -11.598  12.599  68.371  1.00  0.00    -0.370 A  
BRANCH  11  14
HETATM   14  O   UNL     1     -11.872  14.843  67.843  1.00  0.00    -0.338 OA 
BRANCH  14  15
HETATM   15  C   UNL     1     -10.920  15.840  67.905  1.00  0.00    -0.324 A  
HETATM   16  C   UNL     1     -11.131  17.092  68.490  1.00  0.00    -0.156 A  
HETATM   17  C   UNL     1     -10.071  17.990  68.632  1.00  0.00    -0.401 A  
HETATM   18  C   UNL     1      -8.817  17.680  68.106  1.00  0.00    -0.269 A  
HETATM   19  C   UNL     1      -8.631  16.489  67.403  1.00  0.00    -0.178 A  
HETATM   20  C   UNL     1      -9.680  15.565  67.295  1.00  0.00    -0.218 A  
HETATM   21 CL   UNL     1      -7.074  16.219  66.699  1.00  0.00    -0.197 Cl 
HETATM   22 CL   UNL     1      -9.476  14.090  66.400  1.00  0.00    -0.295 Cl 
ENDBRANCH  14  15
ENDBRANCH  11  14
ENDBRANCH   2   3
TORSDOF 3
ENDMDL
MODEL       51
REMARK 921   NORMALIZED FREE ENERGY PREDICTED BY IDOCK:   -5.29 KCAL/MOL
REMARK 922        TOTAL FREE ENERGY PREDICTED BY IDOCK:   -6.78 KCAL/MOL
REMARK 923 INTER-LIGAND FREE ENERGY PREDICTED BY IDOCK:   -6.34 KCAL/MOL
REMARK 924 INTRA-LIGAND FREE ENERGY PREDICTED BY IDOCK:   -0.44 KCAL/MOL
REMARK 927      BINDING AFFINITY PREDICTED BY RF-SCORE:    0.00 PKD
ROOT
HETATM    1  C   UNL     1      -6.222   8.719  63.339  1.00  0.00    -0.085 C  
HETATM    2  S   UNL     1      -7.891   8.054  63.514  1.00  0.00    -0.133 SA 
ENDROOT
BRANCH   2   3
HETATM    3  C   UNL     1      -8.726   9.397  64.194  1.00  0.00    -0.198 A  
HETATM    4  N   UNL     1      -9.199   9.552  65.409  1.00  0.00    -0.231 NA 
HETATM    5  C   UNL     1      -9.855  10.764  65.381  1.00  0.00    -0.262 A  
HETATM    6  H   UNL     1      -9.103   8.915  66.200  1.00  0.00     0.000 HD 
HETATM    7  C   UNL     1      -9.775  11.338  64.117  1.00  0.00    -0.261 A  
HETATM    8  C   UNL     1     -10.437  12.513  63.767  1.00  0.00    -0.451 A  
HETATM    9  N   UNL     1      -8.990  10.474  63.403  1.00  0.00    -0.204 NA 
HETATM   10  C   UNL     1     -11.248  13.109  64.748  1.00  0.00    -0.324 A  
HETATM   11  C   UNL     1     -11.248  12.641  66.072  1.00  0.00    -0.306 A  
HETATM   12 CL   UNL     1     -12.318  14.338  64.157  1.00  0.00    -0.444 Cl 
HETATM   13  C   UNL     1     -10.572  11.439  66.381  1.00  0.00    -0.311 A  
BRANCH  11  14
HETATM   14  O   UNL     1     -11.942  13.146  67.154  1.00  0.00    -0.371 OA 
BRANCH  14  15
HETATM   15  C   UNL     1     -11.556  14.277  67.843  1.00  0.00    -0.336 A  
HETATM   16  C   UNL     1     -11.096  15.448  67.233  1.00  0.00    -0.302 A  
HETATM   17  C   UNL     1     -10.859  16.593  67.997  1.00  0.00    -0.337 A  
HETATM   18  C   UNL     1     -10.990  16.546  69.386  1.00  0.00    -0.288 A  
HETATM   19  C   UNL     1     -11.320  15.346  70.014  1.00  0.00    -0.306 A  
HETATM   20  C   UNL     1     -11.601  14.205  69.249  1.00  0.00    -0.304 A  
HETATM   21 CL   UNL     1     -11.371  15.343  71.744  1.00  0.00    -0.476 Cl 
HETATM   22 CL   UNL     1     -11.987  12.694  70.014  1.00  0.00    -0.411 Cl 
ENDBRANCH  14  15
ENDBRANCH  11  14
ENDBRANCH   2   3
TORSDOF 3
ENDMDL
MODEL       52
REMARK 921   NORMALIZED FREE ENERGY PREDICTED BY IDOCK:   -5.29 KCAL/MOL
REMARK 922        TOTAL FREE ENERGY PREDICTED BY IDOCK:   -6.78 KCAL/MOL
REMARK 923 INTER-LIGAND FREE ENERGY PREDICTED BY IDOCK:   -6.17 KCAL/MOL
REMARK 924 INTRA-LIGAND FREE ENERGY PREDICTED BY IDOCK:   -0.61 KCAL/MOL
REMARK 927      BINDING AFFINITY PREDICTED BY RF-SCORE:    0.00 PKD
ROOT
HETATM    1  C   UNL     1      -7.920  18.832  68.116  1.00  0.00    -0.290 C  
HETATM    2  S   UNL     1      -7.068  17.876  66.844  1.00  0.00    -0.194 SA 
ENDROOT
BRANCH   2   3
HETATM    3  C   UNL     1      -8.186  16.595  66.571  1.00  0.00    -0.295 A  
HETATM    4  N   UNL     1      -8.161  15.361  67.022  1.00  0.00    -0.216 NA 
HETATM    5  C   UNL     1      -9.235  14.744  66.418  1.00  0.00    -0.269 A  
HETATM    6  H   UNL     1      -7.494  14.951  67.675  1.00  0.00     0.000 HD 
HETATM    7  C   UNL     1      -9.908  15.630  65.585  1.00  0.00    -0.333 A  
HETATM    8  C   UNL     1     -10.970  15.252  64.764  1.00  0.00    -0.403 A  
HETATM    9  N   UNL     1      -9.255  16.819  65.758  1.00  0.00    -0.518 NA 
HETATM   10  C   UNL     1     -11.336  13.895  64.772  1.00  0.00    -0.363 A  
HETATM   11  C   UNL     1     -10.776  12.999  65.696  1.00  0.00    -0.275 A  
HETATM   12 CL   UNL     1     -12.395  13.422  63.484  1.00  0.00    -0.492 Cl 
HETATM   13  C   UNL     1      -9.694  13.420  66.502  1.00  0.00    -0.284 A  
BRANCH  11  14
HETATM   14  O   UNL     1     -11.066  11.659  65.866  1.00  0.00    -0.303 OA 
BRANCH  14  15
HETATM   15  C   UNL     1     -10.233  10.643  65.442  1.00  0.00    -0.273 A  
HETATM   16  C   UNL     1      -9.714  10.542  64.148  1.00  0.00    -0.388 A  
HETATM   17  C   UNL     1      -8.770   9.560  63.843  1.00  0.00    -0.238 A  
HETATM   18  C   UNL     1      -8.408   8.615  64.804  1.00  0.00    -0.167 A  
HETATM   19  C   UNL     1      -9.020   8.628  66.058  1.00  0.00    -0.184 A  
HETATM   20  C   UNL     1      -9.937   9.637  66.383  1.00  0.00    -0.255 A  
HETATM   21 CL   UNL     1      -8.590   7.368  67.164  1.00  0.00    -0.117 Cl 
HETATM   22 CL   UNL     1     -10.730   9.654  67.929  1.00  0.00    -0.309 Cl 
ENDBRANCH  14  15
ENDBRANCH  11  14
ENDBRANCH   2   3
TORSDOF 3
ENDMDL
MODEL       53
REMARK 921   NORMALIZED FREE ENERGY PREDICTED BY IDOCK:   -5.24 KCAL/MOL
REMARK 922        TOTAL FREE ENERGY PREDICTED BY IDOCK:   -6.72 KCAL/MOL
REMARK 923 INTER-LIGAND FREE ENERGY PREDICTED BY IDOCK:   -6.16 KCAL/MOL
REMARK 924 INTRA-LIGAND FREE ENERGY PREDICTED BY IDOCK:   -0.56 KCAL/MOL
REMARK 927      BINDING AFFINITY PREDICTED BY RF-SCORE:    0.00 PKD
ROOT
HETATM    1  C   UNL     1      -7.940   5.663  67.297  1.00  0.00    -0.102 C  
HETATM    2  S   UNL     1      -7.943   6.252  69.003  1.00  0.00    -0.111 SA 
ENDROOT
BRANCH   2   3
HETATM    3  C   UNL     1      -9.092   7.531  68.923  1.00  0.00    -0.140 A  
HETATM    4  N   UNL     1      -9.371   8.335  67.922  1.00  0.00    -0.138 NA 
HETATM    5  C   UNL     1     -10.290   9.226  68.431  1.00  0.00    -0.209 A  
HETATM    6  H   UNL     1      -8.991   8.306  66.976  1.00  0.00     0.000 HD 
HETATM    7  C   UNL     1     -10.558   8.949  69.767  1.00  0.00    -0.224 A  
HETATM    8  C   UNL     1     -11.368   9.752  70.568  1.00  0.00    -0.382 A  
HETATM    9  N   UNL     1      -9.830   7.821  70.030  1.00  0.00    -0.180 NA 
HETATM   10  C   UNL     1     -11.902  10.912  69.982  1.00  0.00    -0.347 A  
HETATM   11  C   UNL     1     -11.770  11.155  68.605  1.00  0.00    -0.320 A  
HETATM   12 CL   UNL     1     -12.584  12.044  71.104  1.00  0.00    -0.434 Cl 
HETATM   13  C   UNL     1     -10.930  10.323  67.832  1.00  0.00    -0.350 A  
BRANCH  11  14
HETATM   14  O   UNL     1     -12.277  12.212  67.875  1.00  0.00    -0.438 OA 
BRANCH  14  15
HETATM   15  C   UNL     1     -11.601  13.401  67.690  1.00  0.00    -0.340 A  
HETATM   16  C   UNL     1     -10.863  14.047  68.687  1.00  0.00    -0.272 A  
HETATM   17  C   UNL     1     -10.097  15.172  68.377  1.00  0.00    -0.225 A  
HETATM   18  C   UNL     1     -10.136  15.713  67.092  1.00  0.00    -0.256 A  
HETATM   19  C   UNL     1     -10.973  15.153  66.126  1.00  0.00    -0.331 A  
HETATM   20  C   UNL     1     -11.712  13.998  66.419  1.00  0.00    -0.391 A  
HETATM   21 CL   UNL     1     -11.040  15.936  64.584  1.00  0.00    -0.451 Cl 
HETATM   22 CL   UNL     1     -12.780  13.302  65.239  1.00  0.00    -0.522 Cl 
ENDBRANCH  14  15
ENDBRANCH  11  14
ENDBRANCH   2   3
TORSDOF 3
ENDMDL
MODEL       54
REMARK 921   NORMALIZED FREE ENERGY PREDICTED BY IDOCK:   -5.23 KCAL/MOL
REMARK 922        TOTAL FREE ENERGY PREDICTED BY IDOCK:   -6.71 KCAL/MOL
REMARK 923 INTER-LIGAND FREE ENERGY PREDICTED BY IDOCK:   -6.54 KCAL/MOL
REMARK 924 INTRA-LIGAND FREE ENERGY PREDICTED BY IDOCK:   -0.17 KCAL/MOL
REMARK 927      BINDING AFFINITY PREDICTED BY RF-SCORE:    0.00 PKD
ROOT
HETATM    1  C   UNL     1     -14.128  15.219  72.253  1.00  0.00    -0.554 C  
HETATM    2  S   UNL     1     -12.912  15.109  70.924  1.00  0.00    -0.432 SA 
ENDROOT
BRANCH   2   3
HETATM    3  C   UNL     1     -12.526  13.431  70.949  1.00  0.00    -0.359 A  
HETATM    4  N   UNL     1     -11.663  12.767  70.215  1.00  0.00    -0.548 NA 
HETATM    5  C   UNL     1     -11.830  11.449  70.580  1.00  0.00    -0.297 A  
HETATM    6  H   UNL     1     -11.011  13.144  69.527  1.00  0.00     0.000 HD 
HETATM    7  C   UNL     1     -12.821  11.327  71.547  1.00  0.00    -0.414 A  
HETATM    8  C   UNL     1     -13.278  10.100  72.025  1.00  0.00    -0.534 A  
HETATM    9  N   UNL     1     -13.196  12.616  71.810  1.00  0.00    -0.418 NA 
HETATM   10  C   UNL     1     -12.718   8.942  71.459  1.00  0.00    -0.335 A  
HETATM   11  C   UNL     1     -11.623   9.020  70.584  1.00  0.00    -0.224 A  
HETATM   12 CL   UNL     1     -13.569   7.475  71.816  1.00  0.00    -0.407 Cl 
HETATM   13  C   UNL     1     -11.199  10.284  70.115  1.00  0.00    -0.387 A  
BRANCH  11  14
HETATM   14  O   UNL     1     -10.932   7.982  69.990  1.00  0.00    -0.249 OA 
BRANCH  14  15
HETATM   15  C   UNL     1     -10.310   6.978  70.703  1.00  0.00    -0.207 A  
HETATM   16  C   UNL     1     -10.924   5.775  71.063  1.00  0.00    -0.300 A  
HETATM   17  C   UNL     1     -10.180   4.757  71.664  1.00  0.00    -0.249 A  
HETATM   18  C   UNL     1      -8.841   4.970  71.992  1.00  0.00    -0.139 A  
HETATM   19  C   UNL     1      -8.256   6.214  71.756  1.00  0.00    -0.114 A  
HETATM   20  C   UNL     1      -8.986   7.225  71.115  1.00  0.00    -0.147 A  
HETATM   21 CL   UNL     1      -6.620   6.433  72.277  1.00  0.00    -0.058 Cl 
HETATM   22 CL   UNL     1      -8.283   8.790  70.838  1.00  0.00    -0.165 Cl 
ENDBRANCH  14  15
ENDBRANCH  11  14
ENDBRANCH   2   3
TORSDOF 3
ENDMDL
MODEL       55
REMARK 921   NORMALIZED FREE ENERGY PREDICTED BY IDOCK:   -5.22 KCAL/MOL
REMARK 922        TOTAL FREE ENERGY PREDICTED BY IDOCK:   -6.70 KCAL/MOL
REMARK 923 INTER-LIGAND FREE ENERGY PREDICTED BY IDOCK:   -6.16 KCAL/MOL
REMARK 924 INTRA-LIGAND FREE ENERGY PREDICTED BY IDOCK:   -0.54 KCAL/MOL
REMARK 927      BINDING AFFINITY PREDICTED BY RF-SCORE:    0.00 PKD
ROOT
HETATM    1  C   UNL     1     -11.715  14.683  64.674  1.00  0.00    -0.426 C  
HETATM    2  S   UNL     1     -12.008  12.934  64.340  1.00  0.00    -0.426 SA 
ENDROOT
BRANCH   2   3
HETATM    3  C   UNL     1     -11.513  12.213  65.823  1.00  0.00    -0.361 A  
HETATM    4  N   UNL     1     -10.577  11.316  66.038  1.00  0.00    -0.264 NA 
HETATM    5  C   UNL     1     -10.671  11.024  67.381  1.00  0.00    -0.257 A  
HETATM    6  H   UNL     1      -9.925  10.922  65.360  1.00  0.00     0.000 HD 
HETATM    7  C   UNL     1     -11.690  11.760  67.976  1.00  0.00    -0.293 A  
HETATM    8  C   UNL     1     -12.082  11.591  69.303  1.00  0.00    -0.344 A  
HETATM    9  N   UNL     1     -12.161  12.558  66.970  1.00  0.00    -0.514 NA 
HETATM   10  C   UNL     1     -11.422  10.597  70.045  1.00  0.00    -0.325 A  
HETATM   11  C   UNL     1     -10.301   9.930  69.528  1.00  0.00    -0.229 A  
HETATM   12 CL   UNL     1     -12.187  10.184  71.545  1.00  0.00    -0.476 Cl 
HETATM   13  C   UNL     1      -9.944  10.122  68.174  1.00  0.00    -0.170 A  
BRANCH  11  14
HETATM   14  O   UNL     1      -9.518   8.974  70.145  1.00  0.00    -0.171 OA 
BRANCH  14  15
HETATM   15  C   UNL     1      -9.921   7.668  70.333  1.00  0.00    -0.188 A  
HETATM   16  C   UNL     1     -10.351   6.824  69.305  1.00  0.00    -0.221 A  
HETATM   17  C   UNL     1     -10.609   5.476  69.562  1.00  0.00    -0.366 A  
HETATM   18  C   UNL     1     -10.529   4.985  70.866  1.00  0.00    -0.212 A  
HETATM   19  C   UNL     1     -10.230   5.850  71.918  1.00  0.00    -0.203 A  
HETATM   20  C   UNL     1      -9.929   7.195  71.660  1.00  0.00    -0.177 A  
HETATM   21 CL   UNL     1     -10.243   5.189  73.517  1.00  0.00    -0.206 Cl 
HETATM   22 CL   UNL     1      -9.581   8.294  72.960  1.00  0.00    -0.330 Cl 
ENDBRANCH  14  15
ENDBRANCH  11  14
ENDBRANCH   2   3
TORSDOF 3
ENDMDL
MODEL       56
REMARK 921   NORMALIZED FREE ENERGY PREDICTED BY IDOCK:   -5.22 KCAL/MOL
REMARK 922        TOTAL FREE ENERGY PREDICTED BY IDOCK:   -6.70 KCAL/MOL
REMARK 923 INTER-LIGAND FREE ENERGY PREDICTED BY IDOCK:   -6.37 KCAL/MOL
REMARK 924 INTRA-LIGAND FREE ENERGY PREDICTED BY IDOCK:   -0.33 KCAL/MOL
REMARK 927      BINDING AFFINITY PREDICTED BY RF-SCORE:    0.00 PKD
ROOT
HETATM    1  C   UNL     1     -10.046  11.499  63.294  1.00  0.00    -0.406 C  
HETATM    2  S   UNL     1     -11.669  12.093  63.816  1.00  0.00    -0.515 SA 
ENDROOT
BRANCH   2   3
HETATM    3  C   UNL     1     -11.251  13.130  65.124  1.00  0.00    -0.294 A  
HETATM    4  N   UNL     1     -10.104  13.715  65.387  1.00  0.00    -0.442 NA 
HETATM    5  C   UNL     1     -10.297  14.343  66.598  1.00  0.00    -0.275 A  
HETATM    6  H   UNL     1      -9.256  13.706  64.819  1.00  0.00     0.000 HD 
HETATM    7  C   UNL     1     -11.586  14.120  67.068  1.00  0.00    -0.382 A  
HETATM    8  C   UNL     1     -12.028  14.546  68.320  1.00  0.00    -0.303 A  
HETATM    9  N   UNL     1     -12.189  13.402  66.073  1.00  0.00    -0.436 NA 
HETATM   10  C   UNL     1     -11.094  15.199  69.142  1.00  0.00    -0.258 A  
HETATM   11  C   UNL     1      -9.829  15.564  68.655  1.00  0.00    -0.207 A  
HETATM   12 CL   UNL     1     -11.580  15.373  70.797  1.00  0.00    -0.338 Cl 
HETATM   13  C   UNL     1      -9.416  15.103  67.384  1.00  0.00    -0.204 A  
BRANCH  11  14
HETATM   14  O   UNL     1      -8.827  16.250  69.314  1.00  0.00    -0.237 OA 
BRANCH  14  15
HETATM   15  C   UNL     1      -7.927  17.078  68.675  1.00  0.00    -0.258 A  
HETATM   16  C   UNL     1      -6.600  16.732  68.401  1.00  0.00    -0.149 A  
HETATM   17  C   UNL     1      -5.798  17.574  67.628  1.00  0.00    -0.150 A  
HETATM   18  C   UNL     1      -6.288  18.809  67.203  1.00  0.00    -0.193 A  
HETATM   19  C   UNL     1      -7.565  19.220  67.584  1.00  0.00    -0.244 A  
HETATM   20  C   UNL     1      -8.390  18.361  68.324  1.00  0.00    -0.303 A  
HETATM   21 CL   UNL     1      -8.067  20.804  67.099  1.00  0.00    -0.315 Cl 
HETATM   22 CL   UNL     1      -9.973  18.866  68.831  1.00  0.00    -0.459 Cl 
ENDBRANCH  14  15
ENDBRANCH  11  14
ENDBRANCH   2   3
TORSDOF 3
ENDMDL
MODEL       57
REMARK 921   NORMALIZED FREE ENERGY PREDICTED BY IDOCK:   -5.19 KCAL/MOL
REMARK 922        TOTAL FREE ENERGY PREDICTED BY IDOCK:   -6.66 KCAL/MOL
REMARK 923 INTER-LIGAND FREE ENERGY PREDICTED BY IDOCK:   -6.52 KCAL/MOL
REMARK 924 INTRA-LIGAND FREE ENERGY PREDICTED BY IDOCK:   -0.14 KCAL/MOL
REMARK 927      BINDING AFFINITY PREDICTED BY RF-SCORE:    0.00 PKD
ROOT
HETATM    1  C   UNL     1      -9.522  11.246  62.974  1.00  0.00    -0.367 C  
HETATM    2  S   UNL     1     -10.917  12.279  63.470  1.00  0.00    -0.427 SA 
ENDROOT
BRANCH   2   3
HETATM    3  C   UNL     1     -10.896  12.086  65.181  1.00  0.00    -0.300 A  
HETATM    4  N   UNL     1     -10.562  11.034  65.893  1.00  0.00    -0.237 NA 
HETATM    5  C   UNL     1     -10.822  11.394  67.197  1.00  0.00    -0.268 A  
HETATM    6  H   UNL     1     -10.190  10.146  65.555  1.00  0.00     0.000 HD 
HETATM    7  C   UNL     1     -11.330  12.687  67.260  1.00  0.00    -0.318 A  
HETATM    8  C   UNL     1     -11.782  13.275  68.440  1.00  0.00    -0.389 A  
HETATM    9  N   UNL     1     -11.300  13.124  65.964  1.00  0.00    -0.300 NA 
HETATM   10  C   UNL     1     -11.746  12.488  69.603  1.00  0.00    -0.302 A  
HETATM   11  C   UNL     1     -11.117  11.234  69.612  1.00  0.00    -0.206 A  
HETATM   12 CL   UNL     1     -12.648  13.128  70.939  1.00  0.00    -0.409 Cl 
HETATM   13  C   UNL     1     -10.682  10.669  68.391  1.00  0.00    -0.260 A  
BRANCH  11  14
HETATM   14  O   UNL     1     -10.952  10.370  70.677  1.00  0.00    -0.289 OA 
BRANCH  14  15
HETATM   15  C   UNL     1     -11.317   9.040  70.639  1.00  0.00    -0.265 A  
HETATM   16  C   UNL     1     -10.591   8.045  69.979  1.00  0.00    -0.242 A  
HETATM   17  C   UNL     1     -10.957   6.704  70.108  1.00  0.00    -0.358 A  
HETATM   18  C   UNL     1     -12.105   6.357  70.821  1.00  0.00    -0.162 A  
HETATM   19  C   UNL     1     -12.910   7.355  71.371  1.00  0.00    -0.365 A  
HETATM   20  C   UNL     1     -12.524   8.700  71.281  1.00  0.00    -0.252 A  
HETATM   21 CL   UNL     1     -14.368   6.854  72.159  1.00  0.00    -0.322 Cl 
HETATM   22 CL   UNL     1     -13.527   9.958  71.937  1.00  0.00    -0.477 Cl 
ENDBRANCH  14  15
ENDBRANCH  11  14
ENDBRANCH   2   3
TORSDOF 3
ENDMDL
MODEL       58
REMARK 921   NORMALIZED FREE ENERGY PREDICTED BY IDOCK:   -5.17 KCAL/MOL
REMARK 922        TOTAL FREE ENERGY PREDICTED BY IDOCK:   -6.64 KCAL/MOL
REMARK 923 INTER-LIGAND FREE ENERGY PREDICTED BY IDOCK:   -6.42 KCAL/MOL
REMARK 924 INTRA-LIGAND FREE ENERGY PREDICTED BY IDOCK:   -0.22 KCAL/MOL
REMARK 927      BINDING AFFINITY PREDICTED BY RF-SCORE:    0.00 PKD
ROOT
HETATM    1  C   UNL     1     -14.115  15.290  72.341  1.00  0.00    -0.525 C  
HETATM    2  S   UNL     1     -13.447  13.620  72.190  1.00  0.00    -0.551 SA 
ENDROOT
BRANCH   2   3
HETATM    3  C   UNL     1     -12.347  13.807  70.879  1.00  0.00    -0.380 A  
HETATM    4  N   UNL     1     -11.534  14.805  70.613  1.00  0.00    -0.399 NA 
HETATM    5  C   UNL     1     -10.963  14.481  69.402  1.00  0.00    -0.249 A  
HETATM    6  H   UNL     1     -11.363  15.636  71.179  1.00  0.00     0.000 HD 
HETATM    7  C   UNL     1     -11.454  13.267  68.935  1.00  0.00    -0.298 A  
HETATM    8  C   UNL     1     -11.133  12.742  67.684  1.00  0.00    -0.294 A  
HETATM    9  N   UNL     1     -12.282  12.831  69.932  1.00  0.00    -0.226 NA 
HETATM   10  C   UNL     1     -10.300  13.516  66.858  1.00  0.00    -0.265 A  
HETATM   11  C   UNL     1      -9.675  14.676  67.342  1.00  0.00    -0.218 A  
HETATM   12 CL   UNL     1     -10.236  13.000  65.204  1.00  0.00    -0.300 Cl 
HETATM   13  C   UNL     1     -10.037  15.180  68.612  1.00  0.00    -0.222 A  
BRANCH  11  14
HETATM   14  O   UNL     1      -8.794  15.509  66.679  1.00  0.00    -0.242 OA 
BRANCH  14  15
HETATM   15  C   UNL     1      -8.694  16.862  66.931  1.00  0.00    -0.223 A  
HETATM   16  C   UNL     1      -7.803  17.425  67.849  1.00  0.00    -0.201 A  
HETATM   17  C   UNL     1      -7.671  18.813  67.941  1.00  0.00    -0.278 A  
HETATM   18  C   UNL     1      -8.494  19.645  67.183  1.00  0.00    -0.345 A  
HETATM   19  C   UNL     1      -9.477  19.092  66.362  1.00  0.00    -0.354 A  
HETATM   20  C   UNL     1      -9.586  17.700  66.234  1.00  0.00    -0.244 A  
HETATM   21 CL   UNL     1     -10.522  20.189  65.525  1.00  0.00    -0.398 Cl 
HETATM   22 CL   UNL     1     -10.821  16.992  65.238  1.00  0.00    -0.203 Cl 
ENDBRANCH  14  15
ENDBRANCH  11  14
ENDBRANCH   2   3
TORSDOF 3
ENDMDL
MODEL       59
REMARK 921   NORMALIZED FREE ENERGY PREDICTED BY IDOCK:   -5.16 KCAL/MOL
REMARK 922        TOTAL FREE ENERGY PREDICTED BY IDOCK:   -6.63 KCAL/MOL
REMARK 923 INTER-LIGAND FREE ENERGY PREDICTED BY IDOCK:   -6.34 KCAL/MOL
REMARK 924 INTRA-LIGAND FREE ENERGY PREDICTED BY IDOCK:   -0.29 KCAL/MOL
REMARK 927      BINDING AFFINITY PREDICTED BY RF-SCORE:    0.00 PKD
ROOT
HETATM    1  C   UNL     1     -10.384   7.835  73.194  1.00  0.00    -0.340 C  
HETATM    2  S   UNL     1     -11.191   7.203  71.709  1.00  0.00    -0.254 SA 
ENDROOT
BRANCH   2   3
HETATM    3  C   UNL     1     -11.183   8.595  70.696  1.00  0.00    -0.252 A  
HETATM    4  N   UNL     1     -11.851   9.719  70.824  1.00  0.00    -0.302 NA 
HETATM    5  C   UNL     1     -11.548  10.441  69.691  1.00  0.00    -0.239 A  
HETATM    6  H   UNL     1     -12.461   9.996  71.594  1.00  0.00     0.000 HD 
HETATM    7  C   UNL     1     -10.685   9.727  68.867  1.00  0.00    -0.217 A  
HETATM    8  C   UNL     1     -10.293  10.166  67.604  1.00  0.00    -0.265 A  
HETATM    9  N   UNL     1     -10.418   8.583  69.569  1.00  0.00    -0.220 NA 
HETATM   10  C   UNL     1     -10.840  11.378  67.148  1.00  0.00    -0.268 A  
HETATM   11  C   UNL     1     -11.602  12.195  67.998  1.00  0.00    -0.348 A  
HETATM   12 CL   UNL     1     -10.614  11.685  65.457  1.00  0.00    -0.318 Cl 
HETATM   13  C   UNL     1     -11.986  11.706  69.268  1.00  0.00    -0.382 A  
BRANCH  11  14
HETATM   14  O   UNL     1     -12.160  13.428  67.721  1.00  0.00    -0.338 OA 
BRANCH  14  15
HETATM   15  C   UNL     1     -11.741  14.601  68.313  1.00  0.00    -0.328 A  
HETATM   16  C   UNL     1     -11.979  14.934  69.650  1.00  0.00    -0.360 A  
HETATM   17  C   UNL     1     -11.400  16.078  70.204  1.00  0.00    -0.369 A  
HETATM   18  C   UNL     1     -10.656  16.944  69.402  1.00  0.00    -0.292 A  
HETATM   19  C   UNL     1     -10.524  16.688  68.037  1.00  0.00    -0.320 A  
HETATM   20  C   UNL     1     -11.067  15.520  67.484  1.00  0.00    -0.305 A  
HETATM   21 CL   UNL     1      -9.668  17.857  67.090  1.00  0.00    -0.280 Cl 
HETATM   22 CL   UNL     1     -10.937  15.198  65.782  1.00  0.00    -0.344 Cl 
ENDBRANCH  14  15
ENDBRANCH  11  14
ENDBRANCH   2   3
TORSDOF 3
ENDMDL
MODEL       60
REMARK 921   NORMALIZED FREE ENERGY PREDICTED BY IDOCK:   -5.15 KCAL/MOL
REMARK 922        TOTAL FREE ENERGY PREDICTED BY IDOCK:   -6.61 KCAL/MOL
REMARK 923 INTER-LIGAND FREE ENERGY PREDICTED BY IDOCK:   -6.14 KCAL/MOL
REMARK 924 INTRA-LIGAND FREE ENERGY PREDICTED BY IDOCK:   -0.48 KCAL/MOL
REMARK 927      BINDING AFFINITY PREDICTED BY RF-SCORE:    0.00 PKD
ROOT
HETATM    1  C   UNL     1     -12.380  13.164  65.571  1.00  0.00    -0.474 C  
HETATM    2  S   UNL     1     -10.995  12.008  65.558  1.00  0.00    -0.305 SA 
ENDROOT
BRANCH   2   3
HETATM    3  C   UNL     1     -11.002  11.445  67.184  1.00  0.00    -0.285 A  
HETATM    4  N   UNL     1     -10.079  10.773  67.834  1.00  0.00    -0.169 NA 
HETATM    5  C   UNL     1     -10.640  10.500  69.062  1.00  0.00    -0.222 A  
HETATM    6  H   UNL     1      -9.150  10.510  67.502  1.00  0.00     0.000 HD 
HETATM    7  C   UNL     1     -11.929  11.016  69.141  1.00  0.00    -0.324 A  
HETATM    8  C   UNL     1     -12.775  10.800  70.227  1.00  0.00    -0.286 A  
HETATM    9  N   UNL     1     -12.102  11.672  67.953  1.00  0.00    -0.585 NA 
HETATM   10  C   UNL     1     -12.291   9.986  71.265  1.00  0.00    -0.398 A  
HETATM   11  C   UNL     1     -10.954   9.560  71.290  1.00  0.00    -0.370 A  
HETATM   12 CL   UNL     1     -13.496   9.456  72.394  1.00  0.00    -0.525 Cl 
HETATM   13  C   UNL     1     -10.133   9.791  70.163  1.00  0.00    -0.317 A  
BRANCH  11  14
HETATM   14  O   UNL     1     -10.316   8.807  72.257  1.00  0.00    -0.325 OA 
BRANCH  14  15
HETATM   15  C   UNL     1     -10.145   7.441  72.165  1.00  0.00    -0.190 A  
HETATM   16  C   UNL     1     -10.919   6.606  71.354  1.00  0.00    -0.291 A  
HETATM   17  C   UNL     1     -10.588   5.257  71.215  1.00  0.00    -0.242 A  
HETATM   18  C   UNL     1      -9.539   4.714  71.957  1.00  0.00    -0.205 A  
HETATM   19  C   UNL     1      -8.845   5.511  72.868  1.00  0.00    -0.117 A  
HETATM   20  C   UNL     1      -9.146   6.876  72.981  1.00  0.00    -0.127 A  
HETATM   21 CL   UNL     1      -7.621   4.744  73.821  1.00  0.00    -0.089 Cl 
HETATM   22 CL   UNL     1      -8.312   7.878  74.129  1.00  0.00    -0.292 Cl 
ENDBRANCH  14  15
ENDBRANCH  11  14
ENDBRANCH   2   3
TORSDOF 3
ENDMDL
MODEL       61
REMARK 921   NORMALIZED FREE ENERGY PREDICTED BY IDOCK:   -5.14 KCAL/MOL
REMARK 922        TOTAL FREE ENERGY PREDICTED BY IDOCK:   -6.61 KCAL/MOL
REMARK 923 INTER-LIGAND FREE ENERGY PREDICTED BY IDOCK:   -6.02 KCAL/MOL
REMARK 924 INTRA-LIGAND FREE ENERGY PREDICTED BY IDOCK:   -0.59 KCAL/MOL
REMARK 927      BINDING AFFINITY PREDICTED BY RF-SCORE:    0.00 PKD
ROOT
HETATM    1  C   UNL     1      -8.104  18.660  68.236  1.00  0.00    -0.314 C  
HETATM    2  S   UNL     1      -7.317  17.167  68.875  1.00  0.00    -0.221 SA 
ENDROOT
BRANCH   2   3
HETATM    3  C   UNL     1      -8.523  15.981  68.557  1.00  0.00    -0.189 A  
HETATM    4  N   UNL     1      -8.693  14.800  69.109  1.00  0.00    -0.342 NA 
HETATM    5  C   UNL     1      -9.740  14.234  68.416  1.00  0.00    -0.225 A  
HETATM    6  H   UNL     1      -8.165  14.393  69.881  1.00  0.00     0.000 HD 
HETATM    7  C   UNL     1     -10.199  15.096  67.426  1.00  0.00    -0.235 A  
HETATM    8  C   UNL     1     -11.181  14.744  66.500  1.00  0.00    -0.342 A  
HETATM    9  N   UNL     1      -9.447  16.226  67.588  1.00  0.00    -0.220 NA 
HETATM   10  C   UNL     1     -11.691  13.437  66.571  1.00  0.00    -0.373 A  
HETATM   11  C   UNL     1     -11.357  12.585  67.636  1.00  0.00    -0.306 A  
HETATM   12 CL   UNL     1     -12.620  12.945  65.193  1.00  0.00    -0.566 Cl 
HETATM   13  C   UNL     1     -10.349  12.975  68.546  1.00  0.00    -0.247 A  
BRANCH  11  14
HETATM   14  O   UNL     1     -11.811  11.302  67.875  1.00  0.00    -0.597 OA 
BRANCH  14  15
HETATM   15  C   UNL     1     -11.000  10.187  67.818  1.00  0.00    -0.277 A  
HETATM   16  C   UNL     1     -10.429   9.692  66.643  1.00  0.00    -0.233 A  
HETATM   17  C   UNL     1      -9.510   8.642  66.695  1.00  0.00    -0.267 A  
HETATM   18  C   UNL     1      -9.227   8.020  67.911  1.00  0.00    -0.137 A  
HETATM   19  C   UNL     1      -9.893   8.421  69.070  1.00  0.00    -0.183 A  
HETATM   20  C   UNL     1     -10.785   9.503  69.030  1.00  0.00    -0.202 A  
HETATM   21 CL   UNL     1      -9.561   7.539  70.522  1.00  0.00    -0.168 Cl 
HETATM   22 CL   UNL     1     -11.644   9.999  70.456  1.00  0.00    -0.373 Cl 
ENDBRANCH  14  15
ENDBRANCH  11  14
ENDBRANCH   2   3
TORSDOF 3
ENDMDL
MODEL       62
REMARK 921   NORMALIZED FREE ENERGY PREDICTED BY IDOCK:   -5.12 KCAL/MOL
REMARK 922        TOTAL FREE ENERGY PREDICTED BY IDOCK:   -6.58 KCAL/MOL
REMARK 923 INTER-LIGAND FREE ENERGY PREDICTED BY IDOCK:   -6.11 KCAL/MOL
REMARK 924 INTRA-LIGAND FREE ENERGY PREDICTED BY IDOCK:   -0.48 KCAL/MOL
REMARK 927      BINDING AFFINITY PREDICTED BY RF-SCORE:    0.00 PKD
ROOT
HETATM    1  C   UNL     1      -8.988  16.658  66.100  1.00  0.00    -0.286 C  
HETATM    2  S   UNL     1     -10.659  16.135  65.664  1.00  0.00    -0.329 SA 
ENDROOT
BRANCH   2   3
HETATM    3  C   UNL     1     -10.921  14.855  66.784  1.00  0.00    -0.326 A  
HETATM    4  N   UNL     1     -10.952  13.558  66.572  1.00  0.00    -0.289 NA 
HETATM    5  C   UNL     1     -11.295  13.010  67.789  1.00  0.00    -0.292 A  
HETATM    6  H   UNL     1     -10.763  13.066  65.699  1.00  0.00     0.000 HD 
HETATM    7  C   UNL     1     -11.478  14.004  68.743  1.00  0.00    -0.292 A  
HETATM    8  C   UNL     1     -11.933  13.748  70.036  1.00  0.00    -0.407 A  
HETATM    9  N   UNL     1     -11.166  15.163  68.088  1.00  0.00    -0.306 NA 
HETATM   10  C   UNL     1     -12.249  12.416  70.353  1.00  0.00    -0.287 A  
HETATM   11  C   UNL     1     -11.948  11.369  69.468  1.00  0.00    -0.341 A  
HETATM   12 CL   UNL     1     -13.144  12.214  71.825  1.00  0.00    -0.523 Cl 
HETATM   13  C   UNL     1     -11.499  11.672  68.163  1.00  0.00    -0.382 A  
BRANCH  11  14
HETATM   14  O   UNL     1     -12.145  10.014  69.653  1.00  0.00    -0.010 OA 
BRANCH  14  15
HETATM   15  C   UNL     1     -11.264   9.206  70.342  1.00  0.00    -0.240 A  
HETATM   16  C   UNL     1     -11.115   9.212  71.731  1.00  0.00    -0.437 A  
HETATM   17  C   UNL     1     -10.301   8.265  72.356  1.00  0.00    -0.402 A  
HETATM   18  C   UNL     1      -9.559   7.366  71.589  1.00  0.00    -0.165 A  
HETATM   19  C   UNL     1      -9.599   7.440  70.197  1.00  0.00    -0.165 A  
HETATM   20  C   UNL     1     -10.447   8.360  69.565  1.00  0.00    -0.224 A  
HETATM   21 CL   UNL     1      -8.579   6.355  69.315  1.00  0.00    -0.125 Cl 
HETATM   22 CL   UNL     1     -10.491   8.486  67.833  1.00  0.00    -0.278 Cl 
ENDBRANCH  14  15
ENDBRANCH  11  14
ENDBRANCH   2   3
TORSDOF 3
ENDMDL
MODEL       63
REMARK 921   NORMALIZED FREE ENERGY PREDICTED BY IDOCK:   -5.10 KCAL/MOL
REMARK 922        TOTAL FREE ENERGY PREDICTED BY IDOCK:   -6.55 KCAL/MOL
REMARK 923 INTER-LIGAND FREE ENERGY PREDICTED BY IDOCK:   -6.06 KCAL/MOL
REMARK 924 INTRA-LIGAND FREE ENERGY PREDICTED BY IDOCK:   -0.50 KCAL/MOL
REMARK 927      BINDING AFFINITY PREDICTED BY RF-SCORE:    0.00 PKD
ROOT
HETATM    1  C   UNL     1     -13.285  15.760  73.292  1.00  0.00    -0.581 C  
HETATM    2  S   UNL     1     -14.189  15.212  71.829  1.00  0.00    -0.610 SA 
ENDROOT
BRANCH   2   3
HETATM    3  C   UNL     1     -13.383  13.736  71.460  1.00  0.00    -0.318 A  
HETATM    4  N   UNL     1     -12.604  13.448  70.442  1.00  0.00    -0.220 NA 
HETATM    5  C   UNL     1     -12.315  12.108  70.588  1.00  0.00    -0.295 A  
HETATM    6  H   UNL     1     -12.284  14.076  69.705  1.00  0.00     0.000 HD 
HETATM    7  C   UNL     1     -12.941  11.589  71.716  1.00  0.00    -0.394 A  
HETATM    8  C   UNL     1     -12.913  10.237  72.052  1.00  0.00    -0.503 A  
HETATM    9  N   UNL     1     -13.558  12.668  72.286  1.00  0.00    -0.515 NA 
HETATM   10  C   UNL     1     -12.241   9.371  71.173  1.00  0.00    -0.323 A  
HETATM   11  C   UNL     1     -11.481   9.870  70.103  1.00  0.00    -0.248 A  
HETATM   12 CL   UNL     1     -12.547   7.685  71.439  1.00  0.00    -0.360 Cl 
HETATM   13  C   UNL     1     -11.547  11.246  69.790  1.00  0.00    -0.408 A  
BRANCH  11  14
HETATM   14  O   UNL     1     -10.726   9.160  69.189  1.00  0.00    -0.225 OA 
BRANCH  14  15
HETATM   15  C   UNL     1      -9.366   8.964  69.317  1.00  0.00    -0.149 A  
HETATM   16  C   UNL     1      -8.662   9.111  70.516  1.00  0.00    -0.258 A  
HETATM   17  C   UNL     1      -7.312   8.759  70.586  1.00  0.00    -0.072 A  
HETATM   18  C   UNL     1      -6.636   8.346  69.438  1.00  0.00    -0.041 A  
HETATM   19  C   UNL     1      -7.299   8.323  68.210  1.00  0.00    -0.095 A  
HETATM   20  C   UNL     1      -8.664   8.635  68.141  1.00  0.00    -0.142 A  
HETATM   21 CL   UNL     1      -6.370   7.892  66.815  1.00  0.00    -0.053 Cl 
HETATM   22 CL   UNL     1      -9.500   8.639  66.618  1.00  0.00    -0.243 Cl 
ENDBRANCH  14  15
ENDBRANCH  11  14
ENDBRANCH   2   3
TORSDOF 3
ENDMDL
MODEL       64
REMARK 921   NORMALIZED FREE ENERGY PREDICTED BY IDOCK:   -5.09 KCAL/MOL
REMARK 922        TOTAL FREE ENERGY PREDICTED BY IDOCK:   -6.55 KCAL/MOL
REMARK 923 INTER-LIGAND FREE ENERGY PREDICTED BY IDOCK:   -5.95 KCAL/MOL
REMARK 924 INTRA-LIGAND FREE ENERGY PREDICTED BY IDOCK:   -0.60 KCAL/MOL
REMARK 927      BINDING AFFINITY PREDICTED BY RF-SCORE:    0.00 PKD
ROOT
HETATM    1  C   UNL     1     -12.984  14.635  72.784  1.00  0.00    -0.470 C  
HETATM    2  S   UNL     1     -12.627  15.330  71.157  1.00  0.00    -0.432 SA 
ENDROOT
BRANCH   2   3
HETATM    3  C   UNL     1     -12.280  13.912  70.245  1.00  0.00    -0.358 A  
HETATM    4  N   UNL     1     -12.072  12.685  70.667  1.00  0.00    -0.507 NA 
HETATM    5  C   UNL     1     -11.744  11.974  69.532  1.00  0.00    -0.342 A  
HETATM    6  H   UNL     1     -12.138  12.335  71.622  1.00  0.00     0.000 HD 
HETATM    7  C   UNL     1     -11.752  12.799  68.414  1.00  0.00    -0.339 A  
HETATM    8  C   UNL     1     -11.355  12.375  67.147  1.00  0.00    -0.390 A  
HETATM    9  N   UNL     1     -12.164  14.012  68.892  1.00  0.00    -0.309 NA 
HETATM   10  C   UNL     1     -10.896  11.052  67.028  1.00  0.00    -0.279 A  
HETATM   11  C   UNL     1     -11.001  10.149  68.098  1.00  0.00    -0.259 A  
HETATM   12 CL   UNL     1     -10.082  10.698  65.539  1.00  0.00    -0.330 Cl 
HETATM   13  C   UNL     1     -11.397  10.623  69.369  1.00  0.00    -0.348 A  
BRANCH  11  14
HETATM   14  O   UNL     1     -10.647   8.814  68.124  1.00  0.00    -0.212 OA 
BRANCH  14  15
HETATM   15  C   UNL     1      -9.576   8.327  68.845  1.00  0.00    -0.153 A  
HETATM   16  C   UNL     1      -8.282   8.852  68.779  1.00  0.00    -0.115 A  
HETATM   17  C   UNL     1      -7.290   8.388  69.645  1.00  0.00    -0.072 A  
HETATM   18  C   UNL     1      -7.560   7.333  70.517  1.00  0.00    -0.088 A  
HETATM   19  C   UNL     1      -8.810   6.715  70.496  1.00  0.00    -0.152 A  
HETATM   20  C   UNL     1      -9.823   7.204  69.659  1.00  0.00    -0.162 A  
HETATM   21 CL   UNL     1      -9.040   5.353  71.539  1.00  0.00    -0.154 Cl 
HETATM   22 CL   UNL     1     -11.377   6.431  69.598  1.00  0.00    -0.476 Cl 
ENDBRANCH  14  15
ENDBRANCH  11  14
ENDBRANCH   2   3
TORSDOF 3
ENDMDL
MODEL       65
REMARK 921   NORMALIZED FREE ENERGY PREDICTED BY IDOCK:   -5.08 KCAL/MOL
REMARK 922        TOTAL FREE ENERGY PREDICTED BY IDOCK:   -6.54 KCAL/MOL
REMARK 923 INTER-LIGAND FREE ENERGY PREDICTED BY IDOCK:   -5.93 KCAL/MOL
REMARK 924 INTRA-LIGAND FREE ENERGY PREDICTED BY IDOCK:   -0.61 KCAL/MOL
REMARK 927      BINDING AFFINITY PREDICTED BY RF-SCORE:    0.00 PKD
ROOT
HETATM    1  C   UNL     1     -10.427   5.217  70.714  1.00  0.00    -0.228 C  
HETATM    2  S   UNL     1     -10.327   6.576  71.897  1.00  0.00    -0.201 SA 
ENDROOT
BRANCH   2   3
HETATM    3  C   UNL     1     -10.514   7.943  70.867  1.00  0.00    -0.203 A  
HETATM    4  N   UNL     1     -11.335   8.963  70.982  1.00  0.00    -0.276 NA 
HETATM    5  C   UNL     1     -11.134   9.707  69.840  1.00  0.00    -0.235 A  
HETATM    6  H   UNL     1     -11.979   9.160  71.748  1.00  0.00     0.000 HD 
HETATM    7  C   UNL     1     -10.176   9.112  69.026  1.00  0.00    -0.207 A  
HETATM    8  C   UNL     1      -9.848   9.587  67.757  1.00  0.00    -0.196 A  
HETATM    9  N   UNL     1      -9.752   8.027  69.742  1.00  0.00    -0.175 NA 
HETATM   10  C   UNL     1     -10.560  10.704  67.287  1.00  0.00    -0.263 A  
HETATM   11  C   UNL     1     -11.432  11.415  68.127  1.00  0.00    -0.305 A  
HETATM   12 CL   UNL     1     -10.376  11.020  65.592  1.00  0.00    -0.309 Cl 
HETATM   13  C   UNL     1     -11.746  10.892  69.401  1.00  0.00    -0.397 A  
BRANCH  11  14
HETATM   14  O   UNL     1     -12.158  12.553  67.834  1.00  0.00    -0.384 OA 
BRANCH  14  15
HETATM   15  C   UNL     1     -11.581  13.790  67.632  1.00  0.00    -0.347 A  
HETATM   16  C   UNL     1     -10.907  14.512  68.621  1.00  0.00    -0.259 A  
HETATM   17  C   UNL     1     -10.234  15.692  68.296  1.00  0.00    -0.223 A  
HETATM   18  C   UNL     1     -10.309  16.206  67.001  1.00  0.00    -0.290 A  
HETATM   19  C   UNL     1     -11.089  15.562  66.041  1.00  0.00    -0.185 A  
HETATM   20  C   UNL     1     -11.732  14.354  66.350  1.00  0.00    -0.386 A  
HETATM   21 CL   UNL     1     -11.211  16.310  64.485  1.00  0.00    -0.378 Cl 
HETATM   22 CL   UNL     1     -12.730  13.552  65.176  1.00  0.00    -0.481 Cl 
ENDBRANCH  14  15
ENDBRANCH  11  14
ENDBRANCH   2   3
TORSDOF 3
ENDMDL
MODEL       66
REMARK 921   NORMALIZED FREE ENERGY PREDICTED BY IDOCK:   -5.08 KCAL/MOL
REMARK 922        TOTAL FREE ENERGY PREDICTED BY IDOCK:   -6.53 KCAL/MOL
REMARK 923 INTER-LIGAND FREE ENERGY PREDICTED BY IDOCK:   -6.11 KCAL/MOL
REMARK 924 INTRA-LIGAND FREE ENERGY PREDICTED BY IDOCK:   -0.42 KCAL/MOL
REMARK 927      BINDING AFFINITY PREDICTED BY RF-SCORE:    0.00 PKD
ROOT
HETATM    1  C   UNL     1      -7.590  19.387  68.295  1.00  0.00    -0.310 C  
HETATM    2  S   UNL     1      -7.120  18.617  66.731  1.00  0.00    -0.220 SA 
ENDROOT
BRANCH   2   3
HETATM    3  C   UNL     1      -8.105  17.206  66.733  1.00  0.00    -0.243 A  
HETATM    4  N   UNL     1      -7.976  16.104  67.437  1.00  0.00    -0.149 NA 
HETATM    5  C   UNL     1      -8.973  15.272  66.975  1.00  0.00    -0.233 A  
HETATM    6  H   UNL     1      -7.290  15.908  68.165  1.00  0.00     0.000 HD 
HETATM    7  C   UNL     1      -9.706  15.892  65.968  1.00  0.00    -0.343 A  
HETATM    8  C   UNL     1     -10.707  15.248  65.244  1.00  0.00    -0.433 A  
HETATM    9  N   UNL     1      -9.171  17.148  65.886  1.00  0.00    -0.525 NA 
HETATM   10  C   UNL     1     -10.944  13.895  65.540  1.00  0.00    -0.302 A  
HETATM   11  C   UNL     1     -10.326  13.274  66.636  1.00  0.00    -0.274 A  
HETATM   12 CL   UNL     1     -11.923  13.059  64.378  1.00  0.00    -0.428 Cl 
HETATM   13  C   UNL     1      -9.308  13.958  67.337  1.00  0.00    -0.228 A  
BRANCH  11  14
HETATM   14  O   UNL     1     -10.493  11.978  67.087  1.00  0.00    -0.214 OA 
BRANCH  14  15
HETATM   15  C   UNL     1     -10.959  11.668  68.348  1.00  0.00    -0.220 A  
HETATM   16  C   UNL     1     -11.879  12.444  69.058  1.00  0.00    -0.349 A  
HETATM   17  C   UNL     1     -12.402  11.985  70.268  1.00  0.00    -0.275 A  
HETATM   18  C   UNL     1     -11.940  10.791  70.821  1.00  0.00    -0.464 A  
HETATM   19  C   UNL     1     -10.925  10.075  70.185  1.00  0.00    -0.310 A  
HETATM   20  C   UNL     1     -10.427  10.510  68.948  1.00  0.00    -0.206 A  
HETATM   21 CL   UNL     1     -10.337   8.654  70.979  1.00  0.00    -0.255 Cl 
HETATM   22 CL   UNL     1      -9.145   9.648  68.154  1.00  0.00    -0.123 Cl 
ENDBRANCH  14  15
ENDBRANCH  11  14
ENDBRANCH   2   3
TORSDOF 3
ENDMDL
MODEL       67
REMARK 921   NORMALIZED FREE ENERGY PREDICTED BY IDOCK:   -5.06 KCAL/MOL
REMARK 922        TOTAL FREE ENERGY PREDICTED BY IDOCK:   -6.51 KCAL/MOL
REMARK 923 INTER-LIGAND FREE ENERGY PREDICTED BY IDOCK:   -6.16 KCAL/MOL
REMARK 924 INTRA-LIGAND FREE ENERGY PREDICTED BY IDOCK:   -0.35 KCAL/MOL
REMARK 927      BINDING AFFINITY PREDICTED BY RF-SCORE:    0.00 PKD
ROOT
HETATM    1  C   UNL     1      -7.313   9.651  63.054  1.00  0.00    -0.113 C  
HETATM    2  S   UNL     1      -8.259   8.537  64.112  1.00  0.00    -0.101 SA 
ENDROOT
BRANCH   2   3
HETATM    3  C   UNL     1      -9.309   9.637  64.918  1.00  0.00    -0.242 A  
HETATM    4  N   UNL     1      -9.666  10.852  64.568  1.00  0.00    -0.257 NA 
HETATM    5  C   UNL     1     -10.435  11.310  65.615  1.00  0.00    -0.261 A  
HETATM    6  H   UNL     1      -9.426  11.348  63.709  1.00  0.00     0.000 HD 
HETATM    7  C   UNL     1     -10.532  10.346  66.613  1.00  0.00    -0.215 A  
HETATM    8  C   UNL     1     -11.160  10.573  67.837  1.00  0.00    -0.367 A  
HETATM    9  N   UNL     1      -9.860   9.268  66.107  1.00  0.00    -0.281 NA 
HETATM   10  C   UNL     1     -11.682  11.858  68.062  1.00  0.00    -0.312 A  
HETATM   11  C   UNL     1     -11.727  12.813  67.034  1.00  0.00    -0.374 A  
HETATM   12 CL   UNL     1     -12.113  12.188  69.709  1.00  0.00    -0.337 Cl 
HETATM   13  C   UNL     1     -11.068  12.547  65.812  1.00  0.00    -0.343 A  
BRANCH  11  14
HETATM   14  O   UNL     1     -12.251  14.090  67.080  1.00  0.00    -0.430 OA 
BRANCH  14  15
HETATM   15  C   UNL     1     -11.613  15.151  67.689  1.00  0.00    -0.277 A  
HETATM   16  C   UNL     1     -11.689  15.433  69.056  1.00  0.00    -0.380 A  
HETATM   17  C   UNL     1     -10.901  16.443  69.611  1.00  0.00    -0.346 A  
HETATM   18  C   UNL     1     -10.102  17.238  68.789  1.00  0.00    -0.337 A  
HETATM   19  C   UNL     1     -10.121  17.050  67.407  1.00  0.00    -0.291 A  
HETATM   20  C   UNL     1     -10.878  16.010  66.849  1.00  0.00    -0.203 A  
HETATM   21 CL   UNL     1      -9.178  18.137  66.445  1.00  0.00    -0.290 Cl 
HETATM   22 CL   UNL     1     -10.936  15.778  65.128  1.00  0.00    -0.403 Cl 
ENDBRANCH  14  15
ENDBRANCH  11  14
ENDBRANCH   2   3
TORSDOF 3
ENDMDL
MODEL       68
REMARK 921   NORMALIZED FREE ENERGY PREDICTED BY IDOCK:   -5.06 KCAL/MOL
REMARK 922        TOTAL FREE ENERGY PREDICTED BY IDOCK:   -6.50 KCAL/MOL
REMARK 923 INTER-LIGAND FREE ENERGY PREDICTED BY IDOCK:   -6.06 KCAL/MOL
REMARK 924 INTRA-LIGAND FREE ENERGY PREDICTED BY IDOCK:   -0.45 KCAL/MOL
REMARK 927      BINDING AFFINITY PREDICTED BY RF-SCORE:    0.00 PKD
ROOT
HETATM    1  C   UNL     1     -10.679  18.401  67.244  1.00  0.00    -0.353 C  
HETATM    2  S   UNL     1     -10.420  17.355  65.796  1.00  0.00    -0.100 SA 
ENDROOT
BRANCH   2   3
HETATM    3  C   UNL     1     -10.540  15.781  66.483  1.00  0.00    -0.306 A  
HETATM    4  N   UNL     1     -10.307  15.394  67.717  1.00  0.00    -0.249 NA 
HETATM    5  C   UNL     1     -10.461  14.025  67.691  1.00  0.00    -0.245 A  
HETATM    6  H   UNL     1     -10.066  15.979  68.517  1.00  0.00     0.000 HD 
HETATM    7  C   UNL     1     -10.786  13.589  66.412  1.00  0.00    -0.290 A  
HETATM    8  C   UNL     1     -10.896  12.243  66.067  1.00  0.00    -0.310 A  
HETATM    9  N   UNL     1     -10.896  14.740  65.681  1.00  0.00    -0.322 NA 
HETATM   10  C   UNL     1     -10.626  11.299  67.073  1.00  0.00    -0.246 A  
HETATM   11  C   UNL     1     -10.430  11.695  68.405  1.00  0.00    -0.213 A  
HETATM   12 CL   UNL     1     -10.419   9.674  66.505  1.00  0.00    -0.256 Cl 
HETATM   13  C   UNL     1     -10.314  13.070  68.710  1.00  0.00    -0.146 A  
BRANCH  11  14
HETATM   14  O   UNL     1     -10.209  10.893  69.508  1.00  0.00    -0.178 OA 
BRANCH  14  15
HETATM   15  C   UNL     1     -11.223  10.390  70.297  1.00  0.00    -0.320 A  
HETATM   16  C   UNL     1     -12.219  11.172  70.888  1.00  0.00    -0.468 A  
HETATM   17  C   UNL     1     -13.286  10.566  71.556  1.00  0.00    -0.470 A  
HETATM   18  C   UNL     1     -13.315   9.181  71.716  1.00  0.00    -0.469 A  
HETATM   19  C   UNL     1     -12.257   8.403  71.244  1.00  0.00    -0.277 A  
HETATM   20  C   UNL     1     -11.205   9.001  70.536  1.00  0.00    -0.260 A  
HETATM   21 CL   UNL     1     -12.317   6.703  71.564  1.00  0.00    -0.396 Cl 
HETATM   22 CL   UNL     1      -9.865   8.054  69.965  1.00  0.00    -0.184 Cl 
ENDBRANCH  14  15
ENDBRANCH  11  14
ENDBRANCH   2   3
TORSDOF 3
ENDMDL
MODEL       69
REMARK 921   NORMALIZED FREE ENERGY PREDICTED BY IDOCK:   -5.05 KCAL/MOL
REMARK 922        TOTAL FREE ENERGY PREDICTED BY IDOCK:   -6.49 KCAL/MOL
REMARK 923 INTER-LIGAND FREE ENERGY PREDICTED BY IDOCK:   -5.83 KCAL/MOL
REMARK 924 INTRA-LIGAND FREE ENERGY PREDICTED BY IDOCK:   -0.66 KCAL/MOL
REMARK 927      BINDING AFFINITY PREDICTED BY RF-SCORE:    0.00 PKD
ROOT
HETATM    1  C   UNL     1     -12.259  14.335  64.274  1.00  0.00    -0.423 C  
HETATM    2  S   UNL     1     -11.527  12.720  63.936  1.00  0.00    -0.477 SA 
ENDROOT
BRANCH   2   3
HETATM    3  C   UNL     1     -11.205  12.149  65.528  1.00  0.00    -0.334 A  
HETATM    4  N   UNL     1     -10.322  11.262  65.929  1.00  0.00    -0.246 NA 
HETATM    5  C   UNL     1     -10.560  11.114  67.279  1.00  0.00    -0.239 A  
HETATM    6  H   UNL     1      -9.617  10.788  65.366  1.00  0.00     0.000 HD 
HETATM    7  C   UNL     1     -11.611  11.928  67.686  1.00  0.00    -0.312 A  
HETATM    8  C   UNL     1     -12.140  11.905  68.975  1.00  0.00    -0.245 A  
HETATM    9  N   UNL     1     -11.955  12.624  66.560  1.00  0.00    -0.533 NA 
HETATM   10  C   UNL     1     -11.589  10.982  69.879  1.00  0.00    -0.337 A  
HETATM   11  C   UNL     1     -10.441  10.243  69.552  1.00  0.00    -0.244 A  
HETATM   12 CL   UNL     1     -12.513  10.743  71.327  1.00  0.00    -0.494 Cl 
HETATM   13  C   UNL     1      -9.944  10.286  68.230  1.00  0.00    -0.166 A  
BRANCH  11  14
HETATM   14  O   UNL     1      -9.753   9.343  70.342  1.00  0.00    -0.225 OA 
BRANCH  14  15
HETATM   15  C   UNL     1      -9.959   7.979  70.294  1.00  0.00    -0.189 A  
HETATM   16  C   UNL     1     -11.179   7.360  70.584  1.00  0.00    -0.292 A  
HETATM   17  C   UNL     1     -11.337   5.988  70.377  1.00  0.00    -0.322 A  
HETATM   18  C   UNL     1     -10.252   5.212  69.968  1.00  0.00    -0.354 A  
HETATM   19  C   UNL     1      -8.998   5.800  69.804  1.00  0.00    -0.129 A  
HETATM   20  C   UNL     1      -8.843   7.184  69.970  1.00  0.00    -0.142 A  
HETATM   21 CL   UNL     1      -7.680   4.758  69.389  1.00  0.00    -0.063 Cl 
HETATM   22 CL   UNL     1      -7.283   7.931  69.798  1.00  0.00    -0.065 Cl 
ENDBRANCH  14  15
ENDBRANCH  11  14
ENDBRANCH   2   3
TORSDOF 3
ENDMDL
MODEL       70
REMARK 921   NORMALIZED FREE ENERGY PREDICTED BY IDOCK:   -5.03 KCAL/MOL
REMARK 922        TOTAL FREE ENERGY PREDICTED BY IDOCK:   -6.47 KCAL/MOL
REMARK 923 INTER-LIGAND FREE ENERGY PREDICTED BY IDOCK:   -6.16 KCAL/MOL
REMARK 924 INTRA-LIGAND FREE ENERGY PREDICTED BY IDOCK:   -0.31 KCAL/MOL
REMARK 927      BINDING AFFINITY PREDICTED BY RF-SCORE:    0.00 PKD
ROOT
HETATM    1  C   UNL     1      -5.336   8.448  64.633  1.00  0.00    -0.036 C  
HETATM    2  S   UNL     1      -6.703   7.641  65.492  1.00  0.00    -0.045 SA 
ENDROOT
BRANCH   2   3
HETATM    3  C   UNL     1      -7.891   8.887  65.494  1.00  0.00    -0.100 A  
HETATM    4  N   UNL     1      -8.538   9.416  66.507  1.00  0.00    -0.132 NA 
HETATM    5  C   UNL     1      -9.433  10.294  65.935  1.00  0.00    -0.190 A  
HETATM    6  H   UNL     1      -8.407   9.220  67.500  1.00  0.00     0.000 HD 
HETATM    7  C   UNL     1      -9.319  10.281  64.549  1.00  0.00    -0.276 A  
HETATM    8  C   UNL     1     -10.171  10.991  63.705  1.00  0.00    -0.431 A  
HETATM    9  N   UNL     1      -8.280   9.425  64.305  1.00  0.00    -0.142 NA 
HETATM   10  C   UNL     1     -11.211  11.719  64.307  1.00  0.00    -0.344 A  
HETATM   11  C   UNL     1     -11.278  11.870  65.701  1.00  0.00    -0.306 A  
HETATM   12 CL   UNL     1     -12.438  12.270  63.213  1.00  0.00    -0.590 Cl 
HETATM   13  C   UNL     1     -10.402  11.124  66.521  1.00  0.00    -0.290 A  
BRANCH  11  14
HETATM   14  O   UNL     1     -12.198  12.591  66.437  1.00  0.00    -0.584 OA 
BRANCH  14  15
HETATM   15  C   UNL     1     -11.847  13.593  67.318  1.00  0.00    -0.391 A  
HETATM   16  C   UNL     1     -11.930  13.478  68.709  1.00  0.00    -0.374 A  
HETATM   17  C   UNL     1     -11.424  14.489  69.530  1.00  0.00    -0.330 A  
HETATM   18  C   UNL     1     -10.918  15.660  68.965  1.00  0.00    -0.263 A  
HETATM   19  C   UNL     1     -10.953  15.838  67.582  1.00  0.00    -0.302 A  
HETATM   20  C   UNL     1     -11.421  14.810  66.752  1.00  0.00    -0.338 A  
HETATM   21 CL   UNL     1     -10.395  17.355  66.963  1.00  0.00    -0.324 Cl 
HETATM   22 CL   UNL     1     -11.498  15.024  65.029  1.00  0.00    -0.373 Cl 
ENDBRANCH  14  15
ENDBRANCH  11  14
ENDBRANCH   2   3
TORSDOF 3
ENDMDL
MODEL       71
REMARK 921   NORMALIZED FREE ENERGY PREDICTED BY IDOCK:   -4.99 KCAL/MOL
REMARK 922        TOTAL FREE ENERGY PREDICTED BY IDOCK:   -6.43 KCAL/MOL
REMARK 923 INTER-LIGAND FREE ENERGY PREDICTED BY IDOCK:   -6.12 KCAL/MOL
REMARK 924 INTRA-LIGAND FREE ENERGY PREDICTED BY IDOCK:   -0.31 KCAL/MOL
REMARK 927      BINDING AFFINITY PREDICTED BY RF-SCORE:    0.00 PKD
ROOT
HETATM    1  C   UNL     1     -12.784  16.197  73.233  1.00  0.00    -0.504 C  
HETATM    2  S   UNL     1     -14.013  15.533  72.090  1.00  0.00    -0.491 SA 
ENDROOT
BRANCH   2   3
HETATM    3  C   UNL     1     -13.308  14.020  71.669  1.00  0.00    -0.367 A  
HETATM    4  N   UNL     1     -12.478  13.734  70.691  1.00  0.00    -0.357 NA 
HETATM    5  C   UNL     1     -12.316  12.367  70.755  1.00  0.00    -0.286 A  
HETATM    6  H   UNL     1     -12.047  14.382  70.031  1.00  0.00     0.000 HD 
HETATM    7  C   UNL     1     -13.073  11.829  71.789  1.00  0.00    -0.375 A  
HETATM    8  C   UNL     1     -13.187  10.459  72.021  1.00  0.00    -0.497 A  
HETATM    9  N   UNL     1     -13.639  12.916  72.394  1.00  0.00    -0.564 NA 
HETATM   10  C   UNL     1     -12.522   9.600  71.130  1.00  0.00    -0.332 A  
HETATM   11  C   UNL     1     -11.639  10.102  70.161  1.00  0.00    -0.277 A  
HETATM   12 CL   UNL     1     -12.991   7.935  71.241  1.00  0.00    -0.274 Cl 
HETATM   13  C   UNL     1     -11.562  11.498  69.950  1.00  0.00    -0.387 A  
BRANCH  11  14
HETATM   14  O   UNL     1     -10.877   9.393  69.253  1.00  0.00    -0.226 OA 
BRANCH  14  15
HETATM   15  C   UNL     1      -9.630   9.802  68.825  1.00  0.00    -0.154 A  
HETATM   16  C   UNL     1      -9.364  10.300  67.546  1.00  0.00    -0.164 A  
HETATM   17  C   UNL     1      -8.105  10.820  67.242  1.00  0.00    -0.117 A  
HETATM   18  C   UNL     1      -7.077  10.762  68.184  1.00  0.00    -0.078 A  
HETATM   19  C   UNL     1      -7.297  10.147  69.416  1.00  0.00    -0.106 A  
HETATM   20  C   UNL     1      -8.571   9.660  69.743  1.00  0.00    -0.199 A  
HETATM   21 CL   UNL     1      -5.949  10.027  70.495  1.00  0.00    -0.081 Cl 
HETATM   22 CL   UNL     1      -8.858   8.867  71.262  1.00  0.00    -0.284 Cl 
ENDBRANCH  14  15
ENDBRANCH  11  14
ENDBRANCH   2   3
TORSDOF 3
ENDMDL
MODEL       72
REMARK 921   NORMALIZED FREE ENERGY PREDICTED BY IDOCK:   -4.98 KCAL/MOL
REMARK 922        TOTAL FREE ENERGY PREDICTED BY IDOCK:   -6.41 KCAL/MOL
REMARK 923 INTER-LIGAND FREE ENERGY PREDICTED BY IDOCK:   -6.04 KCAL/MOL
REMARK 924 INTRA-LIGAND FREE ENERGY PREDICTED BY IDOCK:   -0.38 KCAL/MOL
REMARK 927      BINDING AFFINITY PREDICTED BY RF-SCORE:    0.00 PKD
ROOT
HETATM    1  C   UNL     1     -11.657  14.815  67.209  1.00  0.00    -0.369 C  
HETATM    2  S   UNL     1     -11.645  15.156  68.982  1.00  0.00    -0.344 SA 
ENDROOT
BRANCH   2   3
HETATM    3  C   UNL     1     -11.714  13.566  69.637  1.00  0.00    -0.314 A  
HETATM    4  N   UNL     1     -11.092  12.477  69.243  1.00  0.00    -0.421 NA 
HETATM    5  C   UNL     1     -11.583  11.477  70.055  1.00  0.00    -0.282 A  
HETATM    6  H   UNL     1     -10.398  12.392  68.500  1.00  0.00     0.000 HD 
HETATM    7  C   UNL     1     -12.523  11.983  70.946  1.00  0.00    -0.288 A  
HETATM    8  C   UNL     1     -13.262  11.181  71.814  1.00  0.00    -0.486 A  
HETATM    9  N   UNL     1     -12.532  13.328  70.700  1.00  0.00    -0.328 NA 
HETATM   10  C   UNL     1     -13.054   9.793  71.739  1.00  0.00    -0.431 A  
HETATM   11  C   UNL     1     -12.022   9.256  70.956  1.00  0.00    -0.300 A  
HETATM   12 CL   UNL     1     -14.244   8.837  72.562  1.00  0.00    -0.472 Cl 
HETATM   13  C   UNL     1     -11.303  10.102  70.081  1.00  0.00    -0.372 A  
BRANCH  11  14
HETATM   14  O   UNL     1     -11.658   7.930  70.819  1.00  0.00    -0.285 OA 
BRANCH  14  15
HETATM   15  C   UNL     1     -10.346   7.501  70.800  1.00  0.00    -0.203 A  
HETATM   16  C   UNL     1      -9.602   7.304  69.633  1.00  0.00    -0.155 A  
HETATM   17  C   UNL     1      -8.241   7.002  69.709  1.00  0.00    -0.131 A  
HETATM   18  C   UNL     1      -7.637   6.805  70.951  1.00  0.00    -0.088 A  
HETATM   19  C   UNL     1      -8.402   6.870  72.116  1.00  0.00    -0.105 A  
HETATM   20  C   UNL     1      -9.760   7.214  72.048  1.00  0.00    -0.157 A  
HETATM   21 CL   UNL     1      -7.603   6.520  73.611  1.00  0.00    -0.088 Cl 
HETATM   22 CL   UNL     1     -10.735   7.272  73.484  1.00  0.00    -0.417 Cl 
ENDBRANCH  14  15
ENDBRANCH  11  14
ENDBRANCH   2   3
TORSDOF 3
ENDMDL
MODEL       73
REMARK 921   NORMALIZED FREE ENERGY PREDICTED BY IDOCK:   -4.97 KCAL/MOL
REMARK 922        TOTAL FREE ENERGY PREDICTED BY IDOCK:   -6.40 KCAL/MOL
REMARK 923 INTER-LIGAND FREE ENERGY PREDICTED BY IDOCK:   -6.00 KCAL/MOL
REMARK 924 INTRA-LIGAND FREE ENERGY PREDICTED BY IDOCK:   -0.41 KCAL/MOL
REMARK 927      BINDING AFFINITY PREDICTED BY RF-SCORE:    0.00 PKD
ROOT
HETATM    1  C   UNL     1     -11.553  12.480  63.479  1.00  0.00    -0.508 C  
HETATM    2  S   UNL     1     -11.801  13.725  64.762  1.00  0.00    -0.414 SA 
ENDROOT
BRANCH   2   3
HETATM    3  C   UNL     1     -11.583  12.792  66.192  1.00  0.00    -0.379 A  
HETATM    4  N   UNL     1     -11.091  11.581  66.327  1.00  0.00    -0.292 NA 
HETATM    5  C   UNL     1     -11.239  11.287  67.665  1.00  0.00    -0.292 A  
HETATM    6  H   UNL     1     -10.687  10.989  65.601  1.00  0.00     0.000 HD 
HETATM    7  C   UNL     1     -11.840  12.345  68.338  1.00  0.00    -0.309 A  
HETATM    8  C   UNL     1     -12.210  12.285  69.681  1.00  0.00    -0.175 A  
HETATM    9  N   UNL     1     -11.983  13.314  67.385  1.00  0.00    -0.358 NA 
HETATM   10  C   UNL     1     -11.987  11.072  70.355  1.00  0.00    -0.368 A  
HETATM   11  C   UNL     1     -11.261  10.032  69.754  1.00  0.00    -0.258 A  
HETATM   12 CL   UNL     1     -12.790  10.934  71.885  1.00  0.00    -0.501 Cl 
HETATM   13  C   UNL     1     -10.915  10.128  68.387  1.00  0.00    -0.293 A  
BRANCH  11  14
HETATM   14  O   UNL     1     -10.915   8.810  70.298  1.00  0.00    -0.237 OA 
BRANCH  14  15
HETATM   15  C   UNL     1      -9.704   8.569  70.914  1.00  0.00    -0.187 A  
HETATM   16  C   UNL     1      -8.461   8.776  70.309  1.00  0.00    -0.154 A  
HETATM   17  C   UNL     1      -7.286   8.639  71.050  1.00  0.00    -0.079 A  
HETATM   18  C   UNL     1      -7.341   8.204  72.375  1.00  0.00    -0.130 A  
HETATM   19  C   UNL     1      -8.569   7.868  72.946  1.00  0.00    -0.180 A  
HETATM   20  C   UNL     1      -9.755   8.044  72.220  1.00  0.00    -0.229 A  
HETATM   21 CL   UNL     1      -8.548   7.246  74.561  1.00  0.00    -0.238 Cl 
HETATM   22 CL   UNL     1     -11.290   7.605  72.904  1.00  0.00    -0.418 Cl 
ENDBRANCH  14  15
ENDBRANCH  11  14
ENDBRANCH   2   3
TORSDOF 3
ENDMDL
MODEL       74
REMARK 921   NORMALIZED FREE ENERGY PREDICTED BY IDOCK:   -4.96 KCAL/MOL
REMARK 922        TOTAL FREE ENERGY PREDICTED BY IDOCK:   -6.39 KCAL/MOL
REMARK 923 INTER-LIGAND FREE ENERGY PREDICTED BY IDOCK:   -6.06 KCAL/MOL
REMARK 924 INTRA-LIGAND FREE ENERGY PREDICTED BY IDOCK:   -0.33 KCAL/MOL
REMARK 927      BINDING AFFINITY PREDICTED BY RF-SCORE:    0.00 PKD
ROOT
HETATM    1  C   UNL     1     -11.601   5.344  73.136  1.00  0.00    -0.136 C  
HETATM    2  S   UNL     1     -10.199   6.422  73.496  1.00  0.00    -0.275 SA 
ENDROOT
BRANCH   2   3
HETATM    3  C   UNL     1     -10.437   7.689  72.354  1.00  0.00    -0.248 A  
HETATM    4  N   UNL     1      -9.636   8.108  71.401  1.00  0.00    -0.157 NA 
HETATM    5  C   UNL     1     -10.276   9.201  70.858  1.00  0.00    -0.282 A  
HETATM    6  H   UNL     1      -8.738   7.711  71.123  1.00  0.00     0.000 HD 
HETATM    7  C   UNL     1     -11.481   9.439  71.509  1.00  0.00    -0.397 A  
HETATM    8  C   UNL     1     -12.289  10.543  71.242  1.00  0.00    -0.502 A  
HETATM    9  N   UNL     1     -11.586   8.417  72.411  1.00  0.00    -0.384 NA 
HETATM   10  C   UNL     1     -11.823  11.464  70.288  1.00  0.00    -0.350 A  
HETATM   11  C   UNL     1     -10.685  11.191  69.513  1.00  0.00    -0.143 A  
HETATM   12 CL   UNL     1     -12.670  12.977  70.266  1.00  0.00    -0.066 Cl 
HETATM   13  C   UNL     1      -9.888  10.067  69.824  1.00  0.00    -0.270 A  
BRANCH  11  14
HETATM   14  O   UNL     1     -10.134  11.963  68.508  1.00  0.00    -0.211 OA 
BRANCH  14  15
HETATM   15  C   UNL     1     -10.168  11.609  67.174  1.00  0.00    -0.213 A  
HETATM   16  C   UNL     1      -9.328  10.652  66.595  1.00  0.00    -0.189 A  
HETATM   17  C   UNL     1      -9.523  10.256  65.270  1.00  0.00    -0.296 A  
HETATM   18  C   UNL     1     -10.497  10.879  64.489  1.00  0.00    -0.393 A  
HETATM   19  C   UNL     1     -11.250  11.926  65.020  1.00  0.00    -0.293 A  
HETATM   20  C   UNL     1     -11.088  12.300  66.362  1.00  0.00    -0.303 A  
HETATM   21 CL   UNL     1     -12.371  12.713  63.962  1.00  0.00    -0.515 Cl 
HETATM   22 CL   UNL     1     -11.996  13.620  67.033  1.00  0.00    -0.443 Cl 
ENDBRANCH  14  15
ENDBRANCH  11  14
ENDBRANCH   2   3
TORSDOF 3
ENDMDL
MODEL       75
REMARK 921   NORMALIZED FREE ENERGY PREDICTED BY IDOCK:   -4.95 KCAL/MOL
REMARK 922        TOTAL FREE ENERGY PREDICTED BY IDOCK:   -6.38 KCAL/MOL
REMARK 923 INTER-LIGAND FREE ENERGY PREDICTED BY IDOCK:   -6.41 KCAL/MOL
REMARK 924 INTRA-LIGAND FREE ENERGY PREDICTED BY IDOCK:    0.02 KCAL/MOL
REMARK 927      BINDING AFFINITY PREDICTED BY RF-SCORE:    0.00 PKD
ROOT
HETATM    1  C   UNL     1     -12.153  12.474  63.450  1.00  0.00    -0.529 C  
HETATM    2  S   UNL     1     -11.773  13.666  64.751  1.00  0.00    -0.397 SA 
ENDROOT
BRANCH   2   3
HETATM    3  C   UNL     1     -11.512  12.630  66.100  1.00  0.00    -0.365 A  
HETATM    4  N   UNL     1     -11.014  11.414  66.129  1.00  0.00    -0.270 NA 
HETATM    5  C   UNL     1     -11.123  11.020  67.445  1.00  0.00    -0.305 A  
HETATM    6  H   UNL     1     -10.631  10.880  65.350  1.00  0.00     0.000 HD 
HETATM    7  C   UNL     1     -11.705  12.022  68.213  1.00  0.00    -0.334 A  
HETATM    8  C   UNL     1     -12.036  11.861  69.558  1.00  0.00    -0.355 A  
HETATM    9  N   UNL     1     -11.878  13.060  67.339  1.00  0.00    -0.367 NA 
HETATM   10  C   UNL     1     -11.791  10.602  70.132  1.00  0.00    -0.337 A  
HETATM   11  C   UNL     1     -11.082   9.612  69.435  1.00  0.00    -0.139 A  
HETATM   12 CL   UNL     1     -12.549  10.348  71.671  1.00  0.00    -0.519 Cl 
HETATM   13  C   UNL     1     -10.775   9.811  68.069  1.00  0.00    -0.298 A  
BRANCH  11  14
HETATM   14  O   UNL     1     -10.718   8.354  69.875  1.00  0.00    -0.232 OA 
BRANCH  14  15
HETATM   15  C   UNL     1     -10.410   8.070  71.190  1.00  0.00    -0.197 A  
HETATM   16  C   UNL     1     -11.304   7.500  72.100  1.00  0.00    -0.326 A  
HETATM   17  C   UNL     1     -10.868   7.119  73.370  1.00  0.00    -0.360 A  
HETATM   18  C   UNL     1      -9.559   7.390  73.771  1.00  0.00    -0.333 A  
HETATM   19  C   UNL     1      -8.698   8.079  72.917  1.00  0.00    -0.213 A  
HETATM   20  C   UNL     1      -9.118   8.426  71.625  1.00  0.00    -0.205 A  
HETATM   21 CL   UNL     1      -7.122   8.463  73.519  1.00  0.00    -0.150 Cl 
HETATM   22 CL   UNL     1      -8.069   9.308  70.556  1.00  0.00    -0.177 Cl 
ENDBRANCH  14  15
ENDBRANCH  11  14
ENDBRANCH   2   3
TORSDOF 3
ENDMDL
MODEL       76
REMARK 921   NORMALIZED FREE ENERGY PREDICTED BY IDOCK:   -4.95 KCAL/MOL
REMARK 922        TOTAL FREE ENERGY PREDICTED BY IDOCK:   -6.38 KCAL/MOL
REMARK 923 INTER-LIGAND FREE ENERGY PREDICTED BY IDOCK:   -6.37 KCAL/MOL
REMARK 924 INTRA-LIGAND FREE ENERGY PREDICTED BY IDOCK:   -0.01 KCAL/MOL
REMARK 927      BINDING AFFINITY PREDICTED BY RF-SCORE:    0.00 PKD
ROOT
HETATM    1  C   UNL     1     -13.181  14.954  72.716  1.00  0.00    -0.472 C  
HETATM    2  S   UNL     1     -12.898  15.353  70.979  1.00  0.00    -0.478 SA 
ENDROOT
BRANCH   2   3
HETATM    3  C   UNL     1     -12.469  13.813  70.339  1.00  0.00    -0.314 A  
HETATM    4  N   UNL     1     -12.305  12.670  70.966  1.00  0.00    -0.379 NA 
HETATM    5  C   UNL     1     -11.872  11.794  69.995  1.00  0.00    -0.342 A  
HETATM    6  H   UNL     1     -12.464  12.474  71.954  1.00  0.00     0.000 HD 
HETATM    7  C   UNL     1     -11.770  12.434  68.764  1.00  0.00    -0.332 A  
HETATM    8  C   UNL     1     -11.254  11.821  67.624  1.00  0.00    -0.345 A  
HETATM    9  N   UNL     1     -12.223  13.702  69.005  1.00  0.00    -0.296 NA 
HETATM   10  C   UNL     1     -10.789  10.502  67.759  1.00  0.00    -0.294 A  
HETATM   11  C   UNL     1     -10.999   9.776  68.942  1.00  0.00    -0.150 A  
HETATM   12 CL   UNL     1      -9.837   9.928  66.428  1.00  0.00    -0.270 Cl 
HETATM   13  C   UNL     1     -11.514  10.439  70.079  1.00  0.00    -0.382 A  
BRANCH  11  14
HETATM   14  O   UNL     1     -10.653   8.466  69.211  1.00  0.00    -0.223 OA 
BRANCH  14  15
HETATM   15  C   UNL     1     -10.856   7.864  70.436  1.00  0.00    -0.244 A  
HETATM   16  C   UNL     1     -12.007   7.148  70.778  1.00  0.00    -0.352 A  
HETATM   17  C   UNL     1     -12.070   6.455  71.988  1.00  0.00    -0.353 A  
HETATM   18  C   UNL     1     -11.022   6.548  72.904  1.00  0.00    -0.282 A  
HETATM   19  C   UNL     1      -9.928   7.368  72.628  1.00  0.00    -0.194 A  
HETATM   20  C   UNL     1      -9.839   8.032  71.397  1.00  0.00    -0.171 A  
HETATM   21 CL   UNL     1      -8.713   7.508  73.853  1.00  0.00    -0.254 Cl 
HETATM   22 CL   UNL     1      -8.497   9.079  71.045  1.00  0.00    -0.244 Cl 
ENDBRANCH  14  15
ENDBRANCH  11  14
ENDBRANCH   2   3
TORSDOF 3
ENDMDL
MODEL       77
REMARK 921   NORMALIZED FREE ENERGY PREDICTED BY IDOCK:   -4.93 KCAL/MOL
REMARK 922        TOTAL FREE ENERGY PREDICTED BY IDOCK:   -6.36 KCAL/MOL
REMARK 923 INTER-LIGAND FREE ENERGY PREDICTED BY IDOCK:   -6.20 KCAL/MOL
REMARK 924 INTRA-LIGAND FREE ENERGY PREDICTED BY IDOCK:   -0.16 KCAL/MOL
REMARK 927      BINDING AFFINITY PREDICTED BY RF-SCORE:    0.00 PKD
ROOT
HETATM    1  C   UNL     1      -8.206   6.379  68.573  1.00  0.00    -0.113 C  
HETATM    2  S   UNL     1      -8.577   7.053  66.940  1.00  0.00    -0.124 SA 
ENDROOT
BRANCH   2   3
HETATM    3  C   UNL     1      -9.567   8.402  67.341  1.00  0.00    -0.157 A  
HETATM    4  N   UNL     1      -9.812   9.489  66.644  1.00  0.00    -0.213 NA 
HETATM    5  C   UNL     1     -10.583  10.273  67.474  1.00  0.00    -0.268 A  
HETATM    6  H   UNL     1      -9.500   9.704  65.697  1.00  0.00     0.000 HD 
HETATM    7  C   UNL     1     -10.795   9.641  68.694  1.00  0.00    -0.167 A  
HETATM    8  C   UNL     1     -11.450  10.245  69.765  1.00  0.00    -0.320 A  
HETATM    9  N   UNL     1     -10.192   8.422  68.551  1.00  0.00    -0.198 NA 
HETATM   10  C   UNL     1     -11.877  11.572  69.590  1.00  0.00    -0.354 A  
HETATM   11  C   UNL     1     -11.807  12.197  68.335  1.00  0.00    -0.303 A  
HETATM   12 CL   UNL     1     -12.345  12.382  71.050  1.00  0.00    -0.400 Cl 
HETATM   13  C   UNL     1     -11.124  11.554  67.279  1.00  0.00    -0.351 A  
BRANCH  11  14
HETATM   14  O   UNL     1     -12.230  13.466  67.991  1.00  0.00    -0.289 OA 
BRANCH  14  15
HETATM   15  C   UNL     1     -11.799  14.129  66.859  1.00  0.00    -0.431 A  
HETATM   16  C   UNL     1     -12.415  14.029  65.609  1.00  0.00    -0.531 A  
HETATM   17  C   UNL     1     -11.997  14.840  64.552  1.00  0.00    -0.451 A  
HETATM   18  C   UNL     1     -10.902  15.688  64.712  1.00  0.00    -0.377 A  
HETATM   19  C   UNL     1     -10.198  15.697  65.916  1.00  0.00    -0.351 A  
HETATM   20  C   UNL     1     -10.639  14.916  66.995  1.00  0.00    -0.289 A  
HETATM   21 CL   UNL     1      -8.794  16.704  66.008  1.00  0.00    -0.305 Cl 
HETATM   22 CL   UNL     1      -9.760  14.893  68.493  1.00  0.00    -0.208 Cl 
ENDBRANCH  14  15
ENDBRANCH  11  14
ENDBRANCH   2   3
TORSDOF 3
ENDMDL
MODEL       78
REMARK 921   NORMALIZED FREE ENERGY PREDICTED BY IDOCK:   -4.92 KCAL/MOL
REMARK 922        TOTAL FREE ENERGY PREDICTED BY IDOCK:   -6.34 KCAL/MOL
REMARK 923 INTER-LIGAND FREE ENERGY PREDICTED BY IDOCK:   -6.19 KCAL/MOL
REMARK 924 INTRA-LIGAND FREE ENERGY PREDICTED BY IDOCK:   -0.15 KCAL/MOL
REMARK 927      BINDING AFFINITY PREDICTED BY RF-SCORE:    0.00 PKD
ROOT
HETATM    1  C   UNL     1      -7.286   5.977  74.278  1.00  0.00    -0.087 C  
HETATM    2  S   UNL     1      -6.842   7.607  73.644  1.00  0.00    -0.092 SA 
ENDROOT
BRANCH   2   3
HETATM    3  C   UNL     1      -8.296   8.073  72.847  1.00  0.00    -0.172 A  
HETATM    4  N   UNL     1      -8.468   8.936  71.872  1.00  0.00    -0.370 NA 
HETATM    5  C   UNL     1      -9.832   8.993  71.688  1.00  0.00    -0.296 A  
HETATM    6  H   UNL     1      -7.749   9.451  71.363  1.00  0.00     0.000 HD 
HETATM    7  C   UNL     1     -10.485   8.148  72.579  1.00  0.00    -0.339 A  
HETATM    8  C   UNL     1     -11.873   8.082  72.693  1.00  0.00    -0.380 A  
HETATM    9  N   UNL     1      -9.473   7.526  73.257  1.00  0.00    -0.215 NA 
HETATM   10  C   UNL     1     -12.625   8.947  71.880  1.00  0.00    -0.377 A  
HETATM   11  C   UNL     1     -12.014   9.712  70.874  1.00  0.00    -0.309 A  
HETATM   12 CL   UNL     1     -14.297   9.084  72.320  1.00  0.00    -0.427 Cl 
HETATM   13  C   UNL     1     -10.604   9.760  70.801  1.00  0.00    -0.371 A  
BRANCH  11  14
HETATM   14  O   UNL     1     -12.616  10.562  69.966  1.00  0.00    -0.277 OA 
BRANCH  14  15
HETATM   15  C   UNL     1     -11.911  11.425  69.153  1.00  0.00    -0.345 A  
HETATM   16  C   UNL     1     -11.289  11.047  67.959  1.00  0.00    -0.374 A  
HETATM   17  C   UNL     1     -10.716  12.011  67.128  1.00  0.00    -0.277 A  
HETATM   18  C   UNL     1     -10.678  13.347  67.529  1.00  0.00    -0.263 A  
HETATM   19  C   UNL     1     -11.178  13.713  68.779  1.00  0.00    -0.279 A  
HETATM   20  C   UNL     1     -11.793  12.756  69.599  1.00  0.00    -0.317 A  
HETATM   21 CL   UNL     1     -11.010  15.371  69.247  1.00  0.00    -0.245 Cl 
HETATM   22 CL   UNL     1     -12.397  13.187  71.170  1.00  0.00    -0.377 Cl 
ENDBRANCH  14  15
ENDBRANCH  11  14
ENDBRANCH   2   3
TORSDOF 3
ENDMDL
MODEL       79
REMARK 921   NORMALIZED FREE ENERGY PREDICTED BY IDOCK:   -4.86 KCAL/MOL
REMARK 922        TOTAL FREE ENERGY PREDICTED BY IDOCK:   -6.28 KCAL/MOL
REMARK 923 INTER-LIGAND FREE ENERGY PREDICTED BY IDOCK:   -5.83 KCAL/MOL
REMARK 924 INTRA-LIGAND FREE ENERGY PREDICTED BY IDOCK:   -0.44 KCAL/MOL
REMARK 927      BINDING AFFINITY PREDICTED BY RF-SCORE:    0.00 PKD
ROOT
HETATM    1  C   UNL     1      -6.310  19.855  65.186  1.00  0.00    -0.269 C  
HETATM    2  S   UNL     1      -7.643  20.032  66.389  1.00  0.00    -0.288 SA 
ENDROOT
BRANCH   2   3
HETATM    3  C   UNL     1      -8.342  18.459  66.362  1.00  0.00    -0.251 A  
HETATM    4  N   UNL     1      -7.801  17.305  66.681  1.00  0.00    -0.234 NA 
HETATM    5  C   UNL     1      -8.766  16.368  66.382  1.00  0.00    -0.319 A  
HETATM    6  H   UNL     1      -6.871  17.138  67.067  1.00  0.00     0.000 HD 
HETATM    7  C   UNL     1      -9.904  16.980  65.866  1.00  0.00    -0.177 A  
HETATM    8  C   UNL     1     -10.999  16.270  65.377  1.00  0.00    -0.204 A  
HETATM    9  N   UNL     1      -9.626  18.317  65.931  1.00  0.00    -0.491 NA 
HETATM   10  C   UNL     1     -10.910  14.868  65.383  1.00  0.00    -0.369 A  
HETATM   11  C   UNL     1      -9.844  14.212  66.018  1.00  0.00    -0.309 A  
HETATM   12 CL   UNL     1     -12.120  14.060  64.441  1.00  0.00    -0.474 Cl 
HETATM   13  C   UNL     1      -8.747  14.969  66.491  1.00  0.00    -0.244 A  
BRANCH  11  14
HETATM   14  O   UNL     1      -9.640  12.852  66.157  1.00  0.00    -0.260 OA 
BRANCH  14  15
HETATM   15  C   UNL     1     -10.183  12.105  67.182  1.00  0.00    -0.210 A  
HETATM   16  C   UNL     1     -10.673  12.645  68.374  1.00  0.00    -0.260 A  
HETATM   17  C   UNL     1     -11.330  11.831  69.298  1.00  0.00    -0.348 A  
HETATM   18  C   UNL     1     -11.420  10.456  69.079  1.00  0.00    -0.258 A  
HETATM   19  C   UNL     1     -10.818   9.889  67.956  1.00  0.00    -0.243 A  
HETATM   20  C   UNL     1     -10.193  10.707  67.004  1.00  0.00    -0.220 A  
HETATM   21 CL   UNL     1     -10.890   8.167  67.802  1.00  0.00    -0.152 Cl 
HETATM   22 CL   UNL     1      -9.414  10.017  65.613  1.00  0.00    -0.255 Cl 
ENDBRANCH  14  15
ENDBRANCH  11  14
ENDBRANCH   2   3
TORSDOF 3
ENDMDL
MODEL       80
REMARK 921   NORMALIZED FREE ENERGY PREDICTED BY IDOCK:   -4.86 KCAL/MOL
REMARK 922        TOTAL FREE ENERGY PREDICTED BY IDOCK:   -6.27 KCAL/MOL
REMARK 923 INTER-LIGAND FREE ENERGY PREDICTED BY IDOCK:   -6.07 KCAL/MOL
REMARK 924 INTRA-LIGAND FREE ENERGY PREDICTED BY IDOCK:   -0.20 KCAL/MOL
REMARK 927      BINDING AFFINITY PREDICTED BY RF-SCORE:    0.00 PKD
ROOT
HETATM    1  C   UNL     1      -8.215   5.889  63.215  1.00  0.00    -0.057 C  
HETATM    2  S   UNL     1      -7.230   6.553  64.573  1.00  0.00    -0.070 SA 
ENDROOT
BRANCH   2   3
HETATM    3  C   UNL     1      -8.374   7.568  65.363  1.00  0.00    -0.124 A  
HETATM    4  N   UNL     1      -8.979   8.644  64.913  1.00  0.00    -0.420 NA 
HETATM    5  C   UNL     1      -9.707   9.113  65.985  1.00  0.00    -0.287 A  
HETATM    6  H   UNL     1      -8.922   9.044  63.976  1.00  0.00     0.000 HD 
HETATM    7  C   UNL     1      -9.524   8.301  67.098  1.00  0.00    -0.160 A  
HETATM    8  C   UNL     1     -10.054   8.594  68.354  1.00  0.00    -0.217 A  
HETATM    9  N   UNL     1      -8.723   7.288  66.649  1.00  0.00    -0.126 NA 
HETATM   10  C   UNL     1     -10.774   9.794  68.483  1.00  0.00    -0.215 A  
HETATM   11  C   UNL     1     -11.098  10.569  67.358  1.00  0.00    -0.252 A  
HETATM   12 CL   UNL     1     -11.087  10.280  70.117  1.00  0.00    -0.358 Cl 
HETATM   13  C   UNL     1     -10.531  10.244  66.106  1.00  0.00    -0.200 A  
BRANCH  11  14
HETATM   14  O   UNL     1     -11.838  11.735  67.312  1.00  0.00    -0.596 OA 
BRANCH  14  15
HETATM   15  C   UNL     1     -11.612  12.741  66.394  1.00  0.00    -0.378 A  
HETATM   16  C   UNL     1     -12.299  12.866  65.183  1.00  0.00    -0.547 A  
HETATM   17  C   UNL     1     -12.105  13.991  64.378  1.00  0.00    -0.486 A  
HETATM   18  C   UNL     1     -11.157  14.950  64.733  1.00  0.00    -0.395 A  
HETATM   19  C   UNL     1     -10.373  14.766  65.872  1.00  0.00    -0.320 A  
HETATM   20  C   UNL     1     -10.592  13.661  66.706  1.00  0.00    -0.273 A  
HETATM   21 CL   UNL     1      -9.153  15.951  66.196  1.00  0.00    -0.374 Cl 
HETATM   22 CL   UNL     1      -9.608  13.400  68.114  1.00  0.00    -0.218 Cl 
ENDBRANCH  14  15
ENDBRANCH  11  14
ENDBRANCH   2   3
TORSDOF 3
ENDMDL
MODEL       81
REMARK 921   NORMALIZED FREE ENERGY PREDICTED BY IDOCK:   -4.86 KCAL/MOL
REMARK 922        TOTAL FREE ENERGY PREDICTED BY IDOCK:   -6.27 KCAL/MOL
REMARK 923 INTER-LIGAND FREE ENERGY PREDICTED BY IDOCK:   -5.85 KCAL/MOL
REMARK 924 INTRA-LIGAND FREE ENERGY PREDICTED BY IDOCK:   -0.42 KCAL/MOL
REMARK 927      BINDING AFFINITY PREDICTED BY RF-SCORE:    0.00 PKD
ROOT
HETATM    1  C   UNL     1     -12.069  13.064  63.379  1.00  0.00    -0.515 C  
HETATM    2  S   UNL     1     -12.625  13.716  64.968  1.00  0.00    -0.353 SA 
ENDROOT
BRANCH   2   3
HETATM    3  C   UNL     1     -11.799  12.684  66.070  1.00  0.00    -0.436 A  
HETATM    4  N   UNL     1     -12.119  12.359  67.302  1.00  0.00    -0.494 NA 
HETATM    5  C   UNL     1     -11.066  11.591  67.749  1.00  0.00    -0.260 A  
HETATM    6  H   UNL     1     -12.961  12.619  67.815  1.00  0.00     0.000 HD 
HETATM    7  C   UNL     1     -10.096  11.462  66.761  1.00  0.00    -0.216 A  
HETATM    8  C   UNL     1      -8.872  10.828  66.969  1.00  0.00    -0.137 A  
HETATM    9  N   UNL     1     -10.625  12.113  65.682  1.00  0.00    -0.253 NA 
HETATM   10  C   UNL     1      -8.616  10.334  68.260  1.00  0.00    -0.122 A  
HETATM   11  C   UNL     1      -9.618  10.320  69.243  1.00  0.00    -0.224 A  
HETATM   12 CL   UNL     1      -6.965   9.895  68.554  1.00  0.00    -0.066 Cl 
HETATM   13  C   UNL     1     -10.841  10.985  68.995  1.00  0.00    -0.274 A  
BRANCH  11  14
HETATM   14  O   UNL     1      -9.542   9.826  70.530  1.00  0.00    -0.239 OA 
BRANCH  14  15
HETATM   15  C   UNL     1     -10.385   8.849  71.020  1.00  0.00    -0.253 A  
HETATM   16  C   UNL     1     -11.581   9.110  71.694  1.00  0.00    -0.449 A  
HETATM   17  C   UNL     1     -12.441   8.063  72.033  1.00  0.00    -0.357 A  
HETATM   18  C   UNL     1     -12.067   6.743  71.782  1.00  0.00    -0.393 A  
HETATM   19  C   UNL     1     -10.817   6.465  71.229  1.00  0.00    -0.257 A  
HETATM   20  C   UNL     1      -9.968   7.514  70.848  1.00  0.00    -0.180 A  
HETATM   21 CL   UNL     1     -10.386   4.800  71.036  1.00  0.00    -0.237 Cl 
HETATM   22 CL   UNL     1      -8.396   7.189  70.184  1.00  0.00    -0.135 Cl 
ENDBRANCH  14  15
ENDBRANCH  11  14
ENDBRANCH   2   3
TORSDOF 3
ENDMDL
MODEL       82
REMARK 921   NORMALIZED FREE ENERGY PREDICTED BY IDOCK:   -4.85 KCAL/MOL
REMARK 922        TOTAL FREE ENERGY PREDICTED BY IDOCK:   -6.26 KCAL/MOL
REMARK 923 INTER-LIGAND FREE ENERGY PREDICTED BY IDOCK:   -6.03 KCAL/MOL
REMARK 924 INTRA-LIGAND FREE ENERGY PREDICTED BY IDOCK:   -0.23 KCAL/MOL
REMARK 927      BINDING AFFINITY PREDICTED BY RF-SCORE:    0.00 PKD
ROOT
HETATM    1  C   UNL     1      -9.039   3.856  69.420  1.00  0.00    -0.131 C  
HETATM    2  S   UNL     1      -9.996   4.514  70.801  1.00  0.00    -0.166 SA 
ENDROOT
BRANCH   2   3
HETATM    3  C   UNL     1     -10.276   6.133  70.286  1.00  0.00    -0.199 A  
HETATM    4  N   UNL     1      -9.618   6.847  69.400  1.00  0.00    -0.148 NA 
HETATM    5  C   UNL     1     -10.201   8.095  69.452  1.00  0.00    -0.211 A  
HETATM    6  H   UNL     1      -8.847   6.545  68.806  1.00  0.00     0.000 HD 
HETATM    7  C   UNL     1     -11.223   8.123  70.394  1.00  0.00    -0.221 A  
HETATM    8  C   UNL     1     -11.916   9.283  70.735  1.00  0.00    -0.269 A  
HETATM    9  N   UNL     1     -11.290   6.839  70.858  1.00  0.00    -0.295 NA 
HETATM   10  C   UNL     1     -11.520  10.476  70.108  1.00  0.00    -0.325 A  
HETATM   11  C   UNL     1     -10.591  10.468  69.055  1.00  0.00    -0.222 A  
HETATM   12 CL   UNL     1     -12.153  11.920  70.829  1.00  0.00    -0.409 Cl 
HETATM   13  C   UNL     1      -9.902   9.273  68.749  1.00  0.00    -0.174 A  
BRANCH  11  14
HETATM   14  O   UNL     1     -10.141  11.539  68.308  1.00  0.00    -0.186 OA 
BRANCH  14  15
HETATM   15  C   UNL     1     -10.961  12.296  67.496  1.00  0.00    -0.254 A  
HETATM   16  C   UNL     1     -11.696  13.401  67.935  1.00  0.00    -0.396 A  
HETATM   17  C   UNL     1     -12.391  14.193  67.019  1.00  0.00    -0.253 A  
HETATM   18  C   UNL     1     -12.431  13.832  65.672  1.00  0.00    -0.541 A  
HETATM   19  C   UNL     1     -11.810  12.658  65.247  1.00  0.00    -0.408 A  
HETATM   20  C   UNL     1     -11.075  11.882  66.155  1.00  0.00    -0.326 A  
HETATM   21 CL   UNL     1     -11.984  12.227  63.579  1.00  0.00    -0.599 Cl 
HETATM   22 CL   UNL     1     -10.318  10.402  65.650  1.00  0.00    -0.300 Cl 
ENDBRANCH  14  15
ENDBRANCH  11  14
ENDBRANCH   2   3
TORSDOF 3
ENDMDL
MODEL       83
REMARK 921   NORMALIZED FREE ENERGY PREDICTED BY IDOCK:   -4.85 KCAL/MOL
REMARK 922        TOTAL FREE ENERGY PREDICTED BY IDOCK:   -6.26 KCAL/MOL
REMARK 923 INTER-LIGAND FREE ENERGY PREDICTED BY IDOCK:   -5.99 KCAL/MOL
REMARK 924 INTRA-LIGAND FREE ENERGY PREDICTED BY IDOCK:   -0.27 KCAL/MOL
REMARK 927      BINDING AFFINITY PREDICTED BY RF-SCORE:    0.00 PKD
ROOT
HETATM    1  C   UNL     1     -10.813   6.666  68.337  1.00  0.00    -0.255 C  
HETATM    2  S   UNL     1      -9.946   7.582  67.045  1.00  0.00    -0.258 SA 
ENDROOT
BRANCH   2   3
HETATM    3  C   UNL     1     -10.230   9.209  67.528  1.00  0.00    -0.245 A  
HETATM    4  N   UNL     1     -11.295   9.734  68.091  1.00  0.00    -0.520 NA 
HETATM    5  C   UNL     1     -11.024  11.083  68.168  1.00  0.00    -0.247 A  
HETATM    6  H   UNL     1     -12.136   9.250  68.404  1.00  0.00     0.000 HD 
HETATM    7  C   UNL     1      -9.773  11.366  67.631  1.00  0.00    -0.172 A  
HETATM    8  C   UNL     1      -9.282  12.662  67.478  1.00  0.00    -0.190 A  
HETATM    9  N   UNL     1      -9.266  10.142  67.295  1.00  0.00    -0.138 NA 
HETATM   10  C   UNL     1     -10.127  13.718  67.860  1.00  0.00    -0.246 A  
HETATM   11  C   UNL     1     -11.335  13.473  68.531  1.00  0.00    -0.292 A  
HETATM   12 CL   UNL     1      -9.622  15.284  67.314  1.00  0.00    -0.210 Cl 
HETATM   13  C   UNL     1     -11.802  12.145  68.655  1.00  0.00    -0.358 A  
BRANCH  11  14
HETATM   14  O   UNL     1     -12.243  14.396  69.015  1.00  0.00    -0.290 OA 
BRANCH  14  15
HETATM   15  C   UNL     1     -12.586  14.495  70.347  1.00  0.00    -0.346 A  
HETATM   16  C   UNL     1     -13.416  13.589  71.014  1.00  0.00     0.034 A  
HETATM   17  C   UNL     1     -13.599  13.688  72.395  1.00  0.00    -0.703 A  
HETATM   18  C   UNL     1     -13.030  14.747  73.102  1.00  0.00    -0.623 A  
HETATM   19  C   UNL     1     -12.310  15.730  72.424  1.00  0.00    -0.456 A  
HETATM   20  C   UNL     1     -12.087  15.613  71.044  1.00  0.00    -0.400 A  
HETATM   21 CL   UNL     1     -11.715  17.063  73.354  1.00  0.00    -0.047 Cl 
HETATM   22 CL   UNL     1     -11.217  16.842  70.177  1.00  0.00    -0.029 Cl 
ENDBRANCH  14  15
ENDBRANCH  11  14
ENDBRANCH   2   3
TORSDOF 3
ENDMDL
MODEL       84
REMARK 921   NORMALIZED FREE ENERGY PREDICTED BY IDOCK:   -4.83 KCAL/MOL
REMARK 922        TOTAL FREE ENERGY PREDICTED BY IDOCK:   -6.24 KCAL/MOL
REMARK 923 INTER-LIGAND FREE ENERGY PREDICTED BY IDOCK:   -6.00 KCAL/MOL
REMARK 924 INTRA-LIGAND FREE ENERGY PREDICTED BY IDOCK:   -0.24 KCAL/MOL
REMARK 927      BINDING AFFINITY PREDICTED BY RF-SCORE:    0.00 PKD
ROOT
HETATM    1  C   UNL     1     -14.140  15.112  71.905  1.00  0.00    -0.552 C  
HETATM    2  S   UNL     1     -12.950  13.818  71.496  1.00  0.00    -0.356 SA 
ENDROOT
BRANCH   2   3
HETATM    3  C   UNL     1     -11.802  14.690  70.556  1.00  0.00    -0.304 A  
HETATM    4  N   UNL     1     -10.495  14.563  70.514  1.00  0.00    -0.113 NA 
HETATM    5  C   UNL     1     -10.071  15.570  69.674  1.00  0.00    -0.293 A  
HETATM    6  H   UNL     1      -9.921  13.872  70.997  1.00  0.00     0.000 HD 
HETATM    7  C   UNL     1     -11.150  16.315  69.212  1.00  0.00    -0.325 A  
HETATM    8  C   UNL     1     -11.010  17.462  68.432  1.00  0.00    -0.118 A  
HETATM    9  N   UNL     1     -12.244  15.686  69.738  1.00  0.00    -0.332 NA 
HETATM   10  C   UNL     1      -9.702  17.884  68.141  1.00  0.00    -0.320 A  
HETATM   11  C   UNL     1      -8.593  17.088  68.469  1.00  0.00    -0.257 A  
HETATM   12 CL   UNL     1      -9.585  19.488  67.494  1.00  0.00    -0.403 Cl 
HETATM   13  C   UNL     1      -8.777  15.940  69.271  1.00  0.00    -0.250 A  
BRANCH  11  14
HETATM   14  O   UNL     1      -7.259  17.336  68.207  1.00  0.00    -0.195 OA 
BRANCH  14  15
HETATM   15  C   UNL     1      -6.715  18.603  68.173  1.00  0.00    -0.224 A  
HETATM   16  C   UNL     1      -6.539  19.411  69.300  1.00  0.00    -0.361 A  
HETATM   17  C   UNL     1      -5.853  20.624  69.196  1.00  0.00    -0.395 A  
HETATM   18  C   UNL     1      -5.421  21.078  67.950  1.00  0.00    -0.348 A  
HETATM   19  C   UNL     1      -5.709  20.341  66.802  1.00  0.00    -0.173 A  
HETATM   20  C   UNL     1      -6.360  19.103  66.905  1.00  0.00    -0.186 A  
HETATM   21 CL   UNL     1      -5.225  21.015  65.283  1.00  0.00    -0.233 Cl 
HETATM   22 CL   UNL     1      -6.752  18.183  65.484  1.00  0.00    -0.256 Cl 
ENDBRANCH  14  15
ENDBRANCH  11  14
ENDBRANCH   2   3
TORSDOF 3
ENDMDL
MODEL       85
REMARK 921   NORMALIZED FREE ENERGY PREDICTED BY IDOCK:   -4.81 KCAL/MOL
REMARK 922        TOTAL FREE ENERGY PREDICTED BY IDOCK:   -6.22 KCAL/MOL
REMARK 923 INTER-LIGAND FREE ENERGY PREDICTED BY IDOCK:   -5.91 KCAL/MOL
REMARK 924 INTRA-LIGAND FREE ENERGY PREDICTED BY IDOCK:   -0.31 KCAL/MOL
REMARK 927      BINDING AFFINITY PREDICTED BY RF-SCORE:    0.00 PKD
ROOT
HETATM    1  C   UNL     1      -7.732   7.911  69.072  1.00  0.00    -0.101 C  
HETATM    2  S   UNL     1      -9.533   7.816  68.994  1.00  0.00    -0.150 SA 
ENDROOT
BRANCH   2   3
HETATM    3  C   UNL     1      -9.942   9.422  68.529  1.00  0.00    -0.173 A  
HETATM    4  N   UNL     1     -10.081  10.493  69.277  1.00  0.00    -0.223 NA 
HETATM    5  C   UNL     1     -10.508  11.476  68.411  1.00  0.00    -0.207 A  
HETATM    6  H   UNL     1      -9.909  10.579  70.279  1.00  0.00     0.000 HD 
HETATM    7  C   UNL     1     -10.632  10.974  67.120  1.00  0.00    -0.250 A  
HETATM    8  C   UNL     1     -11.148  11.715  66.058  1.00  0.00    -0.325 A  
HETATM    9  N   UNL     1     -10.198   9.681  67.217  1.00  0.00    -0.217 NA 
HETATM   10  C   UNL     1     -11.589  13.019  66.340  1.00  0.00    -0.363 A  
HETATM   11  C   UNL     1     -11.356  13.609  67.592  1.00  0.00    -0.300 A  
HETATM   12 CL   UNL     1     -12.544  13.748  65.089  1.00  0.00    -0.473 Cl 
HETATM   13  C   UNL     1     -10.842  12.819  68.645  1.00  0.00    -0.284 A  
BRANCH  11  14
HETATM   14  O   UNL     1     -11.678  14.887  68.004  1.00  0.00    -0.333 OA 
BRANCH  14  15
HETATM   15  C   UNL     1     -11.017  16.016  67.564  1.00  0.00    -0.261 A  
HETATM   16  C   UNL     1     -10.578  16.206  66.251  1.00  0.00    -0.276 A  
HETATM   17  C   UNL     1     -10.042  17.434  65.859  1.00  0.00    -0.219 A  
HETATM   18  C   UNL     1      -9.857  18.449  66.799  1.00  0.00    -0.351 A  
HETATM   19  C   UNL     1     -10.170  18.221  68.139  1.00  0.00    -0.387 A  
HETATM   20  C   UNL     1     -10.748  17.005  68.530  1.00  0.00    -0.352 A  
HETATM   21 CL   UNL     1      -9.824  19.493  69.261  1.00  0.00    -0.441 Cl 
HETATM   22 CL   UNL     1     -11.120  16.693  70.199  1.00  0.00    -0.222 Cl 
ENDBRANCH  14  15
ENDBRANCH  11  14
ENDBRANCH   2   3
TORSDOF 3
ENDMDL
MODEL       86
REMARK 921   NORMALIZED FREE ENERGY PREDICTED BY IDOCK:   -4.79 KCAL/MOL
REMARK 922        TOTAL FREE ENERGY PREDICTED BY IDOCK:   -6.19 KCAL/MOL
REMARK 923 INTER-LIGAND FREE ENERGY PREDICTED BY IDOCK:   -5.73 KCAL/MOL
REMARK 924 INTRA-LIGAND FREE ENERGY PREDICTED BY IDOCK:   -0.46 KCAL/MOL
REMARK 927      BINDING AFFINITY PREDICTED BY RF-SCORE:    0.00 PKD
ROOT
HETATM    1  C   UNL     1     -12.148  13.274  63.504  1.00  0.00    -0.482 C  
HETATM    2  S   UNL     1     -12.246  14.033  65.138  1.00  0.00    -0.455 SA 
ENDROOT
BRANCH   2   3
HETATM    3  C   UNL     1     -11.590  12.791  66.134  1.00  0.00    -0.379 A  
HETATM    4  N   UNL     1     -12.131  12.179  67.162  1.00  0.00    -0.532 NA 
HETATM    5  C   UNL     1     -11.139  11.352  67.643  1.00  0.00    -0.268 A  
HETATM    6  H   UNL     1     -13.078  12.291  67.526  1.00  0.00     0.000 HD 
HETATM    7  C   UNL     1      -9.980  11.481  66.886  1.00  0.00    -0.205 A  
HETATM    8  C   UNL     1      -8.782  10.845  67.206  1.00  0.00    -0.131 A  
HETATM    9  N   UNL     1     -10.323  12.355  65.891  1.00  0.00    -0.251 NA 
HETATM   10  C   UNL     1      -8.761  10.069  68.377  1.00  0.00    -0.117 A  
HETATM   11  C   UNL     1      -9.940   9.801  69.091  1.00  0.00    -0.189 A  
HETATM   12 CL   UNL     1      -7.178   9.612  68.916  1.00  0.00    -0.070 Cl 
HETATM   13  C   UNL     1     -11.131  10.476  68.740  1.00  0.00    -0.315 A  
BRANCH  11  14
HETATM   14  O   UNL     1     -10.093   9.021  70.220  1.00  0.00    -0.179 OA 
BRANCH  14  15
HETATM   15  C   UNL     1     -10.204   7.646  70.183  1.00  0.00    -0.204 A  
HETATM   16  C   UNL     1     -10.041   6.876  69.028  1.00  0.00    -0.175 A  
HETATM   17  C   UNL     1     -10.033   5.482  69.106  1.00  0.00    -0.256 A  
HETATM   18  C   UNL     1     -10.280   4.849  70.325  1.00  0.00    -0.299 A  
HETATM   19  C   UNL     1     -10.575   5.608  71.457  1.00  0.00    -0.244 A  
HETATM   20  C   UNL     1     -10.543   7.009  71.393  1.00  0.00    -0.217 A  
HETATM   21 CL   UNL     1     -10.964   4.750  72.909  1.00  0.00    -0.309 Cl 
HETATM   22 CL   UNL     1     -10.934   7.971  72.786  1.00  0.00    -0.450 Cl 
ENDBRANCH  14  15
ENDBRANCH  11  14
ENDBRANCH   2   3
TORSDOF 3
ENDMDL
MODEL       87
REMARK 921   NORMALIZED FREE ENERGY PREDICTED BY IDOCK:   -4.78 KCAL/MOL
REMARK 922        TOTAL FREE ENERGY PREDICTED BY IDOCK:   -6.19 KCAL/MOL
REMARK 923 INTER-LIGAND FREE ENERGY PREDICTED BY IDOCK:   -5.65 KCAL/MOL
REMARK 924 INTRA-LIGAND FREE ENERGY PREDICTED BY IDOCK:   -0.54 KCAL/MOL
REMARK 927      BINDING AFFINITY PREDICTED BY RF-SCORE:    0.00 PKD
ROOT
HETATM    1  C   UNL     1      -5.943  20.385  64.743  1.00  0.00    -0.252 C  
HETATM    2  S   UNL     1      -6.996  20.428  66.209  1.00  0.00    -0.227 SA 
ENDROOT
BRANCH   2   3
HETATM    3  C   UNL     1      -7.560  18.803  66.274  1.00  0.00    -0.262 A  
HETATM    4  N   UNL     1      -8.692  18.299  65.838  1.00  0.00    -0.469 NA 
HETATM    5  C   UNL     1      -8.666  16.980  66.235  1.00  0.00    -0.250 A  
HETATM    6  H   UNL     1      -9.428  18.779  65.320  1.00  0.00     0.000 HD 
HETATM    7  C   UNL     1      -7.495  16.696  66.928  1.00  0.00    -0.228 A  
HETATM    8  C   UNL     1      -7.246  15.468  67.540  1.00  0.00    -0.222 A  
HETATM    9  N   UNL     1      -6.781  17.862  66.876  1.00  0.00    -0.170 NA 
HETATM   10  C   UNL     1      -8.260  14.498  67.467  1.00  0.00    -0.187 A  
HETATM   11  C   UNL     1      -9.394  14.693  66.664  1.00  0.00    -0.271 A  
HETATM   12 CL   UNL     1      -8.053  13.151  68.539  1.00  0.00    -0.124 Cl 
HETATM   13  C   UNL     1      -9.614  15.957  66.071  1.00  0.00    -0.385 A  
BRANCH  11  14
HETATM   14  O   UNL     1     -10.445  13.823  66.447  1.00  0.00    -0.277 OA 
BRANCH  14  15
HETATM   15  C   UNL     1     -10.340  12.686  65.673  1.00  0.00    -0.273 A  
HETATM   16  C   UNL     1     -10.169  12.694  64.285  1.00  0.00    -0.358 A  
HETATM   17  C   UNL     1      -9.934  11.501  63.598  1.00  0.00    -0.409 A  
HETATM   18  C   UNL     1      -9.961  10.284  64.280  1.00  0.00    -0.293 A  
HETATM   19  C   UNL     1     -10.263  10.256  65.642  1.00  0.00    -0.231 A  
HETATM   20  C   UNL     1     -10.458  11.453  66.345  1.00  0.00    -0.254 A  
HETATM   21 CL   UNL     1     -10.372   8.703  66.398  1.00  0.00    -0.260 Cl 
HETATM   22 CL   UNL     1     -10.862  11.436  68.034  1.00  0.00    -0.243 Cl 
ENDBRANCH  14  15
ENDBRANCH  11  14
ENDBRANCH   2   3
TORSDOF 3
ENDMDL
MODEL       88
REMARK 921   NORMALIZED FREE ENERGY PREDICTED BY IDOCK:   -4.77 KCAL/MOL
REMARK 922        TOTAL FREE ENERGY PREDICTED BY IDOCK:   -6.16 KCAL/MOL
REMARK 923 INTER-LIGAND FREE ENERGY PREDICTED BY IDOCK:   -5.70 KCAL/MOL
REMARK 924 INTRA-LIGAND FREE ENERGY PREDICTED BY IDOCK:   -0.46 KCAL/MOL
REMARK 927      BINDING AFFINITY PREDICTED BY RF-SCORE:    0.00 PKD
ROOT
HETATM    1  C   UNL     1      -8.558   4.544  63.508  1.00  0.00    -0.125 C  
HETATM    2  S   UNL     1     -10.075   3.763  64.097  1.00  0.00    -0.220 SA 
ENDROOT
BRANCH   2   3
HETATM    3  C   UNL     1     -10.154   4.344  65.715  1.00  0.00    -0.245 A  
HETATM    4  N   UNL     1     -10.560   5.513  66.159  1.00  0.00    -0.515 NA 
HETATM    5  C   UNL     1     -10.320   5.478  67.515  1.00  0.00    -0.214 A  
HETATM    6  H   UNL     1     -10.964   6.277  65.618  1.00  0.00     0.000 HD 
HETATM    7  C   UNL     1      -9.752   4.263  67.884  1.00  0.00    -0.114 A  
HETATM    8  C   UNL     1      -9.306   3.989  69.176  1.00  0.00    -0.236 A  
HETATM    9  N   UNL     1      -9.724   3.538  66.725  1.00  0.00    -0.107 NA 
HETATM   10  C   UNL     1      -9.414   5.019  70.125  1.00  0.00    -0.169 A  
HETATM   11  C   UNL     1     -10.103   6.206  69.831  1.00  0.00    -0.178 A  
HETATM   12 CL   UNL     1      -8.522   4.755  71.587  1.00  0.00    -0.115 Cl 
HETATM   13  C   UNL     1     -10.529   6.450  68.506  1.00  0.00    -0.265 A  
BRANCH  11  14
HETATM   14  O   UNL     1     -10.340   7.282  70.664  1.00  0.00    -0.202 OA 
BRANCH  14  15
HETATM   15  C   UNL     1     -11.605   7.713  71.007  1.00  0.00    -0.282 A  
HETATM   16  C   UNL     1     -12.696   6.862  71.210  1.00  0.00    -0.368 A  
HETATM   17  C   UNL     1     -13.905   7.370  71.689  1.00  0.00    -0.490 A  
HETATM   18  C   UNL     1     -14.060   8.743  71.879  1.00  0.00    -0.488 A  
HETATM   19  C   UNL     1     -13.020   9.614  71.553  1.00  0.00    -0.395 A  
HETATM   20  C   UNL     1     -11.790   9.106  71.112  1.00  0.00    -0.307 A  
HETATM   21 CL   UNL     1     -13.320  11.309  71.725  1.00  0.00    -0.450 Cl 
HETATM   22 CL   UNL     1     -10.492  10.175  70.674  1.00  0.00    -0.216 Cl 
ENDBRANCH  14  15
ENDBRANCH  11  14
ENDBRANCH   2   3
TORSDOF 3
ENDMDL
MODEL       89
REMARK 921   NORMALIZED FREE ENERGY PREDICTED BY IDOCK:   -4.75 KCAL/MOL
REMARK 922        TOTAL FREE ENERGY PREDICTED BY IDOCK:   -6.15 KCAL/MOL
REMARK 923 INTER-LIGAND FREE ENERGY PREDICTED BY IDOCK:   -5.86 KCAL/MOL
REMARK 924 INTRA-LIGAND FREE ENERGY PREDICTED BY IDOCK:   -0.29 KCAL/MOL
REMARK 927      BINDING AFFINITY PREDICTED BY RF-SCORE:    0.00 PKD
ROOT
HETATM    1  C   UNL     1     -13.013  14.651  73.064  1.00  0.00    -0.510 C  
HETATM    2  S   UNL     1     -12.455  15.573  71.617  1.00  0.00    -0.445 SA 
ENDROOT
BRANCH   2   3
HETATM    3  C   UNL     1     -12.220  14.309  70.472  1.00  0.00    -0.356 A  
HETATM    4  N   UNL     1     -12.012  13.028  70.681  1.00  0.00    -0.528 NA 
HETATM    5  C   UNL     1     -11.795  12.498  69.428  1.00  0.00    -0.308 A  
HETATM    6  H   UNL     1     -12.011  12.536  71.574  1.00  0.00     0.000 HD 
HETATM    7  C   UNL     1     -11.870  13.487  68.454  1.00  0.00    -0.373 A  
HETATM    8  C   UNL     1     -11.587  13.258  67.109  1.00  0.00    -0.402 A  
HETATM    9  N   UNL     1     -12.210  14.616  69.146  1.00  0.00    -0.238 NA 
HETATM   10  C   UNL     1     -11.174  11.964  66.751  1.00  0.00    -0.327 A  
HETATM   11  C   UNL     1     -11.219  10.907  67.673  1.00  0.00    -0.309 A  
HETATM   12 CL   UNL     1     -10.492  11.833  65.162  1.00  0.00    -0.314 Cl 
HETATM   13  C   UNL     1     -11.499  11.184  69.031  1.00  0.00    -0.364 A  
BRANCH  11  14
HETATM   14  O   UNL     1     -10.900   9.579  67.465  1.00  0.00    -0.280 OA 
BRANCH  14  15
HETATM   15  C   UNL     1     -10.110   8.844  68.325  1.00  0.00    -0.187 A  
HETATM   16  C   UNL     1     -10.605   8.086  69.390  1.00  0.00    -0.210 A  
HETATM   17  C   UNL     1      -9.749   7.263  70.125  1.00  0.00    -0.172 A  
HETATM   18  C   UNL     1      -8.379   7.263  69.859  1.00  0.00    -0.135 A  
HETATM   19  C   UNL     1      -7.859   8.116  68.886  1.00  0.00    -0.112 A  
HETATM   20  C   UNL     1      -8.719   8.913  68.116  1.00  0.00    -0.134 A  
HETATM   21 CL   UNL     1      -6.141   8.130  68.679  1.00  0.00    -0.043 Cl 
HETATM   22 CL   UNL     1      -8.087  10.002  66.918  1.00  0.00    -0.116 Cl 
ENDBRANCH  14  15
ENDBRANCH  11  14
ENDBRANCH   2   3
TORSDOF 3
ENDMDL
MODEL       90
REMARK 921   NORMALIZED FREE ENERGY PREDICTED BY IDOCK:   -4.73 KCAL/MOL
REMARK 922        TOTAL FREE ENERGY PREDICTED BY IDOCK:   -6.12 KCAL/MOL
REMARK 923 INTER-LIGAND FREE ENERGY PREDICTED BY IDOCK:   -5.72 KCAL/MOL
REMARK 924 INTRA-LIGAND FREE ENERGY PREDICTED BY IDOCK:   -0.40 KCAL/MOL
REMARK 927      BINDING AFFINITY PREDICTED BY RF-SCORE:    0.00 PKD
ROOT
HETATM    1  C   UNL     1     -12.587  13.926  65.725  1.00  0.00    -0.494 C  
HETATM    2  S   UNL     1     -11.919  14.199  67.379  1.00  0.00    -0.361 SA 
ENDROOT
BRANCH   2   3
HETATM    3  C   UNL     1     -11.362  12.623  67.790  1.00  0.00    -0.297 A  
HETATM    4  N   UNL     1     -10.735  12.220  68.872  1.00  0.00    -0.344 NA 
HETATM    5  C   UNL     1     -10.442  10.894  68.636  1.00  0.00    -0.194 A  
HETATM    6  H   UNL     1     -10.513  12.768  69.703  1.00  0.00     0.000 HD 
HETATM    7  C   UNL     1     -10.900  10.504  67.383  1.00  0.00    -0.291 A  
HETATM    8  C   UNL     1     -10.649   9.247  66.834  1.00  0.00    -0.239 A  
HETATM    9  N   UNL     1     -11.542  11.610  66.898  1.00  0.00    -0.542 NA 
HETATM   10  C   UNL     1      -9.862   8.362  67.590  1.00  0.00    -0.173 A  
HETATM   11  C   UNL     1      -9.498   8.664  68.911  1.00  0.00    -0.146 A  
HETATM   12 CL   UNL     1      -9.283   6.980  66.718  1.00  0.00    -0.168 Cl 
HETATM   13  C   UNL     1      -9.761   9.954  69.425  1.00  0.00    -0.228 A  
BRANCH  11  14
HETATM   14  O   UNL     1      -8.778   7.884  69.796  1.00  0.00    -0.135 OA 
BRANCH  14  15
HETATM   15  C   UNL     1      -9.195   7.616  71.084  1.00  0.00    -0.147 A  
HETATM   16  C   UNL     1      -8.614   8.171  72.228  1.00  0.00    -0.234 A  
HETATM   17  C   UNL     1      -9.186   7.954  73.483  1.00  0.00    -0.340 A  
HETATM   18  C   UNL     1     -10.287   7.107  73.613  1.00  0.00    -0.411 A  
HETATM   19  C   UNL     1     -10.792   6.444  72.494  1.00  0.00    -0.238 A  
HETATM   20  C   UNL     1     -10.248   6.691  71.225  1.00  0.00    -0.200 A  
HETATM   21 CL   UNL     1     -12.097   5.337  72.749  1.00  0.00    -0.122 Cl 
HETATM   22 CL   UNL     1     -10.844   5.855  69.824  1.00  0.00    -0.421 Cl 
ENDBRANCH  14  15
ENDBRANCH  11  14
ENDBRANCH   2   3
TORSDOF 3
ENDMDL
MODEL       91
REMARK 921   NORMALIZED FREE ENERGY PREDICTED BY IDOCK:   -4.72 KCAL/MOL
REMARK 922        TOTAL FREE ENERGY PREDICTED BY IDOCK:   -6.11 KCAL/MOL
REMARK 923 INTER-LIGAND FREE ENERGY PREDICTED BY IDOCK:   -5.91 KCAL/MOL
REMARK 924 INTRA-LIGAND FREE ENERGY PREDICTED BY IDOCK:   -0.20 KCAL/MOL
REMARK 927      BINDING AFFINITY PREDICTED BY RF-SCORE:    0.00 PKD
ROOT
HETATM    1  C   UNL     1      -9.987  17.355  69.023  1.00  0.00    -0.265 C  
HETATM    2  S   UNL     1     -10.925  16.109  69.931  1.00  0.00    -0.363 SA 
ENDROOT
BRANCH   2   3
HETATM    3  C   UNL     1     -11.041  14.849  68.763  1.00  0.00    -0.264 A  
HETATM    4  N   UNL     1     -10.273  13.796  68.598  1.00  0.00    -0.282 NA 
HETATM    5  C   UNL     1     -10.758  13.180  67.465  1.00  0.00    -0.238 A  
HETATM    6  H   UNL     1      -9.489  13.501  69.180  1.00  0.00     0.000 HD 
HETATM    7  C   UNL     1     -11.835  13.887  66.942  1.00  0.00    -0.423 A  
HETATM    8  C   UNL     1     -12.457  13.555  65.740  1.00  0.00    -0.514 A  
HETATM    9  N   UNL     1     -12.033  14.907  67.832  1.00  0.00    -0.263 NA 
HETATM   10  C   UNL     1     -11.927  12.469  65.022  1.00  0.00    -0.427 A  
HETATM   11  C   UNL     1     -10.934  11.648  65.578  1.00  0.00    -0.270 A  
HETATM   12 CL   UNL     1     -12.492  12.335  63.388  1.00  0.00    -0.644 Cl 
HETATM   13  C   UNL     1     -10.322  12.027  66.794  1.00  0.00    -0.233 A  
BRANCH  11  14
HETATM   14  O   UNL     1     -10.353  10.522  65.027  1.00  0.00    -0.316 OA 
BRANCH  14  15
HETATM   15  C   UNL     1      -9.862   9.475  65.781  1.00  0.00    -0.293 A  
HETATM   16  C   UNL     1     -10.557   8.872  66.833  1.00  0.00    -0.254 A  
HETATM   17  C   UNL     1     -10.045   7.730  67.452  1.00  0.00    -0.288 A  
HETATM   18  C   UNL     1      -8.793   7.238  67.085  1.00  0.00    -0.125 A  
HETATM   19  C   UNL     1      -8.033   7.911  66.127  1.00  0.00    -0.104 A  
HETATM   20  C   UNL     1      -8.560   9.033  65.473  1.00  0.00    -0.168 A  
HETATM   21 CL   UNL     1      -6.451   7.295  65.794  1.00  0.00    -0.044 Cl 
HETATM   22 CL   UNL     1      -7.619   9.901  64.298  1.00  0.00    -0.135 Cl 
ENDBRANCH  14  15
ENDBRANCH  11  14
ENDBRANCH   2   3
TORSDOF 3
ENDMDL
MODEL       92
REMARK 921   NORMALIZED FREE ENERGY PREDICTED BY IDOCK:   -4.72 KCAL/MOL
REMARK 922        TOTAL FREE ENERGY PREDICTED BY IDOCK:   -6.11 KCAL/MOL
REMARK 923 INTER-LIGAND FREE ENERGY PREDICTED BY IDOCK:   -5.74 KCAL/MOL
REMARK 924 INTRA-LIGAND FREE ENERGY PREDICTED BY IDOCK:   -0.36 KCAL/MOL
REMARK 927      BINDING AFFINITY PREDICTED BY RF-SCORE:    0.00 PKD
ROOT
HETATM    1  C   UNL     1     -10.439  19.931  66.778  1.00  0.00    -0.451 C  
HETATM    2  S   UNL     1      -9.629  19.493  68.330  1.00  0.00    -0.407 SA 
ENDROOT
BRANCH   2   3
HETATM    3  C   UNL     1      -9.831  17.784  68.353  1.00  0.00    -0.347 A  
HETATM    4  N   UNL     1      -8.998  16.855  68.764  1.00  0.00    -0.266 NA 
HETATM    5  C   UNL     1      -9.624  15.663  68.466  1.00  0.00    -0.199 A  
HETATM    6  H   UNL     1      -8.088  16.986  69.206  1.00  0.00     0.000 HD 
HETATM    7  C   UNL     1     -10.853  15.891  67.858  1.00  0.00    -0.327 A  
HETATM    8  C   UNL     1     -11.657  14.871  67.352  1.00  0.00    -0.347 A  
HETATM    9  N   UNL     1     -10.985  17.252  67.864  1.00  0.00    -0.275 NA 
HETATM   10  C   UNL     1     -11.160  13.559  67.441  1.00  0.00    -0.281 A  
HETATM   11  C   UNL     1      -9.994  13.273  68.167  1.00  0.00    -0.234 A  
HETATM   12 CL   UNL     1     -12.014  12.394  66.483  1.00  0.00    -0.401 Cl 
HETATM   13  C   UNL     1      -9.202  14.337  68.654  1.00  0.00    -0.167 A  
BRANCH  11  14
HETATM   14  O   UNL     1      -9.410  12.041  68.391  1.00  0.00    -0.200 OA 
BRANCH  14  15
HETATM   15  C   UNL     1      -9.328  11.054  67.430  1.00  0.00    -0.155 A  
HETATM   16  C   UNL     1      -8.598  11.172  66.244  1.00  0.00    -0.180 A  
HETATM   17  C   UNL     1      -8.457  10.074  65.392  1.00  0.00    -0.158 A  
HETATM   18  C   UNL     1      -9.120   8.880  65.675  1.00  0.00    -0.269 A  
HETATM   19  C   UNL     1      -9.958   8.795  66.787  1.00  0.00    -0.268 A  
HETATM   20  C   UNL     1     -10.070   9.880  67.668  1.00  0.00    -0.197 A  
HETATM   21 CL   UNL     1     -10.821   7.313  67.019  1.00  0.00    -0.424 Cl 
HETATM   22 CL   UNL     1     -11.129   9.803  69.043  1.00  0.00    -0.188 Cl 
ENDBRANCH  14  15
ENDBRANCH  11  14
ENDBRANCH   2   3
TORSDOF 3
ENDMDL
MODEL       93
REMARK 921   NORMALIZED FREE ENERGY PREDICTED BY IDOCK:   -4.70 KCAL/MOL
REMARK 922        TOTAL FREE ENERGY PREDICTED BY IDOCK:   -6.09 KCAL/MOL
REMARK 923 INTER-LIGAND FREE ENERGY PREDICTED BY IDOCK:   -5.56 KCAL/MOL
REMARK 924 INTRA-LIGAND FREE ENERGY PREDICTED BY IDOCK:   -0.53 KCAL/MOL
REMARK 927      BINDING AFFINITY PREDICTED BY RF-SCORE:    0.00 PKD
ROOT
HETATM    1  C   UNL     1     -11.217  11.826  63.826  1.00  0.00    -0.436 C  
HETATM    2  S   UNL     1     -11.511  13.023  65.144  1.00  0.00    -0.319 SA 
ENDROOT
BRANCH   2   3
HETATM    3  C   UNL     1     -11.307  12.046  66.547  1.00  0.00    -0.354 A  
HETATM    4  N   UNL     1     -10.702  10.887  66.671  1.00  0.00    -0.251 NA 
HETATM    5  C   UNL     1     -10.922  10.512  67.978  1.00  0.00    -0.290 A  
HETATM    6  H   UNL     1     -10.183  10.376  65.956  1.00  0.00     0.000 HD 
HETATM    7  C   UNL     1     -11.681  11.468  68.644  1.00  0.00    -0.326 A  
HETATM    8  C   UNL     1     -12.146  11.303  69.948  1.00  0.00    -0.414 A  
HETATM    9  N   UNL     1     -11.851  12.464  67.723  1.00  0.00    -0.436 NA 
HETATM   10  C   UNL     1     -11.849  10.087  70.586  1.00  0.00    -0.325 A  
HETATM   11  C   UNL     1     -10.973   9.157  70.004  1.00  0.00    -0.220 A  
HETATM   12 CL   UNL     1     -12.749   9.791  72.038  1.00  0.00    -0.473 Cl 
HETATM   13  C   UNL     1     -10.534   9.357  68.676  1.00  0.00    -0.236 A  
BRANCH  11  14
HETATM   14  O   UNL     1     -10.543   7.951  70.522  1.00  0.00    -0.215 OA 
BRANCH  14  15
HETATM   15  C   UNL     1      -9.549   7.845  71.473  1.00  0.00    -0.151 A  
HETATM   16  C   UNL     1      -9.660   8.324  72.781  1.00  0.00    -0.338 A  
HETATM   17  C   UNL     1      -8.660   8.052  73.717  1.00  0.00    -0.328 A  
HETATM   18  C   UNL     1      -7.501   7.379  73.328  1.00  0.00    -0.099 A  
HETATM   19  C   UNL     1      -7.324   7.013  71.993  1.00  0.00    -0.082 A  
HETATM   20  C   UNL     1      -8.343   7.247  71.058  1.00  0.00    -0.119 A  
HETATM   21 CL   UNL     1      -5.821   6.268  71.568  1.00  0.00    -0.031 Cl 
HETATM   22 CL   UNL     1      -8.129   6.824  69.387  1.00  0.00    -0.121 Cl 
ENDBRANCH  14  15
ENDBRANCH  11  14
ENDBRANCH   2   3
TORSDOF 3
ENDMDL
MODEL       94
REMARK 921   NORMALIZED FREE ENERGY PREDICTED BY IDOCK:   -4.69 KCAL/MOL
REMARK 922        TOTAL FREE ENERGY PREDICTED BY IDOCK:   -6.08 KCAL/MOL
REMARK 923 INTER-LIGAND FREE ENERGY PREDICTED BY IDOCK:   -5.47 KCAL/MOL
REMARK 924 INTRA-LIGAND FREE ENERGY PREDICTED BY IDOCK:   -0.61 KCAL/MOL
REMARK 927      BINDING AFFINITY PREDICTED BY RF-SCORE:    0.00 PKD
ROOT
HETATM    1  C   UNL     1     -11.335  14.522  64.749  1.00  0.00    -0.396 C  
HETATM    2  S   UNL     1     -12.360  13.892  66.095  1.00  0.00    -0.438 SA 
ENDROOT
BRANCH   2   3
HETATM    3  C   UNL     1     -11.451  12.523  66.606  1.00  0.00    -0.359 A  
HETATM    4  N   UNL     1     -11.861  11.438  67.225  1.00  0.00    -0.568 NA 
HETATM    5  C   UNL     1     -10.712  10.722  67.479  1.00  0.00    -0.264 A  
HETATM    6  H   UNL     1     -12.819  11.183  67.464  1.00  0.00     0.000 HD 
HETATM    7  C   UNL     1      -9.594  11.400  67.006  1.00  0.00    -0.176 A  
HETATM    8  C   UNL     1      -8.287  10.963  67.219  1.00  0.00    -0.123 A  
HETATM    9  N   UNL     1     -10.106  12.511  66.395  1.00  0.00    -0.238 NA 
HETATM   10  C   UNL     1      -8.118   9.795  67.982  1.00  0.00    -0.105 A  
HETATM   11  C   UNL     1      -9.218   9.008  68.359  1.00  0.00    -0.136 A  
HETATM   12 CL   UNL     1      -6.494   9.508  68.519  1.00  0.00    -0.052 Cl 
HETATM   13  C   UNL     1     -10.526   9.494  68.134  1.00  0.00    -0.268 A  
BRANCH  11  14
HETATM   14  O   UNL     1      -9.214   7.817  69.057  1.00  0.00    -0.144 OA 
BRANCH  14  15
HETATM   15  C   UNL     1      -9.486   7.728  70.407  1.00  0.00    -0.164 A  
HETATM   16  C   UNL     1      -8.977   8.604  71.370  1.00  0.00    -0.286 A  
HETATM   17  C   UNL     1      -9.413   8.525  72.694  1.00  0.00    -0.295 A  
HETATM   18  C   UNL     1     -10.290   7.512  73.082  1.00  0.00    -0.402 A  
HETATM   19  C   UNL     1     -10.699   6.553  72.156  1.00  0.00    -0.221 A  
HETATM   20  C   UNL     1     -10.298   6.651  70.816  1.00  0.00    -0.202 A  
HETATM   21 CL   UNL     1     -11.710   5.272  72.734  1.00  0.00    -0.293 Cl 
HETATM   22 CL   UNL     1     -10.775   5.451  69.654  1.00  0.00    -0.344 Cl 
ENDBRANCH  14  15
ENDBRANCH  11  14
ENDBRANCH   2   3
TORSDOF 3
ENDMDL
MODEL       95
REMARK 921   NORMALIZED FREE ENERGY PREDICTED BY IDOCK:   -4.68 KCAL/MOL
REMARK 922        TOTAL FREE ENERGY PREDICTED BY IDOCK:   -6.07 KCAL/MOL
REMARK 923 INTER-LIGAND FREE ENERGY PREDICTED BY IDOCK:   -5.61 KCAL/MOL
REMARK 924 INTRA-LIGAND FREE ENERGY PREDICTED BY IDOCK:   -0.46 KCAL/MOL
REMARK 927      BINDING AFFINITY PREDICTED BY RF-SCORE:    0.00 PKD
ROOT
HETATM    1  C   UNL     1     -13.079  14.519  71.813  1.00  0.00    -0.346 C  
HETATM    2  S   UNL     1     -12.430  15.368  70.359  1.00  0.00    -0.375 SA 
ENDROOT
BRANCH   2   3
HETATM    3  C   UNL     1     -11.869  14.045  69.411  1.00  0.00    -0.333 A  
HETATM    4  N   UNL     1     -10.958  13.144  69.701  1.00  0.00    -0.456 NA 
HETATM    5  C   UNL     1     -10.835  12.387  68.556  1.00  0.00    -0.242 A  
HETATM    6  H   UNL     1     -10.454  13.029  70.580  1.00  0.00     0.000 HD 
HETATM    7  C   UNL     1     -11.687  12.854  67.561  1.00  0.00    -0.367 A  
HETATM    8  C   UNL     1     -11.698  12.347  66.263  1.00  0.00    -0.457 A  
HETATM    9  N   UNL     1     -12.381  13.868  68.161  1.00  0.00    -0.131 NA 
HETATM   10  C   UNL     1     -10.768  11.339  65.960  1.00  0.00    -0.242 A  
HETATM   11  C   UNL     1      -9.988  10.745  66.965  1.00  0.00    -0.197 A  
HETATM   12 CL   UNL     1     -10.577  11.012  64.268  1.00  0.00    -0.430 Cl 
HETATM   13  C   UNL     1      -9.998  11.297  68.266  1.00  0.00    -0.201 A  
BRANCH  11  14
HETATM   14  O   UNL     1      -9.075   9.716  66.839  1.00  0.00    -0.136 OA 
BRANCH  14  15
HETATM   15  C   UNL     1      -9.433   8.384  66.804  1.00  0.00    -0.197 A  
HETATM   16  C   UNL     1     -10.582   7.864  67.407  1.00  0.00    -0.342 A  
HETATM   17  C   UNL     1     -10.940   6.529  67.205  1.00  0.00    -0.480 A  
HETATM   18  C   UNL     1     -10.104   5.683  66.476  1.00  0.00    -0.225 A  
HETATM   19  C   UNL     1      -8.889   6.161  65.983  1.00  0.00    -0.153 A  
HETATM   20  C   UNL     1      -8.545   7.510  66.146  1.00  0.00    -0.149 A  
HETATM   21 CL   UNL     1      -7.862   5.029  65.172  1.00  0.00    -0.087 Cl 
HETATM   22 CL   UNL     1      -7.025   8.117  65.563  1.00  0.00    -0.062 Cl 
ENDBRANCH  14  15
ENDBRANCH  11  14
ENDBRANCH   2   3
TORSDOF 3
ENDMDL
MODEL       96
REMARK 921   NORMALIZED FREE ENERGY PREDICTED BY IDOCK:   -4.64 KCAL/MOL
REMARK 922        TOTAL FREE ENERGY PREDICTED BY IDOCK:   -6.02 KCAL/MOL
REMARK 923 INTER-LIGAND FREE ENERGY PREDICTED BY IDOCK:   -5.38 KCAL/MOL
REMARK 924 INTRA-LIGAND FREE ENERGY PREDICTED BY IDOCK:   -0.63 KCAL/MOL
REMARK 927      BINDING AFFINITY PREDICTED BY RF-SCORE:    0.00 PKD
ROOT
HETATM    1  C   UNL     1     -11.247  16.208  70.365  1.00  0.00    -0.381 C  
HETATM    2  S   UNL     1     -12.476  14.905  70.596  1.00  0.00    -0.378 SA 
ENDROOT
BRANCH   2   3
HETATM    3  C   UNL     1     -12.140  13.875  69.258  1.00  0.00    -0.339 A  
HETATM    4  N   UNL     1     -11.759  12.618  69.254  1.00  0.00    -0.310 NA 
HETATM    5  C   UNL     1     -11.540  12.320  67.926  1.00  0.00    -0.354 A  
HETATM    6  H   UNL     1     -11.650  11.998  70.056  1.00  0.00     0.000 HD 
HETATM    7  C   UNL     1     -11.790  13.429  67.125  1.00  0.00    -0.382 A  
HETATM    8  C   UNL     1     -11.549  13.451  65.752  1.00  0.00    -0.358 A  
HETATM    9  N   UNL     1     -12.236  14.382  67.998  1.00  0.00    -0.222 NA 
HETATM   10  C   UNL     1     -10.993  12.294  65.180  1.00  0.00    -0.303 A  
HETATM   11  C   UNL     1     -10.855  11.111  65.924  1.00  0.00    -0.157 A  
HETATM   12 CL   UNL     1     -10.381  12.503  63.571  1.00  0.00    -0.392 Cl 
HETATM   13  C   UNL     1     -11.099  11.136  67.315  1.00  0.00    -0.366 A  
BRANCH  11  14
HETATM   14  O   UNL     1     -10.379   9.887  65.496  1.00  0.00    -0.213 OA 
BRANCH  14  15
HETATM   15  C   UNL     1      -9.112   9.423  65.783  1.00  0.00    -0.200 A  
HETATM   16  C   UNL     1      -7.934  10.029  65.335  1.00  0.00    -0.141 A  
HETATM   17  C   UNL     1      -6.694   9.574  65.785  1.00  0.00    -0.083 A  
HETATM   18  C   UNL     1      -6.618   8.453  66.613  1.00  0.00    -0.056 A  
HETATM   19  C   UNL     1      -7.780   7.762  66.957  1.00  0.00    -0.104 A  
HETATM   20  C   UNL     1      -9.032   8.239  66.542  1.00  0.00    -0.156 A  
HETATM   21 CL   UNL     1      -7.598   6.327  67.907  1.00  0.00    -0.100 Cl 
HETATM   22 CL   UNL     1     -10.487   7.377  66.938  1.00  0.00    -0.387 Cl 
ENDBRANCH  14  15
ENDBRANCH  11  14
ENDBRANCH   2   3
TORSDOF 3
ENDMDL
MODEL       97
REMARK 921   NORMALIZED FREE ENERGY PREDICTED BY IDOCK:   -4.64 KCAL/MOL
REMARK 922        TOTAL FREE ENERGY PREDICTED BY IDOCK:   -6.01 KCAL/MOL
REMARK 923 INTER-LIGAND FREE ENERGY PREDICTED BY IDOCK:   -5.57 KCAL/MOL
REMARK 924 INTRA-LIGAND FREE ENERGY PREDICTED BY IDOCK:   -0.45 KCAL/MOL
REMARK 927      BINDING AFFINITY PREDICTED BY RF-SCORE:    0.00 PKD
ROOT
HETATM    1  C   UNL     1     -11.608   7.802  72.649  1.00  0.00    -0.344 C  
HETATM    2  S   UNL     1     -11.893   6.851  71.141  1.00  0.00    -0.365 SA 
ENDROOT
BRANCH   2   3
HETATM    3  C   UNL     1     -11.161   7.861  69.955  1.00  0.00    -0.120 A  
HETATM    4  N   UNL     1     -10.946   9.157  69.986  1.00  0.00    -0.247 NA 
HETATM    5  C   UNL     1     -10.426   9.458  68.746  1.00  0.00    -0.212 A  
HETATM    6  H   UNL     1     -11.125   9.799  70.758  1.00  0.00     0.000 HD 
HETATM    7  C   UNL     1     -10.336   8.315  67.958  1.00  0.00    -0.213 A  
HETATM    8  C   UNL     1      -9.946   8.337  66.620  1.00  0.00    -0.348 A  
HETATM    9  N   UNL     1     -10.748   7.305  68.782  1.00  0.00    -0.178 NA 
HETATM   10  C   UNL     1      -9.669   9.592  66.053  1.00  0.00    -0.264 A  
HETATM   11  C   UNL     1      -9.613  10.750  66.845  1.00  0.00    -0.171 A  
HETATM   12 CL   UNL     1      -9.551   9.596  64.323  1.00  0.00    -0.120 Cl 
HETATM   13  C   UNL     1     -10.028  10.686  68.194  1.00  0.00    -0.176 A  
BRANCH  11  14
HETATM   14  O   UNL     1      -9.305  12.038  66.451  1.00  0.00    -0.220 OA 
BRANCH  14  15
HETATM   15  C   UNL     1     -10.221  12.895  65.876  1.00  0.00    -0.290 A  
HETATM   16  C   UNL     1     -11.363  12.476  65.188  1.00  0.00    -0.352 A  
HETATM   17  C   UNL     1     -12.307  13.410  64.757  1.00  0.00    -0.444 A  
HETATM   18  C   UNL     1     -12.071  14.774  64.930  1.00  0.00    -0.335 A  
HETATM   19  C   UNL     1     -10.872  15.206  65.497  1.00  0.00    -0.364 A  
HETATM   20  C   UNL     1      -9.939  14.272  65.969  1.00  0.00    -0.319 A  
HETATM   21 CL   UNL     1     -10.609  16.914  65.591  1.00  0.00    -0.304 Cl 
HETATM   22 CL   UNL     1      -8.429  14.790  66.653  1.00  0.00    -0.180 Cl 
ENDBRANCH  14  15
ENDBRANCH  11  14
ENDBRANCH   2   3
TORSDOF 3
ENDMDL
MODEL       98
REMARK 921   NORMALIZED FREE ENERGY PREDICTED BY IDOCK:   -4.64 KCAL/MOL
REMARK 922        TOTAL FREE ENERGY PREDICTED BY IDOCK:   -6.01 KCAL/MOL
REMARK 923 INTER-LIGAND FREE ENERGY PREDICTED BY IDOCK:   -5.45 KCAL/MOL
REMARK 924 INTRA-LIGAND FREE ENERGY PREDICTED BY IDOCK:   -0.56 KCAL/MOL
REMARK 927      BINDING AFFINITY PREDICTED BY RF-SCORE:    0.00 PKD
ROOT
HETATM    1  C   UNL     1      -9.632   5.110  68.186  1.00  0.00    -0.134 C  
HETATM    2  S   UNL     1     -10.260   5.706  69.769  1.00  0.00    -0.277 SA 
ENDROOT
BRANCH   2   3
HETATM    3  C   UNL     1     -10.324   7.405  69.496  1.00  0.00    -0.217 A  
HETATM    4  N   UNL     1     -11.364   8.166  69.239  1.00  0.00    -0.282 NA 
HETATM    5  C   UNL     1     -10.837   9.418  69.012  1.00  0.00    -0.136 A  
HETATM    6  H   UNL     1     -12.346   7.890  69.213  1.00  0.00     0.000 HD 
HETATM    7  C   UNL     1      -9.451   9.399  69.131  1.00  0.00    -0.163 A  
HETATM    8  C   UNL     1      -8.644  10.500  68.849  1.00  0.00    -0.153 A  
HETATM    9  N   UNL     1      -9.163   8.116  69.507  1.00  0.00    -0.158 NA 
HETATM   10  C   UNL     1      -9.284  11.664  68.391  1.00  0.00    -0.182 A  
HETATM   11  C   UNL     1     -10.683  11.770  68.390  1.00  0.00    -0.219 A  
HETATM   12 CL   UNL     1      -8.222  12.857  67.717  1.00  0.00    -0.160 Cl 
HETATM   13  C   UNL     1     -11.465  10.626  68.670  1.00  0.00    -0.332 A  
BRANCH  11  14
HETATM   14  O   UNL     1     -11.455  12.855  68.023  1.00  0.00    -0.277 OA 
BRANCH  14  15
HETATM   15  C   UNL     1     -11.618  13.264  66.715  1.00  0.00    -0.365 A  
HETATM   16  C   UNL     1     -12.028  12.424  65.676  1.00  0.00    -0.449 A  
HETATM   17  C   UNL     1     -12.300  12.951  64.411  1.00  0.00    -0.468 A  
HETATM   18  C   UNL     1     -12.075  14.303  64.154  1.00  0.00    -0.423 A  
HETATM   19  C   UNL     1     -11.540  15.122  65.148  1.00  0.00    -0.245 A  
HETATM   20  C   UNL     1     -11.304  14.608  66.432  1.00  0.00    -0.348 A  
HETATM   21 CL   UNL     1     -11.198  16.765  64.726  1.00  0.00    -0.175 Cl 
HETATM   22 CL   UNL     1     -10.612  15.604  67.675  1.00  0.00    -0.288 Cl 
ENDBRANCH  14  15
ENDBRANCH  11  14
ENDBRANCH   2   3
TORSDOF 3
ENDMDL
MODEL       99
REMARK 921   NORMALIZED FREE ENERGY PREDICTED BY IDOCK:   -4.62 KCAL/MOL
REMARK 922        TOTAL FREE ENERGY PREDICTED BY IDOCK:   -5.99 KCAL/MOL
REMARK 923 INTER-LIGAND FREE ENERGY PREDICTED BY IDOCK:   -5.96 KCAL/MOL
REMARK 924 INTRA-LIGAND FREE ENERGY PREDICTED BY IDOCK:   -0.03 KCAL/MOL
REMARK 927      BINDING AFFINITY PREDICTED BY RF-SCORE:    0.00 PKD
ROOT
HETATM    1  C   UNL     1     -10.529  19.736  66.383  1.00  0.00    -0.507 C  
HETATM    2  S   UNL     1      -9.856  19.037  67.905  1.00  0.00    -0.358 SA 
ENDROOT
BRANCH   2   3
HETATM    3  C   UNL     1     -10.028  17.349  67.611  1.00  0.00    -0.300 A  
HETATM    4  N   UNL     1     -11.106  16.601  67.673  1.00  0.00    -0.183 NA 
HETATM    5  C   UNL     1     -10.658  15.318  67.444  1.00  0.00    -0.282 A  
HETATM    6  H   UNL     1     -12.064  16.903  67.851  1.00  0.00     0.000 HD 
HETATM    7  C   UNL     1      -9.282  15.303  67.248  1.00  0.00    -0.199 A  
HETATM    8  C   UNL     1      -8.542  14.131  67.101  1.00  0.00    -0.230 A  
HETATM    9  N   UNL     1      -8.921  16.622  67.293  1.00  0.00    -0.198 NA 
HETATM   10  C   UNL     1      -9.241  12.916  67.194  1.00  0.00    -0.225 A  
HETATM   11  C   UNL     1     -10.643  12.888  67.252  1.00  0.00    -0.234 A  
HETATM   12 CL   UNL     1      -8.237  11.514  67.372  1.00  0.00    -0.142 Cl 
HETATM   13  C   UNL     1     -11.354  14.099  67.412  1.00  0.00    -0.346 A  
BRANCH  11  14
HETATM   14  O   UNL     1     -11.473  11.784  67.294  1.00  0.00    -0.360 OA 
BRANCH  14  15
HETATM   15  C   UNL     1     -11.100  10.575  67.843  1.00  0.00    -0.304 A  
HETATM   16  C   UNL     1     -10.632   9.486  67.101  1.00  0.00    -0.295 A  
HETATM   17  C   UNL     1     -10.146   8.349  67.750  1.00  0.00    -0.263 A  
HETATM   18  C   UNL     1     -10.210   8.256  69.140  1.00  0.00    -0.223 A  
HETATM   19  C   UNL     1     -10.797   9.282  69.880  1.00  0.00    -0.234 A  
HETATM   20  C   UNL     1     -11.248  10.444  69.238  1.00  0.00    -0.248 A  
HETATM   21 CL   UNL     1     -10.927   9.053  71.591  1.00  0.00    -0.412 Cl 
HETATM   22 CL   UNL     1     -12.007  11.721  70.139  1.00  0.00    -0.420 Cl 
ENDBRANCH  14  15
ENDBRANCH  11  14
ENDBRANCH   2   3
TORSDOF 3
ENDMDL
MODEL      100
REMARK 921   NORMALIZED FREE ENERGY PREDICTED BY IDOCK:   -4.62 KCAL/MOL
REMARK 922        TOTAL FREE ENERGY PREDICTED BY IDOCK:   -5.99 KCAL/MOL
REMARK 923 INTER-LIGAND FREE ENERGY PREDICTED BY IDOCK:   -5.80 KCAL/MOL
REMARK 924 INTRA-LIGAND FREE ENERGY PREDICTED BY IDOCK:   -0.19 KCAL/MOL
REMARK 927      BINDING AFFINITY PREDICTED BY RF-SCORE:    0.00 PKD
ROOT
HETATM    1  C   UNL     1      -7.042   6.313  71.731  1.00  0.00    -0.085 C  
HETATM    2  S   UNL     1      -7.366   6.205  69.959  1.00  0.00    -0.080 SA 
ENDROOT
BRANCH   2   3
HETATM    3  C   UNL     1      -8.661   7.325  69.778  1.00  0.00    -0.142 A  
HETATM    4  N   UNL     1      -8.992   8.050  68.734  1.00  0.00    -0.141 NA 
HETATM    5  C   UNL     1     -10.038   8.835  69.167  1.00  0.00    -0.198 A  
HETATM    6  H   UNL     1      -8.568   8.034  67.806  1.00  0.00     0.000 HD 
HETATM    7  C   UNL     1     -10.331   8.575  70.501  1.00  0.00    -0.200 A  
HETATM    8  C   UNL     1     -11.272   9.297  71.233  1.00  0.00    -0.425 A  
HETATM    9  N   UNL     1      -9.480   7.559  70.841  1.00  0.00    -0.165 NA 
HETATM   10  C   UNL     1     -11.918  10.358  70.576  1.00  0.00    -0.334 A  
HETATM   11  C   UNL     1     -11.754  10.566  69.198  1.00  0.00    -0.189 A  
HETATM   12 CL   UNL     1     -12.788  11.434  71.621  1.00  0.00    -0.521 Cl 
HETATM   13  C   UNL     1     -10.781   9.819  68.496  1.00  0.00    -0.252 A  
BRANCH  11  14
HETATM   14  O   UNL     1     -12.355  11.523  68.403  1.00  0.00    -0.461 OA 
BRANCH  14  15
HETATM   15  C   UNL     1     -11.652  12.353  67.554  1.00  0.00    -0.365 A  
HETATM   16  C   UNL     1     -11.179  11.970  66.296  1.00  0.00    -0.394 A  
HETATM   17  C   UNL     1     -10.599  12.913  65.445  1.00  0.00    -0.308 A  
HETATM   18  C   UNL     1     -10.406  14.224  65.882  1.00  0.00    -0.325 A  
HETATM   19  C   UNL     1     -10.755  14.583  67.184  1.00  0.00    -0.286 A  
HETATM   20  C   UNL     1     -11.376  13.651  68.028  1.00  0.00    -0.285 A  
HETATM   21 CL   UNL     1     -10.398  16.200  67.684  1.00  0.00    -0.281 Cl 
HETATM   22 CL   UNL     1     -11.793  14.070  69.661  1.00  0.00    -0.362 Cl 
ENDBRANCH  14  15
ENDBRANCH  11  14
ENDBRANCH   2   3
TORSDOF 3
ENDMDL
MODEL      101
REMARK 921   NORMALIZED FREE ENERGY PREDICTED BY IDOCK:   -4.61 KCAL/MOL
REMARK 922        TOTAL FREE ENERGY PREDICTED BY IDOCK:   -5.98 KCAL/MOL
REMARK 923 INTER-LIGAND FREE ENERGY PREDICTED BY IDOCK:   -6.02 KCAL/MOL
REMARK 924 INTRA-LIGAND FREE ENERGY PREDICTED BY IDOCK:    0.04 KCAL/MOL
REMARK 927      BINDING AFFINITY PREDICTED BY RF-SCORE:    0.00 PKD
ROOT
HETATM    1  C   UNL     1      -5.715   8.279  71.403  1.00  0.00    -0.035 C  
HETATM    2  S   UNL     1      -6.289   8.043  69.708  1.00  0.00    -0.037 SA 
ENDROOT
BRANCH   2   3
HETATM    3  C   UNL     1      -7.848   8.771  69.768  1.00  0.00    -0.090 A  
HETATM    4  N   UNL     1      -8.249   9.917  69.267  1.00  0.00    -0.125 NA 
HETATM    5  C   UNL     1      -9.553  10.050  69.691  1.00  0.00    -0.226 A  
HETATM    6  H   UNL     1      -7.713  10.565  68.690  1.00  0.00     0.000 HD 
HETATM    7  C   UNL     1      -9.932   8.961  70.468  1.00  0.00    -0.201 A  
HETATM    8  C   UNL     1     -11.161   8.878  71.120  1.00  0.00    -0.352 A  
HETATM    9  N   UNL     1      -8.845   8.132  70.441  1.00  0.00    -0.139 NA 
HETATM   10  C   UNL     1     -12.028   9.978  70.999  1.00  0.00    -0.376 A  
HETATM   11  C   UNL     1     -11.743  11.031  70.116  1.00  0.00    -0.356 A  
HETATM   12 CL   UNL     1     -13.359   9.978  72.110  1.00  0.00    -0.527 Cl 
HETATM   13  C   UNL     1     -10.480  11.084  69.484  1.00  0.00    -0.133 A  
BRANCH  11  14
HETATM   14  O   UNL     1     -12.511  12.148  69.846  1.00  0.00    -0.085 OA 
BRANCH  14  15
HETATM   15  C   UNL     1     -12.156  13.424  70.232  1.00  0.00    -0.349 A  
HETATM   16  C   UNL     1     -11.199  14.205  69.578  1.00  0.00    -0.267 A  
HETATM   17  C   UNL     1     -11.002  15.536  69.951  1.00  0.00    -0.315 A  
HETATM   18  C   UNL     1     -11.693  16.067  71.040  1.00  0.00    -0.458 A  
HETATM   19  C   UNL     1     -12.553  15.256  71.781  1.00  0.00    -0.362 A  
HETATM   20  C   UNL     1     -12.787  13.931  71.386  1.00  0.00    -0.361 A  
HETATM   21 CL   UNL     1     -13.302  15.958  73.175  1.00  0.00    -0.672 Cl 
HETATM   22 CL   UNL     1     -13.832  12.898  72.312  1.00  0.00    -0.555 Cl 
ENDBRANCH  14  15
ENDBRANCH  11  14
ENDBRANCH   2   3
TORSDOF 3
ENDMDL
MODEL      102
REMARK 921   NORMALIZED FREE ENERGY PREDICTED BY IDOCK:   -4.60 KCAL/MOL
REMARK 922        TOTAL FREE ENERGY PREDICTED BY IDOCK:   -5.97 KCAL/MOL
REMARK 923 INTER-LIGAND FREE ENERGY PREDICTED BY IDOCK:   -5.40 KCAL/MOL
REMARK 924 INTRA-LIGAND FREE ENERGY PREDICTED BY IDOCK:   -0.57 KCAL/MOL
REMARK 927      BINDING AFFINITY PREDICTED BY RF-SCORE:    0.00 PKD
ROOT
HETATM    1  C   UNL     1      -7.704   9.929  62.560  1.00  0.00    -0.123 C  
HETATM    2  S   UNL     1      -9.315  10.734  62.684  1.00  0.00    -0.304 SA 
ENDROOT
BRANCH   2   3
HETATM    3  C   UNL     1      -9.642  10.590  64.368  1.00  0.00    -0.300 A  
HETATM    4  N   UNL     1      -9.774   9.506  65.098  1.00  0.00    -0.448 NA 
HETATM    5  C   UNL     1     -10.125   9.964  66.349  1.00  0.00    -0.240 A  
HETATM    6  H   UNL     1      -9.644   8.538  64.804  1.00  0.00     0.000 HD 
HETATM    7  C   UNL     1     -10.211  11.352  66.360  1.00  0.00    -0.230 A  
HETATM    8  C   UNL     1     -10.651  12.082  67.462  1.00  0.00    -0.250 A  
HETATM    9  N   UNL     1      -9.830  11.723  65.100  1.00  0.00    -0.245 NA 
HETATM   10  C   UNL     1     -11.055  11.355  68.594  1.00  0.00    -0.236 A  
HETATM   11  C   UNL     1     -10.856   9.968  68.675  1.00  0.00    -0.229 A  
HETATM   12 CL   UNL     1     -11.925  12.278  69.776  1.00  0.00    -0.381 Cl 
HETATM   13  C   UNL     1     -10.419   9.264  67.530  1.00  0.00    -0.338 A  
BRANCH  11  14
HETATM   14  O   UNL     1     -11.147   9.125  69.729  1.00  0.00    -0.215 OA 
BRANCH  14  15
HETATM   15  C   UNL     1     -10.184   8.443  70.445  1.00  0.00    -0.197 A  
HETATM   16  C   UNL     1      -9.124   9.058  71.117  1.00  0.00    -0.316 A  
HETATM   17  C   UNL     1      -8.275   8.305  71.931  1.00  0.00    -0.195 A  
HETATM   18  C   UNL     1      -8.424   6.920  72.004  1.00  0.00    -0.110 A  
HETATM   19  C   UNL     1      -9.397   6.282  71.233  1.00  0.00    -0.156 A  
HETATM   20  C   UNL     1     -10.279   7.038  70.447  1.00  0.00    -0.196 A  
HETATM   21 CL   UNL     1      -9.459   4.554  71.305  1.00  0.00    -0.209 Cl 
HETATM   22 CL   UNL     1     -11.478   6.260  69.459  1.00  0.00    -0.480 Cl 
ENDBRANCH  14  15
ENDBRANCH  11  14
ENDBRANCH   2   3
TORSDOF 3
ENDMDL
MODEL      103
REMARK 921   NORMALIZED FREE ENERGY PREDICTED BY IDOCK:   -4.60 KCAL/MOL
REMARK 922        TOTAL FREE ENERGY PREDICTED BY IDOCK:   -5.97 KCAL/MOL
REMARK 923 INTER-LIGAND FREE ENERGY PREDICTED BY IDOCK:   -5.38 KCAL/MOL
REMARK 924 INTRA-LIGAND FREE ENERGY PREDICTED BY IDOCK:   -0.59 KCAL/MOL
REMARK 927      BINDING AFFINITY PREDICTED BY RF-SCORE:    0.00 PKD
ROOT
HETATM    1  C   UNL     1      -9.675   4.901  66.219  1.00  0.00    -0.190 C  
HETATM    2  S   UNL     1      -9.832   5.332  67.964  1.00  0.00    -0.151 SA 
ENDROOT
BRANCH   2   3
HETATM    3  C   UNL     1      -9.952   7.047  67.884  1.00  0.00    -0.154 A  
HETATM    4  N   UNL     1     -10.969   7.792  67.514  1.00  0.00    -0.526 NA 
HETATM    5  C   UNL     1     -10.491   9.084  67.546  1.00  0.00    -0.272 A  
HETATM    6  H   UNL     1     -11.907   7.482  67.259  1.00  0.00     0.000 HD 
HETATM    7  C   UNL     1      -9.157   9.106  67.938  1.00  0.00    -0.127 A  
HETATM    8  C   UNL     1      -8.383  10.265  67.956  1.00  0.00    -0.114 A  
HETATM    9  N   UNL     1      -8.864   7.798  68.212  1.00  0.00    -0.130 NA 
HETATM   10  C   UNL     1      -8.996  11.452  67.518  1.00  0.00    -0.150 A  
HETATM   11  C   UNL     1     -10.372  11.500  67.247  1.00  0.00    -0.206 A  
HETATM   12 CL   UNL     1      -7.903  12.763  67.216  1.00  0.00    -0.169 Cl 
HETATM   13  C   UNL     1     -11.117  10.299  67.228  1.00  0.00    -0.215 A  
BRANCH  11  14
HETATM   14  O   UNL     1     -11.127  12.591  66.862  1.00  0.00    -0.255 OA 
BRANCH  14  15
HETATM   15  C   UNL     1     -11.247  13.737  67.622  1.00  0.00    -0.293 A  
HETATM   16  C   UNL     1     -11.713  13.760  68.939  1.00  0.00    -0.374 A  
HETATM   17  C   UNL     1     -11.672  14.943  69.680  1.00  0.00    -0.356 A  
HETATM   18  C   UNL     1     -11.252  16.130  69.079  1.00  0.00    -0.347 A  
HETATM   19  C   UNL     1     -10.910  16.143  67.727  1.00  0.00    -0.318 A  
HETATM   20  C   UNL     1     -10.909  14.950  66.989  1.00  0.00    -0.315 A  
HETATM   21 CL   UNL     1     -10.491  17.670  67.029  1.00  0.00    -0.329 Cl 
HETATM   22 CL   UNL     1     -10.514  14.950  65.298  1.00  0.00    -0.395 Cl 
ENDBRANCH  14  15
ENDBRANCH  11  14
ENDBRANCH   2   3
TORSDOF 3
ENDMDL
MODEL      104
REMARK 921   NORMALIZED FREE ENERGY PREDICTED BY IDOCK:   -4.60 KCAL/MOL
REMARK 922        TOTAL FREE ENERGY PREDICTED BY IDOCK:   -5.96 KCAL/MOL
REMARK 923 INTER-LIGAND FREE ENERGY PREDICTED BY IDOCK:   -5.41 KCAL/MOL
REMARK 924 INTRA-LIGAND FREE ENERGY PREDICTED BY IDOCK:   -0.55 KCAL/MOL
REMARK 927      BINDING AFFINITY PREDICTED BY RF-SCORE:    0.00 PKD
ROOT
HETATM    1  C   UNL     1      -9.646  16.089  65.873  1.00  0.00    -0.335 C  
HETATM    2  S   UNL     1     -11.065  15.342  65.046  1.00  0.00    -0.394 SA 
ENDROOT
BRANCH   2   3
HETATM    3  C   UNL     1     -11.059  13.757  65.718  1.00  0.00    -0.289 A  
HETATM    4  N   UNL     1     -11.368  13.370  66.935  1.00  0.00    -0.311 NA 
HETATM    5  C   UNL     1     -11.095  12.020  66.955  1.00  0.00    -0.302 A  
HETATM    6  H   UNL     1     -11.729  13.943  67.697  1.00  0.00     0.000 HD 
HETATM    7  C   UNL     1     -10.608  11.597  65.723  1.00  0.00    -0.271 A  
HETATM    8  C   UNL     1     -10.149  10.302  65.485  1.00  0.00    -0.351 A  
HETATM    9  N   UNL     1     -10.662  12.715  64.937  1.00  0.00    -0.288 NA 
HETATM   10  C   UNL     1     -10.156   9.410  66.570  1.00  0.00    -0.262 A  
HETATM   11  C   UNL     1     -10.765   9.753  67.788  1.00  0.00    -0.272 A  
HETATM   12 CL   UNL     1      -9.248   7.955  66.319  1.00  0.00    -0.233 Cl 
HETATM   13  C   UNL     1     -11.207  11.080  67.991  1.00  0.00    -0.372 A  
BRANCH  11  14
HETATM   14  O   UNL     1     -10.901   8.975  68.921  1.00  0.00    -0.163 OA 
BRANCH  14  15
HETATM   15  C   UNL     1      -9.836   8.588  69.709  1.00  0.00    -0.186 A  
HETATM   16  C   UNL     1      -8.805   9.443  70.109  1.00  0.00    -0.249 A  
HETATM   17  C   UNL     1      -7.840   9.004  71.018  1.00  0.00    -0.174 A  
HETATM   18  C   UNL     1      -7.848   7.681  71.462  1.00  0.00    -0.086 A  
HETATM   19  C   UNL     1      -8.795   6.785  70.965  1.00  0.00    -0.141 A  
HETATM   20  C   UNL     1      -9.791   7.231  70.084  1.00  0.00    -0.179 A  
HETATM   21 CL   UNL     1      -8.682   5.140  71.488  1.00  0.00    -0.135 Cl 
HETATM   22 CL   UNL     1     -10.963   6.125  69.434  1.00  0.00    -0.418 Cl 
ENDBRANCH  14  15
ENDBRANCH  11  14
ENDBRANCH   2   3
TORSDOF 3
ENDMDL
MODEL      105
REMARK 921   NORMALIZED FREE ENERGY PREDICTED BY IDOCK:   -4.59 KCAL/MOL
REMARK 922        TOTAL FREE ENERGY PREDICTED BY IDOCK:   -5.95 KCAL/MOL
REMARK 923 INTER-LIGAND FREE ENERGY PREDICTED BY IDOCK:   -5.46 KCAL/MOL
REMARK 924 INTRA-LIGAND FREE ENERGY PREDICTED BY IDOCK:   -0.49 KCAL/MOL
REMARK 927      BINDING AFFINITY PREDICTED BY RF-SCORE:    0.00 PKD
ROOT
HETATM    1  C   UNL     1      -7.921   6.373  65.698  1.00  0.00    -0.120 C  
HETATM    2  S   UNL     1      -7.477   7.245  64.181  1.00  0.00    -0.105 SA 
ENDROOT
BRANCH   2   3
HETATM    3  C   UNL     1      -8.263   8.758  64.411  1.00  0.00    -0.168 A  
HETATM    4  N   UNL     1      -8.414   9.456  65.514  1.00  0.00    -0.136 NA 
HETATM    5  C   UNL     1      -9.199  10.528  65.148  1.00  0.00    -0.205 A  
HETATM    6  H   UNL     1      -8.033   9.251  66.437  1.00  0.00     0.000 HD 
HETATM    7  C   UNL     1      -9.528  10.461  63.799  1.00  0.00    -0.305 A  
HETATM    8  C   UNL     1     -10.400  11.353  63.179  1.00  0.00    -0.357 A  
HETATM    9  N   UNL     1      -8.859   9.358  63.343  1.00  0.00    -0.212 NA 
HETATM   10  C   UNL     1     -10.991  12.340  63.987  1.00  0.00    -0.383 A  
HETATM   11  C   UNL     1     -10.582  12.528  65.316  1.00  0.00    -0.290 A  
HETATM   12 CL   UNL     1     -12.324  13.174  63.256  1.00  0.00    -0.512 Cl 
HETATM   13  C   UNL     1      -9.705  11.593  65.910  1.00  0.00    -0.260 A  
BRANCH  11  14
HETATM   14  O   UNL     1     -11.023  13.479  66.217  1.00  0.00    -0.287 OA 
BRANCH  14  15
HETATM   15  C   UNL     1     -10.625  14.799  66.181  1.00  0.00    -0.311 A  
HETATM   16  C   UNL     1     -10.858  15.661  65.106  1.00  0.00    -0.448 A  
HETATM   17  C   UNL     1     -10.545  17.018  65.210  1.00  0.00    -0.096 A  
HETATM   18  C   UNL     1      -9.911  17.503  66.354  1.00  0.00    -0.330 A  
HETATM   19  C   UNL     1      -9.555  16.625  67.378  1.00  0.00    -0.242 A  
HETATM   20  C   UNL     1      -9.905  15.270  67.297  1.00  0.00    -0.220 A  
HETATM   21 CL   UNL     1      -8.687  17.285  68.723  1.00  0.00    -0.264 Cl 
HETATM   22 CL   UNL     1      -9.446  14.156  68.549  1.00  0.00    -0.213 Cl 
ENDBRANCH  14  15
ENDBRANCH  11  14
ENDBRANCH   2   3
TORSDOF 3
ENDMDL
MODEL      106
REMARK 921   NORMALIZED FREE ENERGY PREDICTED BY IDOCK:   -4.58 KCAL/MOL
REMARK 922        TOTAL FREE ENERGY PREDICTED BY IDOCK:   -5.95 KCAL/MOL
REMARK 923 INTER-LIGAND FREE ENERGY PREDICTED BY IDOCK:   -5.38 KCAL/MOL
REMARK 924 INTRA-LIGAND FREE ENERGY PREDICTED BY IDOCK:   -0.57 KCAL/MOL
REMARK 927      BINDING AFFINITY PREDICTED BY RF-SCORE:    0.00 PKD
ROOT
HETATM    1  C   UNL     1      -7.729   4.586  65.601  1.00  0.00    -0.093 C  
HETATM    2  S   UNL     1      -7.121   5.963  64.604  1.00  0.00    -0.062 SA 
ENDROOT
BRANCH   2   3
HETATM    3  C   UNL     1      -7.935   7.296  65.328  1.00  0.00    -0.127 A  
HETATM    4  N   UNL     1      -9.224   7.494  65.489  1.00  0.00    -0.370 NA 
HETATM    5  C   UNL     1      -9.322   8.758  66.030  1.00  0.00    -0.232 A  
HETATM    6  H   UNL     1      -9.985   6.854  65.263  1.00  0.00     0.000 HD 
HETATM    7  C   UNL     1      -8.062   9.325  66.188  1.00  0.00    -0.110 A  
HETATM    8  C   UNL     1      -7.862  10.637  66.614  1.00  0.00    -0.135 A  
HETATM    9  N   UNL     1      -7.197   8.341  65.795  1.00  0.00    -0.071 NA 
HETATM   10  C   UNL     1      -9.007  11.415  66.856  1.00  0.00    -0.171 A  
HETATM   11  C   UNL     1     -10.289  10.842  66.842  1.00  0.00    -0.238 A  
HETATM   12 CL   UNL     1      -8.708  13.114  67.021  1.00  0.00    -0.210 Cl 
HETATM   13  C   UNL     1     -10.448   9.512  66.393  1.00  0.00    -0.168 A  
BRANCH  11  14
HETATM   14  O   UNL     1     -11.498  11.455  67.109  1.00  0.00    -0.450 OA 
BRANCH  14  15
HETATM   15  C   UNL     1     -11.857  11.914  68.359  1.00  0.00    -0.289 A  
HETATM   16  C   UNL     1     -12.112  11.086  69.456  1.00  0.00    -0.400 A  
HETATM   17  C   UNL     1     -12.333  11.639  70.719  1.00  0.00    -0.454 A  
HETATM   18  C   UNL     1     -12.394  13.024  70.875  1.00  0.00    -0.376 A  
HETATM   19  C   UNL     1     -12.273  13.856  69.762  1.00  0.00    -0.332 A  
HETATM   20  C   UNL     1     -12.008  13.308  68.499  1.00  0.00    -0.304 A  
HETATM   21 CL   UNL     1     -12.455  15.558  70.020  1.00  0.00    -0.355 Cl 
HETATM   22 CL   UNL     1     -11.882  14.325  67.096  1.00  0.00    -0.435 Cl 
ENDBRANCH  14  15
ENDBRANCH  11  14
ENDBRANCH   2   3
TORSDOF 3
ENDMDL
MODEL      107
REMARK 921   NORMALIZED FREE ENERGY PREDICTED BY IDOCK:   -4.58 KCAL/MOL
REMARK 922        TOTAL FREE ENERGY PREDICTED BY IDOCK:   -5.94 KCAL/MOL
REMARK 923 INTER-LIGAND FREE ENERGY PREDICTED BY IDOCK:   -5.33 KCAL/MOL
REMARK 924 INTRA-LIGAND FREE ENERGY PREDICTED BY IDOCK:   -0.62 KCAL/MOL
REMARK 927      BINDING AFFINITY PREDICTED BY RF-SCORE:    0.00 PKD
ROOT
HETATM    1  C   UNL     1      -5.262  16.094  70.496  1.00  0.00    -0.183 C  
HETATM    2  S   UNL     1      -5.484  17.198  69.086  1.00  0.00    -0.159 SA 
ENDROOT
BRANCH   2   3
HETATM    3  C   UNL     1      -6.939  16.587  68.397  1.00  0.00    -0.150 A  
HETATM    4  N   UNL     1      -7.464  15.386  68.495  1.00  0.00    -0.113 NA 
HETATM    5  C   UNL     1      -8.569  15.416  67.674  1.00  0.00    -0.167 A  
HETATM    6  H   UNL     1      -7.127  14.604  69.057  1.00  0.00     0.000 HD 
HETATM    7  C   UNL     1      -8.700  16.661  67.068  1.00  0.00    -0.200 A  
HETATM    8  C   UNL     1      -9.666  16.946  66.105  1.00  0.00    -0.296 A  
HETATM    9  N   UNL     1      -7.684  17.405  67.604  1.00  0.00    -0.191 NA 
HETATM   10  C   UNL     1     -10.515  15.895  65.718  1.00  0.00    -0.370 A  
HETATM   11  C   UNL     1     -10.508  14.668  66.399  1.00  0.00    -0.295 A  
HETATM   12 CL   UNL     1     -11.434  16.198  64.279  1.00  0.00    -0.317 Cl 
HETATM   13  C   UNL     1      -9.504  14.417  67.361  1.00  0.00    -0.207 A  
BRANCH  11  14
HETATM   14  O   UNL     1     -11.309  13.565  66.177  1.00  0.00    -0.300 OA 
BRANCH  14  15
HETATM   15  C   UNL     1     -10.846  12.391  65.620  1.00  0.00    -0.277 A  
HETATM   16  C   UNL     1     -10.331  12.286  64.324  1.00  0.00    -0.375 A  
HETATM   17  C   UNL     1      -9.758  11.089  63.890  1.00  0.00    -0.336 A  
HETATM   18  C   UNL     1      -9.779   9.964  64.714  1.00  0.00    -0.305 A  
HETATM   19  C   UNL     1     -10.409  10.023  65.957  1.00  0.00    -0.152 A  
HETATM   20  C   UNL     1     -10.949  11.233  66.416  1.00  0.00    -0.227 A  
HETATM   21 CL   UNL     1     -10.478   8.562  66.882  1.00  0.00    -0.373 Cl 
HETATM   22 CL   UNL     1     -11.762  11.320  67.949  1.00  0.00    -0.332 Cl 
ENDBRANCH  14  15
ENDBRANCH  11  14
ENDBRANCH   2   3
TORSDOF 3
ENDMDL
MODEL      108
REMARK 921   NORMALIZED FREE ENERGY PREDICTED BY IDOCK:   -4.58 KCAL/MOL
REMARK 922        TOTAL FREE ENERGY PREDICTED BY IDOCK:   -5.94 KCAL/MOL
REMARK 923 INTER-LIGAND FREE ENERGY PREDICTED BY IDOCK:   -5.40 KCAL/MOL
REMARK 924 INTRA-LIGAND FREE ENERGY PREDICTED BY IDOCK:   -0.54 KCAL/MOL
REMARK 927      BINDING AFFINITY PREDICTED BY RF-SCORE:    0.00 PKD
ROOT
HETATM    1  C   UNL     1     -10.053  19.742  68.112  1.00  0.00    -0.452 C  
HETATM    2  S   UNL     1      -9.962  19.386  66.345  1.00  0.00    -0.447 SA 
ENDROOT
BRANCH   2   3
HETATM    3  C   UNL     1     -10.139  17.673  66.331  1.00  0.00    -0.356 A  
HETATM    4  N   UNL     1      -9.825  16.799  67.260  1.00  0.00    -0.255 NA 
HETATM    5  C   UNL     1     -10.084  15.571  66.690  1.00  0.00    -0.267 A  
HETATM    6  H   UNL     1      -9.468  16.987  68.197  1.00  0.00     0.000 HD 
HETATM    7  C   UNL     1     -10.556  15.721  65.391  1.00  0.00    -0.421 A  
HETATM    8  C   UNL     1     -10.799  14.646  64.537  1.00  0.00    -0.209 A  
HETATM    9  N   UNL     1     -10.644  17.074  65.218  1.00  0.00    -0.655 NA 
HETATM   10  C   UNL     1     -10.511  13.360  65.025  1.00  0.00    -0.365 A  
HETATM   11  C   UNL     1     -10.166  13.156  66.370  1.00  0.00    -0.286 A  
HETATM   12 CL   UNL     1     -10.481  12.116  63.818  1.00  0.00    -0.425 Cl 
HETATM   13  C   UNL     1      -9.918  14.273  67.199  1.00  0.00    -0.255 A  
BRANCH  11  14
HETATM   14  O   UNL     1      -9.907  11.960  67.011  1.00  0.00    -0.190 OA 
BRANCH  14  15
HETATM   15  C   UNL     1      -8.879  11.114  66.651  1.00  0.00    -0.166 A  
HETATM   16  C   UNL     1      -7.576  11.536  66.369  1.00  0.00     0.027 A  
HETATM   17  C   UNL     1      -6.565  10.599  66.149  1.00  0.00    -0.130 A  
HETATM   18  C   UNL     1      -6.867   9.238  66.117  1.00  0.00    -0.085 A  
HETATM   19  C   UNL     1      -8.188   8.814  66.266  1.00  0.00    -0.115 A  
HETATM   20  C   UNL     1      -9.201   9.748  66.530  1.00  0.00    -0.156 A  
HETATM   21 CL   UNL     1      -8.499   7.118  66.119  1.00  0.00    -0.136 Cl 
HETATM   22 CL   UNL     1     -10.855   9.243  66.690  1.00  0.00    -0.056 Cl 
ENDBRANCH  14  15
ENDBRANCH  11  14
ENDBRANCH   2   3
TORSDOF 3
ENDMDL
MODEL      109
REMARK 921   NORMALIZED FREE ENERGY PREDICTED BY IDOCK:   -4.57 KCAL/MOL
REMARK 922        TOTAL FREE ENERGY PREDICTED BY IDOCK:   -5.94 KCAL/MOL
REMARK 923 INTER-LIGAND FREE ENERGY PREDICTED BY IDOCK:   -5.60 KCAL/MOL
REMARK 924 INTRA-LIGAND FREE ENERGY PREDICTED BY IDOCK:   -0.33 KCAL/MOL
REMARK 927      BINDING AFFINITY PREDICTED BY RF-SCORE:    0.00 PKD
ROOT
HETATM    1  C   UNL     1     -13.153  15.494  72.970  1.00  0.00    -0.524 C  
HETATM    2  S   UNL     1     -14.208  14.896  71.633  1.00  0.00    -0.583 SA 
ENDROOT
BRANCH   2   3
HETATM    3  C   UNL     1     -13.281  13.579  71.027  1.00  0.00    -0.076 A  
HETATM    4  N   UNL     1     -13.173  12.355  71.493  1.00  0.00    -0.288 NA 
HETATM    5  C   UNL     1     -12.232  11.752  70.687  1.00  0.00    -0.349 A  
HETATM    6  H   UNL     1     -13.675  11.943  72.280  1.00  0.00     0.000 HD 
HETATM    7  C   UNL     1     -11.767  12.640  69.723  1.00  0.00    -0.284 A  
HETATM    8  C   UNL     1     -10.733  12.336  68.839  1.00  0.00    -0.210 A  
HETATM    9  N   UNL     1     -12.505  13.774  69.925  1.00  0.00    -0.262 NA 
HETATM   10  C   UNL     1     -10.125  11.077  68.971  1.00  0.00    -0.180 A  
HETATM   11  C   UNL     1     -10.653  10.103  69.833  1.00  0.00    -0.285 A  
HETATM   12 CL   UNL     1      -8.632  10.898  68.109  1.00  0.00    -0.127 Cl 
HETATM   13  C   UNL     1     -11.694  10.456  70.722  1.00  0.00    -0.464 A  
BRANCH  11  14
HETATM   14  O   UNL     1     -10.207   8.812  70.036  1.00  0.00    -0.188 OA 
BRANCH  14  15
HETATM   15  C   UNL     1     -10.313   7.815  69.087  1.00  0.00    -0.215 A  
HETATM   16  C   UNL     1     -10.674   8.034  67.755  1.00  0.00    -0.174 A  
HETATM   17  C   UNL     1     -10.622   6.989  66.830  1.00  0.00    -0.372 A  
HETATM   18  C   UNL     1     -10.299   5.699  67.251  1.00  0.00    -0.295 A  
HETATM   19  C   UNL     1     -10.066   5.445  68.603  1.00  0.00    -0.179 A  
HETATM   20  C   UNL     1     -10.076   6.498  69.529  1.00  0.00    -0.176 A  
HETATM   21 CL   UNL     1      -9.766   3.803  69.062  1.00  0.00    -0.177 Cl 
HETATM   22 CL   UNL     1      -9.817   6.198  71.220  1.00  0.00    -0.196 Cl 
ENDBRANCH  14  15
ENDBRANCH  11  14
ENDBRANCH   2   3
TORSDOF 3
ENDMDL
MODEL      110
REMARK 921   NORMALIZED FREE ENERGY PREDICTED BY IDOCK:   -4.57 KCAL/MOL
REMARK 922        TOTAL FREE ENERGY PREDICTED BY IDOCK:   -5.93 KCAL/MOL
REMARK 923 INTER-LIGAND FREE ENERGY PREDICTED BY IDOCK:   -5.37 KCAL/MOL
REMARK 924 INTRA-LIGAND FREE ENERGY PREDICTED BY IDOCK:   -0.56 KCAL/MOL
REMARK 927      BINDING AFFINITY PREDICTED BY RF-SCORE:    0.00 PKD
ROOT
HETATM    1  C   UNL     1     -10.340   7.049  67.297  1.00  0.00    -0.261 C  
HETATM    2  S   UNL     1      -9.010   7.577  66.198  1.00  0.00    -0.123 SA 
ENDROOT
BRANCH   2   3
HETATM    3  C   UNL     1      -9.098   9.290  66.350  1.00  0.00    -0.160 A  
HETATM    4  N   UNL     1      -8.661  10.060  67.321  1.00  0.00    -0.125 NA 
HETATM    5  C   UNL     1      -9.080  11.328  66.980  1.00  0.00    -0.163 A  
HETATM    6  H   UNL     1      -8.129   9.781  68.145  1.00  0.00     0.000 HD 
HETATM    7  C   UNL     1      -9.787  11.308  65.783  1.00  0.00    -0.232 A  
HETATM    8  C   UNL     1     -10.420  12.430  65.250  1.00  0.00    -0.316 A  
HETATM    9  N   UNL     1      -9.721  10.005  65.374  1.00  0.00    -0.282 NA 
HETATM   10  C   UNL     1     -10.356  13.618  65.997  1.00  0.00    -0.304 A  
HETATM   11  C   UNL     1      -9.540  13.716  67.135  1.00  0.00    -0.241 A  
HETATM   12 CL   UNL     1     -11.451  14.859  65.481  1.00  0.00    -0.335 Cl 
HETATM   13  C   UNL     1      -8.925  12.552  67.649  1.00  0.00    -0.185 A  
BRANCH  11  14
HETATM   14  O   UNL     1      -9.329  14.819  67.940  1.00  0.00    -0.188 OA 
BRANCH  14  15
HETATM   15  C   UNL     1      -8.936  16.049  67.453  1.00  0.00    -0.191 A  
HETATM   16  C   UNL     1      -7.716  16.288  66.815  1.00  0.00    -0.295 A  
HETATM   17  C   UNL     1      -7.458  17.530  66.231  1.00  0.00    -0.355 A  
HETATM   18  C   UNL     1      -8.379  18.569  66.362  1.00  0.00    -0.278 A  
HETATM   19  C   UNL     1      -9.541  18.380  67.111  1.00  0.00    -0.295 A  
HETATM   20  C   UNL     1      -9.825  17.123  67.663  1.00  0.00    -0.270 A  
HETATM   21 CL   UNL     1     -10.589  19.743  67.308  1.00  0.00    -0.577 Cl 
HETATM   22 CL   UNL     1     -11.252  16.875  68.622  1.00  0.00    -0.194 Cl 
ENDBRANCH  14  15
ENDBRANCH  11  14
ENDBRANCH   2   3
TORSDOF 3
ENDMDL
MODEL      111
REMARK 921   NORMALIZED FREE ENERGY PREDICTED BY IDOCK:   -4.56 KCAL/MOL
REMARK 922        TOTAL FREE ENERGY PREDICTED BY IDOCK:   -5.92 KCAL/MOL
REMARK 923 INTER-LIGAND FREE ENERGY PREDICTED BY IDOCK:   -5.52 KCAL/MOL
REMARK 924 INTRA-LIGAND FREE ENERGY PREDICTED BY IDOCK:   -0.40 KCAL/MOL
REMARK 927      BINDING AFFINITY PREDICTED BY RF-SCORE:    0.00 PKD
ROOT
HETATM    1  C   UNL     1     -10.938   6.229  67.741  1.00  0.00    -0.332 C  
HETATM    2  S   UNL     1     -10.881   7.028  69.358  1.00  0.00    -0.204 SA 
ENDROOT
BRANCH   2   3
HETATM    3  C   UNL     1     -10.525   8.656  68.925  1.00  0.00    -0.192 A  
HETATM    4  N   UNL     1     -11.284   9.537  68.313  1.00  0.00    -0.505 NA 
HETATM    5  C   UNL     1     -10.474  10.636  68.134  1.00  0.00    -0.185 A  
HETATM    6  H   UNL     1     -12.259   9.430  68.033  1.00  0.00     0.000 HD 
HETATM    7  C   UNL     1      -9.202  10.400  68.645  1.00  0.00    -0.164 A  
HETATM    8  C   UNL     1      -8.144  11.297  68.507  1.00  0.00    -0.148 A  
HETATM    9  N   UNL     1      -9.289   9.155  69.203  1.00  0.00    -0.150 NA 
HETATM   10  C   UNL     1      -8.390  12.474  67.782  1.00  0.00    -0.170 A  
HETATM   11  C   UNL     1      -9.689  12.814  67.370  1.00  0.00    -0.197 A  
HETATM   12 CL   UNL     1      -6.970  13.361  67.333  1.00  0.00    -0.152 Cl 
HETATM   13  C   UNL     1     -10.731  11.872  67.518  1.00  0.00    -0.263 A  
BRANCH  11  14
HETATM   14  O   UNL     1     -10.101  13.950  66.701  1.00  0.00    -0.261 OA 
BRANCH  14  15
HETATM   15  C   UNL     1     -10.077  15.211  67.261  1.00  0.00    -0.235 A  
HETATM   16  C   UNL     1      -9.786  15.469  68.604  1.00  0.00    -0.207 A  
HETATM   17  C   UNL     1      -9.649  16.783  69.055  1.00  0.00    -0.230 A  
HETATM   18  C   UNL     1      -9.892  17.849  68.188  1.00  0.00    -0.334 A  
HETATM   19  C   UNL     1     -10.312  17.601  66.881  1.00  0.00    -0.329 A  
HETATM   20  C   UNL     1     -10.411  16.284  66.411  1.00  0.00    -0.314 A  
HETATM   21 CL   UNL     1     -10.686  18.974  65.895  1.00  0.00    -0.488 Cl 
HETATM   22 CL   UNL     1     -10.959  15.955  64.795  1.00  0.00    -0.461 Cl 
ENDBRANCH  14  15
ENDBRANCH  11  14
ENDBRANCH   2   3
TORSDOF 3
ENDMDL
MODEL      112
REMARK 921   NORMALIZED FREE ENERGY PREDICTED BY IDOCK:   -4.55 KCAL/MOL
REMARK 922        TOTAL FREE ENERGY PREDICTED BY IDOCK:   -5.91 KCAL/MOL
REMARK 923 INTER-LIGAND FREE ENERGY PREDICTED BY IDOCK:   -5.81 KCAL/MOL
REMARK 924 INTRA-LIGAND FREE ENERGY PREDICTED BY IDOCK:   -0.10 KCAL/MOL
REMARK 927      BINDING AFFINITY PREDICTED BY RF-SCORE:    0.00 PKD
ROOT
HETATM    1  C   UNL     1      -6.393   6.901  67.749  1.00  0.00    -0.048 C  
HETATM    2  S   UNL     1      -7.239   6.976  66.157  1.00  0.00    -0.076 SA 
ENDROOT
BRANCH   2   3
HETATM    3  C   UNL     1      -8.076   8.475  66.283  1.00  0.00    -0.107 A  
HETATM    4  N   UNL     1      -8.168   9.291  67.309  1.00  0.00    -0.120 NA 
HETATM    5  C   UNL     1      -9.032  10.282  66.895  1.00  0.00    -0.136 A  
HETATM    6  H   UNL     1      -7.702   9.209  68.213  1.00  0.00     0.000 HD 
HETATM    7  C   UNL     1      -9.467  10.045  65.596  1.00  0.00    -0.220 A  
HETATM    8  C   UNL     1     -10.430  10.826  64.958  1.00  0.00    -0.307 A  
HETATM    9  N   UNL     1      -8.786   8.924  65.211  1.00  0.00    -0.197 NA 
HETATM   10  C   UNL     1     -10.998  11.876  65.699  1.00  0.00    -0.304 A  
HETATM   11  C   UNL     1     -10.490  12.233  66.958  1.00  0.00    -0.216 A  
HETATM   12 CL   UNL     1     -12.425  12.568  64.999  1.00  0.00    -0.541 Cl 
HETATM   13  C   UNL     1      -9.523  11.408  67.574  1.00  0.00    -0.173 A  
BRANCH  11  14
HETATM   14  O   UNL     1     -10.900  13.265  67.780  1.00  0.00    -0.244 OA 
BRANCH  14  15
HETATM   15  C   UNL     1     -11.597  13.067  68.955  1.00  0.00    -0.318 A  
HETATM   16  C   UNL     1     -11.935  11.811  69.465  1.00  0.00    -0.364 A  
HETATM   17  C   UNL     1     -12.519  11.698  70.729  1.00  0.00    -0.425 A  
HETATM   18  C   UNL     1     -12.853  12.845  71.450  1.00  0.00    -0.377 A  
HETATM   19  C   UNL     1     -12.640  14.105  70.891  1.00  0.00    -0.363 A  
HETATM   20  C   UNL     1     -12.016  14.225  69.641  1.00  0.00    -0.336 A  
HETATM   21 CL   UNL     1     -13.167  15.478  71.804  1.00  0.00    -0.527 Cl 
HETATM   22 CL   UNL     1     -11.767  15.784  68.916  1.00  0.00    -0.407 Cl 
ENDBRANCH  14  15
ENDBRANCH  11  14
ENDBRANCH   2   3
TORSDOF 3
ENDMDL
MODEL      113
REMARK 921   NORMALIZED FREE ENERGY PREDICTED BY IDOCK:   -4.55 KCAL/MOL
REMARK 922        TOTAL FREE ENERGY PREDICTED BY IDOCK:   -5.91 KCAL/MOL
REMARK 923 INTER-LIGAND FREE ENERGY PREDICTED BY IDOCK:   -5.71 KCAL/MOL
REMARK 924 INTRA-LIGAND FREE ENERGY PREDICTED BY IDOCK:   -0.20 KCAL/MOL
REMARK 927      BINDING AFFINITY PREDICTED BY RF-SCORE:    0.00 PKD
ROOT
HETATM    1  C   UNL     1      -6.591   8.412  70.823  1.00  0.00    -0.039 C  
HETATM    2  S   UNL     1      -7.147   8.265  69.112  1.00  0.00    -0.065 SA 
ENDROOT
BRANCH   2   3
HETATM    3  C   UNL     1      -8.484   9.349  69.091  1.00  0.00    -0.134 A  
HETATM    4  N   UNL     1      -8.716  10.364  68.290  1.00  0.00    -0.125 NA 
HETATM    5  C   UNL     1      -9.870  10.940  68.777  1.00  0.00    -0.196 A  
HETATM    6  H   UNL     1      -8.165  10.661  67.485  1.00  0.00     0.000 HD 
HETATM    7  C   UNL     1     -10.328  10.255  69.897  1.00  0.00    -0.233 A  
HETATM    8  C   UNL     1     -11.415  10.677  70.660  1.00  0.00    -0.374 A  
HETATM    9  N   UNL     1      -9.461   9.206  70.029  1.00  0.00    -0.184 NA 
HETATM   10  C   UNL     1     -12.040  11.877  70.279  1.00  0.00    -0.325 A  
HETATM   11  C   UNL     1     -11.698  12.523  69.080  1.00  0.00    -0.321 A  
HETATM   12 CL   UNL     1     -13.128  12.534  71.457  1.00  0.00    -0.441 Cl 
HETATM   13  C   UNL     1     -10.582  12.069  68.342  1.00  0.00    -0.236 A  
BRANCH  11  14
HETATM   14  O   UNL     1     -12.250  13.670  68.544  1.00  0.00    -0.342 OA 
BRANCH  14  15
HETATM   15  C   UNL     1     -11.505  14.654  67.927  1.00  0.00    -0.329 A  
HETATM   16  C   UNL     1     -11.050  14.583  66.607  1.00  0.00    -0.333 A  
HETATM   17  C   UNL     1     -10.421  15.683  66.020  1.00  0.00    -0.343 A  
HETATM   18  C   UNL     1     -10.161  16.826  66.775  1.00  0.00    -0.295 A  
HETATM   19  C   UNL     1     -10.493  16.856  68.130  1.00  0.00    -0.350 A  
HETATM   20  C   UNL     1     -11.162  15.771  68.715  1.00  0.00    -0.342 A  
HETATM   21 CL   UNL     1     -10.053  18.271  69.024  1.00  0.00    -0.363 Cl 
HETATM   22 CL   UNL     1     -11.559  15.778  70.406  1.00  0.00    -0.339 Cl 
ENDBRANCH  14  15
ENDBRANCH  11  14
ENDBRANCH   2   3
TORSDOF 3
ENDMDL
MODEL      114
REMARK 921   NORMALIZED FREE ENERGY PREDICTED BY IDOCK:   -4.54 KCAL/MOL
REMARK 922        TOTAL FREE ENERGY PREDICTED BY IDOCK:   -5.90 KCAL/MOL
REMARK 923 INTER-LIGAND FREE ENERGY PREDICTED BY IDOCK:   -5.63 KCAL/MOL
REMARK 924 INTRA-LIGAND FREE ENERGY PREDICTED BY IDOCK:   -0.27 KCAL/MOL
REMARK 927      BINDING AFFINITY PREDICTED BY RF-SCORE:    0.00 PKD
ROOT
HETATM    1  C   UNL     1      -5.219  19.199  63.922  1.00  0.00    -0.252 C  
HETATM    2  S   UNL     1      -6.127  19.903  65.314  1.00  0.00    -0.242 SA 
ENDROOT
BRANCH   2   3
HETATM    3  C   UNL     1      -7.114  18.575  65.787  1.00  0.00    -0.220 A  
HETATM    4  N   UNL     1      -8.416  18.526  65.954  1.00  0.00    -0.470 NA 
HETATM    5  C   UNL     1      -8.664  17.257  66.429  1.00  0.00    -0.250 A  
HETATM    6  H   UNL     1      -9.095  19.266  65.771  1.00  0.00     0.000 HD 
HETATM    7  C   UNL     1      -7.480  16.538  66.554  1.00  0.00    -0.235 A  
HETATM    8  C   UNL     1      -7.416  15.262  67.111  1.00  0.00    -0.202 A  
HETATM    9  N   UNL     1      -6.520  17.383  66.072  1.00  0.00    -0.190 NA 
HETATM   10  C   UNL     1      -8.615  14.712  67.595  1.00  0.00    -0.176 A  
HETATM   11  C   UNL     1      -9.847  15.342  67.365  1.00  0.00    -0.216 A  
HETATM   12 CL   UNL     1      -8.417  13.308  68.594  1.00  0.00    -0.052 Cl 
HETATM   13  C   UNL     1      -9.867  16.641  66.807  1.00  0.00    -0.280 A  
BRANCH  11  14
HETATM   14  O   UNL     1     -11.108  14.908  67.727  1.00  0.00    -0.286 OA 
BRANCH  14  15
HETATM   15  C   UNL     1     -11.423  13.580  67.929  1.00  0.00    -0.318 A  
HETATM   16  C   UNL     1     -11.460  12.618  66.915  1.00  0.00    -0.402 A  
HETATM   17  C   UNL     1     -11.653  11.272  67.230  1.00  0.00    -0.171 A  
HETATM   18  C   UNL     1     -11.903  10.890  68.548  1.00  0.00    -0.236 A  
HETATM   19  C   UNL     1     -12.000  11.859  69.547  1.00  0.00    -0.292 A  
HETATM   20  C   UNL     1     -11.765  13.207  69.245  1.00  0.00    -0.321 A  
HETATM   21 CL   UNL     1     -12.406  11.318  71.140  1.00  0.00    -0.457 Cl 
HETATM   22 CL   UNL     1     -11.907  14.431  70.469  1.00  0.00    -0.362 Cl 
ENDBRANCH  14  15
ENDBRANCH  11  14
ENDBRANCH   2   3
TORSDOF 3
ENDMDL
MODEL      115
REMARK 921   NORMALIZED FREE ENERGY PREDICTED BY IDOCK:   -4.47 KCAL/MOL
REMARK 922        TOTAL FREE ENERGY PREDICTED BY IDOCK:   -5.82 KCAL/MOL
REMARK 923 INTER-LIGAND FREE ENERGY PREDICTED BY IDOCK:   -6.39 KCAL/MOL
REMARK 924 INTRA-LIGAND FREE ENERGY PREDICTED BY IDOCK:    0.57 KCAL/MOL
REMARK 927      BINDING AFFINITY PREDICTED BY RF-SCORE:    0.00 PKD
ROOT
HETATM    1  C   UNL     1     -12.230  14.866  73.893  1.00  0.00    -0.418 C  
HETATM    2  S   UNL     1     -11.952  16.380  72.951  1.00  0.00    -0.330 SA 
ENDROOT
BRANCH   2   3
HETATM    3  C   UNL     1     -11.963  15.787  71.335  1.00  0.00    -0.441 A  
HETATM    4  N   UNL     1     -12.440  14.654  70.870  1.00  0.00    -0.313 NA 
HETATM    5  C   UNL     1     -12.097  14.650  69.535  1.00  0.00    -0.295 A  
HETATM    6  H   UNL     1     -12.952  13.937  71.383  1.00  0.00     0.000 HD 
HETATM    7  C   UNL     1     -11.394  15.802  69.202  1.00  0.00    -0.349 A  
HETATM    8  C   UNL     1     -10.829  16.018  67.947  1.00  0.00    -0.333 A  
HETATM    9  N   UNL     1     -11.386  16.537  70.356  1.00  0.00    -0.203 NA 
HETATM   10  C   UNL     1     -10.959  14.989  66.999  1.00  0.00    -0.318 A  
HETATM   11  C   UNL     1     -11.775  13.874  67.247  1.00  0.00    -0.386 A  
HETATM   12 CL   UNL     1      -9.939  15.152  65.607  1.00  0.00    -0.370 Cl 
HETATM   13  C   UNL     1     -12.320  13.687  68.537  1.00  0.00     0.022 A  
BRANCH  11  14
HETATM   14  O   UNL     1     -12.047  12.813  66.405  1.00  0.00    -0.470 OA 
BRANCH  14  15
HETATM   15  C   UNL     1     -11.144  11.803  66.140  1.00  0.00    -0.307 A  
HETATM   16  C   UNL     1     -10.532  11.603  64.900  1.00  0.00    -0.339 A  
HETATM   17  C   UNL     1      -9.527  10.643  64.758  1.00  0.00    -0.306 A  
HETATM   18  C   UNL     1      -9.193   9.816  65.830  1.00  0.00    -0.236 A  
HETATM   19  C   UNL     1      -9.891   9.921  67.034  1.00  0.00    -0.191 A  
HETATM   20  C   UNL     1     -10.871  10.910  67.195  1.00  0.00    -0.280 A  
HETATM   21 CL   UNL     1      -9.485   8.797  68.286  1.00  0.00    -0.146 Cl 
HETATM   22 CL   UNL     1     -11.770  11.038  68.677  1.00  0.00    -0.380 Cl 
ENDBRANCH  14  15
ENDBRANCH  11  14
ENDBRANCH   2   3
TORSDOF 3
ENDMDL
MODEL      116
REMARK 921   NORMALIZED FREE ENERGY PREDICTED BY IDOCK:   -4.44 KCAL/MOL
REMARK 922        TOTAL FREE ENERGY PREDICTED BY IDOCK:   -5.78 KCAL/MOL
REMARK 923 INTER-LIGAND FREE ENERGY PREDICTED BY IDOCK:   -5.17 KCAL/MOL
REMARK 924 INTRA-LIGAND FREE ENERGY PREDICTED BY IDOCK:   -0.61 KCAL/MOL
REMARK 927      BINDING AFFINITY PREDICTED BY RF-SCORE:    0.00 PKD
ROOT
HETATM    1  C   UNL     1      -8.406   4.982  69.415  1.00  0.00    -0.085 C  
HETATM    2  S   UNL     1      -9.857   4.978  68.342  1.00  0.00    -0.129 SA 
ENDROOT
BRANCH   2   3
HETATM    3  C   UNL     1      -9.964   6.640  67.903  1.00  0.00    -0.132 A  
HETATM    4  N   UNL     1      -9.491   7.250  66.840  1.00  0.00    -0.156 NA 
HETATM    5  C   UNL     1      -9.776   8.583  67.043  1.00  0.00    -0.204 A  
HETATM    6  H   UNL     1      -9.018   6.830  66.040  1.00  0.00     0.000 HD 
HETATM    7  C   UNL     1     -10.426   8.769  68.258  1.00  0.00    -0.187 A  
HETATM    8  C   UNL     1     -10.740  10.025  68.774  1.00  0.00    -0.250 A  
HETATM    9  N   UNL     1     -10.592   7.503  68.749  1.00  0.00    -0.190 NA 
HETATM   10  C   UNL     1     -10.336  11.144  68.026  1.00  0.00    -0.185 A  
HETATM   11  C   UNL     1      -9.803  11.001  66.736  1.00  0.00    -0.197 A  
HETATM   12 CL   UNL     1     -10.421  12.653  68.877  1.00  0.00    -0.164 Cl 
HETATM   13  C   UNL     1      -9.490   9.709  66.256  1.00  0.00    -0.255 A  
BRANCH  11  14
HETATM   14  O   UNL     1      -9.411  11.995  65.861  1.00  0.00    -0.225 OA 
BRANCH  14  15
HETATM   15  C   UNL     1     -10.293  12.875  65.267  1.00  0.00    -0.300 A  
HETATM   16  C   UNL     1     -11.303  12.494  64.379  1.00  0.00    -0.395 A  
HETATM   17  C   UNL     1     -12.238  13.431  63.933  1.00  0.00    -0.478 A  
HETATM   18  C   UNL     1     -12.113  14.771  64.298  1.00  0.00    -0.415 A  
HETATM   19  C   UNL     1     -11.031  15.183  65.076  1.00  0.00    -0.430 A  
HETATM   20  C   UNL     1     -10.113  14.241  65.561  1.00  0.00    -0.345 A  
HETATM   21 CL   UNL     1     -10.891  16.876  65.408  1.00  0.00    -0.217 Cl 
HETATM   22 CL   UNL     1      -8.744  14.738  66.508  1.00  0.00    -0.230 Cl 
ENDBRANCH  14  15
ENDBRANCH  11  14
ENDBRANCH   2   3
TORSDOF 3
ENDMDL
MODEL      117
REMARK 921   NORMALIZED FREE ENERGY PREDICTED BY IDOCK:   -4.44 KCAL/MOL
REMARK 922        TOTAL FREE ENERGY PREDICTED BY IDOCK:   -5.78 KCAL/MOL
REMARK 923 INTER-LIGAND FREE ENERGY PREDICTED BY IDOCK:   -5.51 KCAL/MOL
REMARK 924 INTRA-LIGAND FREE ENERGY PREDICTED BY IDOCK:   -0.27 KCAL/MOL
REMARK 927      BINDING AFFINITY PREDICTED BY RF-SCORE:    0.00 PKD
ROOT
HETATM    1  C   UNL     1      -6.930   6.765  64.219  1.00  0.00    -0.051 C  
HETATM    2  S   UNL     1      -7.860   7.669  62.964  1.00  0.00    -0.115 SA 
ENDROOT
BRANCH   2   3
HETATM    3  C   UNL     1      -8.516   8.964  63.890  1.00  0.00    -0.136 A  
HETATM    4  N   UNL     1      -9.587   9.690  63.659  1.00  0.00    -0.458 NA 
HETATM    5  C   UNL     1      -9.589  10.640  64.657  1.00  0.00    -0.280 A  
HETATM    6  H   UNL     1     -10.267   9.575  62.908  1.00  0.00     0.000 HD 
HETATM    7  C   UNL     1      -8.491  10.479  65.494  1.00  0.00    -0.173 A  
HETATM    8  C   UNL     1      -8.179  11.363  66.526  1.00  0.00    -0.152 A  
HETATM    9  N   UNL     1      -7.865   9.360  65.018  1.00  0.00    -0.111 NA 
HETATM   10  C   UNL     1      -9.012  12.484  66.684  1.00  0.00    -0.174 A  
HETATM   11  C   UNL     1     -10.203  12.611  65.953  1.00  0.00    -0.274 A  
HETATM   12 CL   UNL     1      -8.376  13.719  67.721  1.00  0.00    -0.165 Cl 
HETATM   13  C   UNL     1     -10.476  11.700  64.908  1.00  0.00    -0.339 A  
BRANCH  11  14
HETATM   14  O   UNL     1     -11.147  13.617  66.030  1.00  0.00    -0.292 OA 
BRANCH  14  15
HETATM   15  C   UNL     1     -11.355  14.377  67.163  1.00  0.00    -0.343 A  
HETATM   16  C   UNL     1     -12.025  13.922  68.302  1.00  0.00    -0.392 A  
HETATM   17  C   UNL     1     -12.069  14.709  69.454  1.00  0.00    -0.317 A  
HETATM   18  C   UNL     1     -11.525  15.994  69.445  1.00  0.00    -0.336 A  
HETATM   19  C   UNL     1     -10.971  16.507  68.272  1.00  0.00    -0.346 A  
HETATM   20  C   UNL     1     -10.886  15.706  67.124  1.00  0.00    -0.297 A  
HETATM   21 CL   UNL     1     -10.403  18.141  68.311  1.00  0.00    -0.383 Cl 
HETATM   22 CL   UNL     1     -10.226  16.336  65.646  1.00  0.00    -0.378 Cl 
ENDBRANCH  14  15
ENDBRANCH  11  14
ENDBRANCH   2   3
TORSDOF 3
ENDMDL
MODEL      118
REMARK 921   NORMALIZED FREE ENERGY PREDICTED BY IDOCK:   -4.44 KCAL/MOL
REMARK 922        TOTAL FREE ENERGY PREDICTED BY IDOCK:   -5.78 KCAL/MOL
REMARK 923 INTER-LIGAND FREE ENERGY PREDICTED BY IDOCK:   -5.46 KCAL/MOL
REMARK 924 INTRA-LIGAND FREE ENERGY PREDICTED BY IDOCK:   -0.31 KCAL/MOL
REMARK 927      BINDING AFFINITY PREDICTED BY RF-SCORE:    0.00 PKD
ROOT
HETATM    1  C   UNL     1     -12.267  12.615  63.467  1.00  0.00    -0.547 C  
HETATM    2  S   UNL     1     -11.952  13.786  64.803  1.00  0.00    -0.427 SA 
ENDROOT
BRANCH   2   3
HETATM    3  C   UNL     1     -11.592  12.727  66.111  1.00  0.00    -0.379 A  
HETATM    4  N   UNL     1     -11.070  11.521  66.083  1.00  0.00    -0.279 NA 
HETATM    5  C   UNL     1     -11.093  11.097  67.394  1.00  0.00    -0.307 A  
HETATM    6  H   UNL     1     -10.724  11.012  65.270  1.00  0.00     0.000 HD 
HETATM    7  C   UNL     1     -11.647  12.071  68.218  1.00  0.00    -0.334 A  
HETATM    8  C   UNL     1     -11.895  11.874  69.575  1.00  0.00    -0.395 A  
HETATM    9  N   UNL     1     -11.891  13.123  67.379  1.00  0.00    -0.367 NA 
HETATM   10  C   UNL     1     -11.593  10.608  70.106  1.00  0.00    -0.330 A  
HETATM   11  C   UNL     1     -10.907   9.648  69.345  1.00  0.00    -0.217 A  
HETATM   12 CL   UNL     1     -12.252  10.306  71.680  1.00  0.00    -0.438 Cl 
HETATM   13  C   UNL     1     -10.687   9.883  67.969  1.00  0.00    -0.296 A  
BRANCH  11  14
HETATM   14  O   UNL     1     -10.494   8.389  69.735  1.00  0.00    -0.214 OA 
BRANCH  14  15
HETATM   15  C   UNL     1      -9.219   7.908  69.519  1.00  0.00    -0.152 A  
HETATM   16  C   UNL     1      -8.090   8.336  70.223  1.00  0.00    -0.104 A  
HETATM   17  C   UNL     1      -6.862   7.697  70.037  1.00  0.00    -0.050 A  
HETATM   18  C   UNL     1      -6.735   6.690  69.080  1.00  0.00    -0.052 A  
HETATM   19  C   UNL     1      -7.825   6.347  68.281  1.00  0.00    -0.105 A  
HETATM   20  C   UNL     1      -9.071   6.955  68.492  1.00  0.00    -0.127 A  
HETATM   21 CL   UNL     1      -7.566   5.156  67.053  1.00  0.00    -0.087 Cl 
HETATM   22 CL   UNL     1     -10.434   6.562  67.489  1.00  0.00    -0.254 Cl 
ENDBRANCH  14  15
ENDBRANCH  11  14
ENDBRANCH   2   3
TORSDOF 3
ENDMDL
MODEL      119
REMARK 921   NORMALIZED FREE ENERGY PREDICTED BY IDOCK:   -4.42 KCAL/MOL
REMARK 922        TOTAL FREE ENERGY PREDICTED BY IDOCK:   -5.76 KCAL/MOL
REMARK 923 INTER-LIGAND FREE ENERGY PREDICTED BY IDOCK:   -5.16 KCAL/MOL
REMARK 924 INTRA-LIGAND FREE ENERGY PREDICTED BY IDOCK:   -0.60 KCAL/MOL
REMARK 927      BINDING AFFINITY PREDICTED BY RF-SCORE:    0.00 PKD
ROOT
HETATM    1  C   UNL     1      -5.456  20.317  63.809  1.00  0.00    -0.219 C  
HETATM    2  S   UNL     1      -5.907  20.774  65.496  1.00  0.00    -0.239 SA 
ENDROOT
BRANCH   2   3
HETATM    3  C   UNL     1      -6.696  19.344  66.040  1.00  0.00    -0.233 A  
HETATM    4  N   UNL     1      -7.069  18.289  65.352  1.00  0.00    -0.518 NA 
HETATM    5  C   UNL     1      -7.736  17.495  66.259  1.00  0.00    -0.298 A  
HETATM    6  H   UNL     1      -6.900  18.098  64.365  1.00  0.00     0.000 HD 
HETATM    7  C   UNL     1      -7.767  18.096  67.513  1.00  0.00    -0.218 A  
HETATM    8  C   UNL     1      -8.468  17.571  68.597  1.00  0.00    -0.258 A  
HETATM    9  N   UNL     1      -7.036  19.241  67.355  1.00  0.00    -0.204 NA 
HETATM   10  C   UNL     1      -9.200  16.392  68.377  1.00  0.00    -0.217 A  
HETATM   11  C   UNL     1      -9.085  15.681  67.172  1.00  0.00    -0.210 A  
HETATM   12 CL   UNL     1     -10.328  15.994  69.632  1.00  0.00    -0.275 Cl 
HETATM   13  C   UNL     1      -8.375  16.256  66.094  1.00  0.00    -0.260 A  
BRANCH  11  14
HETATM   14  O   UNL     1      -9.693  14.490  66.824  1.00  0.00    -0.242 OA 
BRANCH  14  15
HETATM   15  C   UNL     1      -9.445  13.296  67.469  1.00  0.00    -0.220 A  
HETATM   16  C   UNL     1      -8.181  12.708  67.576  1.00  0.00    -0.178 A  
HETATM   17  C   UNL     1      -7.999  11.570  68.364  1.00  0.00    -0.143 A  
HETATM   18  C   UNL     1      -9.095  10.959  68.974  1.00  0.00    -0.110 A  
HETATM   19  C   UNL     1     -10.379  11.462  68.764  1.00  0.00    -0.204 A  
HETATM   20  C   UNL     1     -10.563  12.628  68.008  1.00  0.00    -0.221 A  
HETATM   21 CL   UNL     1     -11.697  10.594  69.475  1.00  0.00    -0.349 Cl 
HETATM   22 CL   UNL     1     -12.156  13.254  67.713  1.00  0.00    -0.340 Cl 
ENDBRANCH  14  15
ENDBRANCH  11  14
ENDBRANCH   2   3
TORSDOF 3
ENDMDL
MODEL      120
REMARK 921   NORMALIZED FREE ENERGY PREDICTED BY IDOCK:   -4.38 KCAL/MOL
REMARK 922        TOTAL FREE ENERGY PREDICTED BY IDOCK:   -5.72 KCAL/MOL
REMARK 923 INTER-LIGAND FREE ENERGY PREDICTED BY IDOCK:   -5.16 KCAL/MOL
REMARK 924 INTRA-LIGAND FREE ENERGY PREDICTED BY IDOCK:   -0.56 KCAL/MOL
REMARK 927      BINDING AFFINITY PREDICTED BY RF-SCORE:    0.00 PKD
ROOT
HETATM    1  C   UNL     1     -10.540   5.709  66.724  1.00  0.00    -0.304 C  
HETATM    2  S   UNL     1      -8.984   6.411  66.139  1.00  0.00    -0.125 SA 
ENDROOT
BRANCH   2   3
HETATM    3  C   UNL     1      -9.242   8.091  66.408  1.00  0.00    -0.194 A  
HETATM    4  N   UNL     1      -8.383   9.083  66.344  1.00  0.00    -0.113 NA 
HETATM    5  C   UNL     1      -9.095  10.193  66.744  1.00  0.00    -0.139 A  
HETATM    6  H   UNL     1      -7.404   9.042  66.060  1.00  0.00     0.000 HD 
HETATM    7  C   UNL     1     -10.405   9.850  67.060  1.00  0.00    -0.239 A  
HETATM    8  C   UNL     1     -11.324  10.750  67.596  1.00  0.00    -0.328 A  
HETATM    9  N   UNL     1     -10.484   8.516  66.769  1.00  0.00    -0.285 NA 
HETATM   10  C   UNL     1     -10.869  12.054  67.854  1.00  0.00    -0.215 A  
HETATM   11  C   UNL     1      -9.601  12.478  67.424  1.00  0.00    -0.192 A  
HETATM   12 CL   UNL     1     -11.924  13.009  68.844  1.00  0.00    -0.333 Cl 
HETATM   13  C   UNL     1      -8.696  11.530  66.896  1.00  0.00    -0.181 A  
BRANCH  11  14
HETATM   14  O   UNL     1      -9.033  13.730  67.553  1.00  0.00    -0.181 OA 
BRANCH  14  15
HETATM   15  C   UNL     1      -9.552  14.864  66.961  1.00  0.00    -0.238 A  
HETATM   16  C   UNL     1     -10.005  14.923  65.640  1.00  0.00    -0.389 A  
HETATM   17  C   UNL     1     -10.642  16.071  65.165  1.00  0.00    -0.394 A  
HETATM   18  C   UNL     1     -10.749  17.199  65.979  1.00  0.00    -0.113 A  
HETATM   19  C   UNL     1     -10.182  17.194  67.254  1.00  0.00    -0.316 A  
HETATM   20  C   UNL     1      -9.578  16.031  67.751  1.00  0.00    -0.219 A  
HETATM   21 CL   UNL     1     -10.270  18.662  68.167  1.00  0.00    -0.408 Cl 
HETATM   22 CL   UNL     1      -8.842  16.013  69.325  1.00  0.00    -0.249 Cl 
ENDBRANCH  14  15
ENDBRANCH  11  14
ENDBRANCH   2   3
TORSDOF 3
ENDMDL
MODEL      121
REMARK 921   NORMALIZED FREE ENERGY PREDICTED BY IDOCK:   -4.37 KCAL/MOL
REMARK 922        TOTAL FREE ENERGY PREDICTED BY IDOCK:   -5.70 KCAL/MOL
REMARK 923 INTER-LIGAND FREE ENERGY PREDICTED BY IDOCK:   -6.07 KCAL/MOL
REMARK 924 INTRA-LIGAND FREE ENERGY PREDICTED BY IDOCK:    0.36 KCAL/MOL
REMARK 927      BINDING AFFINITY PREDICTED BY RF-SCORE:    0.00 PKD
ROOT
HETATM    1  C   UNL     1      -9.267   5.900  72.297  1.00  0.00    -0.144 C  
HETATM    2  S   UNL     1      -9.663   7.402  73.217  1.00  0.00    -0.278 SA 
ENDROOT
BRANCH   2   3
HETATM    3  C   UNL     1      -9.957   8.519  71.941  1.00  0.00    -0.294 A  
HETATM    4  N   UNL     1     -11.026   9.245  71.703  1.00  0.00    -0.373 NA 
HETATM    5  C   UNL     1     -10.763   9.880  70.509  1.00  0.00    -0.317 A  
HETATM    6  H   UNL     1     -11.866   9.321  72.277  1.00  0.00     0.000 HD 
HETATM    7  C   UNL     1      -9.511   9.518  70.024  1.00  0.00    -0.232 A  
HETATM    8  C   UNL     1      -9.026   9.923  68.782  1.00  0.00    -0.140 A  
HETATM    9  N   UNL     1      -8.996   8.703  70.994  1.00  0.00    -0.177 NA 
HETATM   10  C   UNL     1      -9.877  10.708  67.985  1.00  0.00    -0.160 A  
HETATM   11  C   UNL     1     -11.086  11.208  68.491  1.00  0.00    -0.244 A  
HETATM   12 CL   UNL     1      -9.378  10.870  66.333  1.00  0.00    -0.191 Cl 
HETATM   13  C   UNL     1     -11.548  10.763  69.751  1.00  0.00    -0.393 A  
BRANCH  11  14
HETATM   14  O   UNL     1     -12.000  12.029  67.859  1.00  0.00    -0.526 OA 
BRANCH  14  15
HETATM   15  C   UNL     1     -11.738  12.686  66.674  1.00  0.00    -0.398 A  
HETATM   16  C   UNL     1     -12.263  12.309  65.435  1.00  0.00    -0.279 A  
HETATM   17  C   UNL     1     -12.057  13.111  64.310  1.00  0.00    -0.477 A  
HETATM   18  C   UNL     1     -11.248  14.244  64.397  1.00  0.00    -0.262 A  
HETATM   19  C   UNL     1     -10.612  14.554  65.600  1.00  0.00    -0.332 A  
HETATM   20  C   UNL     1     -10.849  13.777  66.742  1.00  0.00    -0.284 A  
HETATM   21 CL   UNL     1      -9.549  15.919  65.605  1.00  0.00    -0.329 Cl 
HETATM   22 CL   UNL     1     -10.044  14.130  68.241  1.00  0.00    -0.234 Cl 
ENDBRANCH  14  15
ENDBRANCH  11  14
ENDBRANCH   2   3
TORSDOF 3
ENDMDL
MODEL      122
REMARK 921   NORMALIZED FREE ENERGY PREDICTED BY IDOCK:   -4.37 KCAL/MOL
REMARK 922        TOTAL FREE ENERGY PREDICTED BY IDOCK:   -5.70 KCAL/MOL
REMARK 923 INTER-LIGAND FREE ENERGY PREDICTED BY IDOCK:   -5.26 KCAL/MOL
REMARK 924 INTRA-LIGAND FREE ENERGY PREDICTED BY IDOCK:   -0.43 KCAL/MOL
REMARK 927      BINDING AFFINITY PREDICTED BY RF-SCORE:    0.00 PKD
ROOT
HETATM    1  C   UNL     1     -14.003  13.527  72.331  1.00  0.00    -0.536 C  
HETATM    2  S   UNL     1     -12.895  13.976  70.979  1.00  0.00    -0.323 SA 
ENDROOT
BRANCH   2   3
HETATM    3  C   UNL     1     -12.169  12.459  70.611  1.00  0.00    -0.278 A  
HETATM    4  N   UNL     1     -11.370  12.140  69.618  1.00  0.00    -0.464 NA 
HETATM    5  C   UNL     1     -11.171  10.783  69.748  1.00  0.00    -0.297 A  
HETATM    6  H   UNL     1     -10.982  12.761  68.908  1.00  0.00     0.000 HD 
HETATM    7  C   UNL     1     -11.874  10.284  70.839  1.00  0.00    -0.377 A  
HETATM    8  C   UNL     1     -11.944   8.927  71.148  1.00  0.00    -0.344 A  
HETATM    9  N   UNL     1     -12.444  11.389  71.407  1.00  0.00    -0.309 NA 
HETATM   10  C   UNL     1     -11.293   8.036  70.278  1.00  0.00    -0.141 A  
HETATM   11  C   UNL     1     -10.461   8.505  69.249  1.00  0.00    -0.215 A  
HETATM   12 CL   UNL     1     -11.715   6.369  70.497  1.00  0.00    -0.435 Cl 
HETATM   13  C   UNL     1     -10.428   9.889  68.961  1.00  0.00    -0.227 A  
BRANCH  11  14
HETATM   14  O   UNL     1      -9.717   7.766  68.350  1.00  0.00    -0.153 OA 
BRANCH  14  15
HETATM   15  C   UNL     1      -9.084   6.585  68.680  1.00  0.00    -0.128 A  
HETATM   16  C   UNL     1      -8.047   6.484  69.613  1.00  0.00    -0.125 A  
HETATM   17  C   UNL     1      -7.557   5.231  69.988  1.00  0.00    -0.068 A  
HETATM   18  C   UNL     1      -8.037   4.078  69.366  1.00  0.00    -0.061 A  
HETATM   19  C   UNL     1      -8.977   4.180  68.341  1.00  0.00    -0.118 A  
HETATM   20  C   UNL     1      -9.503   5.431  67.989  1.00  0.00    -0.118 A  
HETATM   21 CL   UNL     1      -9.453   2.714  67.552  1.00  0.00    -0.187 Cl 
HETATM   22 CL   UNL     1     -10.654   5.581  66.696  1.00  0.00    -0.358 Cl 
ENDBRANCH  14  15
ENDBRANCH  11  14
ENDBRANCH   2   3
TORSDOF 3
ENDMDL
MODEL      123
REMARK 921   NORMALIZED FREE ENERGY PREDICTED BY IDOCK:   -4.35 KCAL/MOL
REMARK 922        TOTAL FREE ENERGY PREDICTED BY IDOCK:   -5.67 KCAL/MOL
REMARK 923 INTER-LIGAND FREE ENERGY PREDICTED BY IDOCK:   -5.20 KCAL/MOL
REMARK 924 INTRA-LIGAND FREE ENERGY PREDICTED BY IDOCK:   -0.47 KCAL/MOL
REMARK 927      BINDING AFFINITY PREDICTED BY RF-SCORE:    0.00 PKD
ROOT
HETATM    1  C   UNL     1      -9.155   4.232  63.717  1.00  0.00    -0.142 C  
HETATM    2  S   UNL     1      -9.995   3.501  65.138  1.00  0.00     0.041 SA 
ENDROOT
BRANCH   2   3
HETATM    3  C   UNL     1     -10.057   4.835  66.224  1.00  0.00    -0.264 A  
HETATM    4  N   UNL     1     -10.681   5.984  66.093  1.00  0.00    -0.492 NA 
HETATM    5  C   UNL     1     -10.314   6.713  67.204  1.00  0.00    -0.252 A  
HETATM    6  H   UNL     1     -11.300   6.273  65.336  1.00  0.00     0.000 HD 
HETATM    7  C   UNL     1      -9.448   5.982  68.009  1.00  0.00    -0.113 A  
HETATM    8  C   UNL     1      -8.831   6.507  69.144  1.00  0.00    -0.128 A  
HETATM    9  N   UNL     1      -9.358   4.765  67.391  1.00  0.00    -0.130 NA 
HETATM   10  C   UNL     1      -9.088   7.855  69.447  1.00  0.00    -0.145 A  
HETATM   11  C   UNL     1     -10.059   8.584  68.744  1.00  0.00    -0.196 A  
HETATM   12 CL   UNL     1      -8.026   8.546  70.631  1.00  0.00    -0.094 Cl 
HETATM   13  C   UNL     1     -10.652   8.019  67.593  1.00  0.00    -0.264 A  
BRANCH  11  14
HETATM   14  O   UNL     1     -10.462   9.889  68.954  1.00  0.00    -0.193 OA 
BRANCH  14  15
HETATM   15  C   UNL     1     -11.397  10.252  69.901  1.00  0.00    -0.290 A  
HETATM   16  C   UNL     1     -12.022   9.354  70.771  1.00  0.00    -0.298 A  
HETATM   17  C   UNL     1     -12.852   9.824  71.791  1.00  0.00    -0.530 A  
HETATM   18  C   UNL     1     -13.136  11.186  71.890  1.00  0.00    -0.513 A  
HETATM   19  C   UNL     1     -12.622  12.075  70.945  1.00  0.00    -0.253 A  
HETATM   20  C   UNL     1     -11.754  11.614  69.945  1.00  0.00    -0.337 A  
HETATM   21 CL   UNL     1     -13.095  13.734  71.077  1.00  0.00    -0.321 Cl 
HETATM   22 CL   UNL     1     -11.127  12.700  68.743  1.00  0.00    -0.288 Cl 
ENDBRANCH  14  15
ENDBRANCH  11  14
ENDBRANCH   2   3
TORSDOF 3
ENDMDL
MODEL      124
REMARK 921   NORMALIZED FREE ENERGY PREDICTED BY IDOCK:   -4.31 KCAL/MOL
REMARK 922        TOTAL FREE ENERGY PREDICTED BY IDOCK:   -5.63 KCAL/MOL
REMARK 923 INTER-LIGAND FREE ENERGY PREDICTED BY IDOCK:   -5.35 KCAL/MOL
REMARK 924 INTRA-LIGAND FREE ENERGY PREDICTED BY IDOCK:   -0.28 KCAL/MOL
REMARK 927      BINDING AFFINITY PREDICTED BY RF-SCORE:    0.00 PKD
ROOT
HETATM    1  C   UNL     1     -12.311  14.064  65.631  1.00  0.00    -0.479 C  
HETATM    2  S   UNL     1     -11.485  13.358  64.190  1.00  0.00    -0.362 SA 
ENDROOT
BRANCH   2   3
HETATM    3  C   UNL     1     -10.869  11.886  64.834  1.00  0.00    -0.305 A  
HETATM    4  N   UNL     1     -11.043  11.364  66.028  1.00  0.00    -0.226 NA 
HETATM    5  C   UNL     1     -10.251  10.237  66.039  1.00  0.00    -0.228 A  
HETATM    6  H   UNL     1     -11.635  11.717  66.780  1.00  0.00     0.000 HD 
HETATM    7  C   UNL     1      -9.586  10.089  64.827  1.00  0.00    -0.308 A  
HETATM    8  C   UNL     1      -8.635   9.098  64.591  1.00  0.00    -0.206 A  
HETATM    9  N   UNL     1     -10.055  11.119  64.058  1.00  0.00    -0.304 NA 
HETATM   10  C   UNL     1      -8.326   8.239  65.659  1.00  0.00    -0.148 A  
HETATM   11  C   UNL     1      -9.070   8.265  66.850  1.00  0.00    -0.150 A  
HETATM   12 CL   UNL     1      -6.899   7.281  65.430  1.00  0.00    -0.051 Cl 
HETATM   13  C   UNL     1     -10.016   9.294  67.053  1.00  0.00    -0.286 A  
BRANCH  11  14
HETATM   14  O   UNL     1      -8.927   7.458  67.962  1.00  0.00    -0.132 OA 
BRANCH  14  15
HETATM   15  C   UNL     1      -9.352   7.822  69.223  1.00  0.00    -0.148 A  
HETATM   16  C   UNL     1      -8.621   8.636  70.093  1.00  0.00    -0.138 A  
HETATM   17  C   UNL     1      -9.186   9.068  71.295  1.00  0.00    -0.314 A  
HETATM   18  C   UNL     1     -10.448   8.613  71.677  1.00  0.00    -0.366 A  
HETATM   19  C   UNL     1     -11.129   7.695  70.877  1.00  0.00    -0.263 A  
HETATM   20  C   UNL     1     -10.585   7.291  69.650  1.00  0.00    -0.235 A  
HETATM   21 CL   UNL     1     -12.646   7.103  71.464  1.00  0.00    -0.409 Cl 
HETATM   22 CL   UNL     1     -11.404   6.128  68.653  1.00  0.00    -0.287 Cl 
ENDBRANCH  14  15
ENDBRANCH  11  14
ENDBRANCH   2   3
TORSDOF 3
ENDMDL
MODEL      125
REMARK 921   NORMALIZED FREE ENERGY PREDICTED BY IDOCK:   -4.29 KCAL/MOL
REMARK 922        TOTAL FREE ENERGY PREDICTED BY IDOCK:   -5.60 KCAL/MOL
REMARK 923 INTER-LIGAND FREE ENERGY PREDICTED BY IDOCK:   -5.26 KCAL/MOL
REMARK 924 INTRA-LIGAND FREE ENERGY PREDICTED BY IDOCK:   -0.34 KCAL/MOL
REMARK 927      BINDING AFFINITY PREDICTED BY RF-SCORE:    0.00 PKD
ROOT
HETATM    1  C   UNL     1     -10.290   2.695  63.543  1.00  0.00    -0.186 C  
HETATM    2  S   UNL     1      -9.185   2.837  64.963  1.00  0.00    -0.126 SA 
ENDROOT
BRANCH   2   3
HETATM    3  C   UNL     1      -9.490   4.451  65.476  1.00  0.00    -0.175 A  
HETATM    4  N   UNL     1      -9.010   5.578  64.999  1.00  0.00    -0.340 NA 
HETATM    5  C   UNL     1      -9.503   6.554  65.839  1.00  0.00     0.138 A  
HETATM    6  H   UNL     1      -8.406   5.703  64.187  1.00  0.00     0.000 HD 
HETATM    7  C   UNL     1     -10.287   5.992  66.840  1.00  0.00    -0.244 A  
HETATM    8  C   UNL     1     -10.828   6.729  67.892  1.00  0.00    -0.320 A  
HETATM    9  N   UNL     1     -10.314   4.658  66.539  1.00  0.00    -0.241 NA 
HETATM   10  C   UNL     1     -10.520   8.100  67.940  1.00  0.00    -0.197 A  
HETATM   11  C   UNL     1      -9.850   8.730  66.879  1.00  0.00    -0.229 A  
HETATM   12 CL   UNL     1     -10.904   8.877  69.441  1.00  0.00    -0.183 Cl 
HETATM   13  C   UNL     1      -9.308   7.944  65.838  1.00  0.00    -0.059 A  
BRANCH  11  14
HETATM   14  O   UNL     1      -9.524  10.066  66.752  1.00  0.00    -0.159 OA 
BRANCH  14  15
HETATM   15  C   UNL     1     -10.206  10.939  65.929  1.00  0.00    -0.257 A  
HETATM   16  C   UNL     1     -10.235  10.843  64.535  1.00  0.00    -0.422 A  
HETATM   17  C   UNL     1     -11.062  11.685  63.789  1.00  0.00    -0.499 A  
HETATM   18  C   UNL     1     -11.794  12.689  64.424  1.00  0.00    -0.452 A  
HETATM   19  C   UNL     1     -11.669  12.877  65.800  1.00  0.00    -0.390 A  
HETATM   20  C   UNL     1     -10.873  12.008  66.560  1.00  0.00    -0.277 A  
HETATM   21 CL   UNL     1     -12.533  14.202  66.502  1.00  0.00    -0.417 Cl 
HETATM   22 CL   UNL     1     -10.682  12.243  68.271  1.00  0.00    -0.229 Cl 
ENDBRANCH  14  15
ENDBRANCH  11  14
ENDBRANCH   2   3
TORSDOF 3
ENDMDL
MODEL      126
REMARK 921   NORMALIZED FREE ENERGY PREDICTED BY IDOCK:   -4.28 KCAL/MOL
REMARK 922        TOTAL FREE ENERGY PREDICTED BY IDOCK:   -5.59 KCAL/MOL
REMARK 923 INTER-LIGAND FREE ENERGY PREDICTED BY IDOCK:   -5.08 KCAL/MOL
REMARK 924 INTRA-LIGAND FREE ENERGY PREDICTED BY IDOCK:   -0.52 KCAL/MOL
REMARK 927      BINDING AFFINITY PREDICTED BY RF-SCORE:    0.00 PKD
ROOT
HETATM    1  C   UNL     1      -9.570  17.643  67.468  1.00  0.00    -0.267 C  
HETATM    2  S   UNL     1     -10.857  16.867  68.467  1.00  0.00    -0.294 SA 
ENDROOT
BRANCH   2   3
HETATM    3  C   UNL     1     -10.647  15.206  68.068  1.00  0.00    -0.258 A  
HETATM    4  N   UNL     1      -9.963  14.280  68.703  1.00  0.00    -0.237 NA 
HETATM    5  C   UNL     1     -10.052  13.164  67.900  1.00  0.00    -0.232 A  
HETATM    6  H   UNL     1      -9.475  14.368  69.594  1.00  0.00     0.000 HD 
HETATM    7  C   UNL     1     -10.800  13.435  66.759  1.00  0.00    -0.282 A  
HETATM    8  C   UNL     1     -10.965  12.523  65.718  1.00  0.00    -0.327 A  
HETATM    9  N   UNL     1     -11.221  14.725  66.931  1.00  0.00    -0.340 NA 
HETATM   10  C   UNL     1     -10.305  11.288  65.836  1.00  0.00    -0.253 A  
HETATM   11  C   UNL     1      -9.657  10.923  67.026  1.00  0.00    -0.173 A  
HETATM   12 CL   UNL     1     -10.244  10.357  64.375  1.00  0.00    -0.356 Cl 
HETATM   13  C   UNL     1      -9.502  11.881  68.053  1.00  0.00    -0.197 A  
BRANCH  11  14
HETATM   14  O   UNL     1      -9.013   9.735  67.316  1.00  0.00    -0.134 OA 
BRANCH  14  15
HETATM   15  C   UNL     1      -9.663   8.618  67.799  1.00  0.00    -0.165 A  
HETATM   16  C   UNL     1     -10.280   8.548  69.051  1.00  0.00    -0.218 A  
HETATM   17  C   UNL     1     -11.033   7.427  69.404  1.00  0.00    -0.126 A  
HETATM   18  C   UNL     1     -11.098   6.330  68.544  1.00  0.00    -0.397 A  
HETATM   19  C   UNL     1     -10.377   6.337  67.350  1.00  0.00    -0.211 A  
HETATM   20  C   UNL     1      -9.654   7.477  66.971  1.00  0.00    -0.170 A  
HETATM   21 CL   UNL     1     -10.431   4.904  66.381  1.00  0.00    -0.333 Cl 
HETATM   22 CL   UNL     1      -8.728   7.496  65.502  1.00  0.00    -0.109 Cl 
ENDBRANCH  14  15
ENDBRANCH  11  14
ENDBRANCH   2   3
TORSDOF 3
ENDMDL
MODEL      127
REMARK 921   NORMALIZED FREE ENERGY PREDICTED BY IDOCK:   -4.28 KCAL/MOL
REMARK 922        TOTAL FREE ENERGY PREDICTED BY IDOCK:   -5.59 KCAL/MOL
REMARK 923 INTER-LIGAND FREE ENERGY PREDICTED BY IDOCK:   -5.35 KCAL/MOL
REMARK 924 INTRA-LIGAND FREE ENERGY PREDICTED BY IDOCK:   -0.24 KCAL/MOL
REMARK 927      BINDING AFFINITY PREDICTED BY RF-SCORE:    0.00 PKD
ROOT
HETATM    1  C   UNL     1      -7.243  19.689  68.610  1.00  0.00    -0.336 C  
HETATM    2  S   UNL     1      -8.113  20.014  67.062  1.00  0.00    -0.330 SA 
ENDROOT
BRANCH   2   3
HETATM    3  C   UNL     1      -8.780  18.467  66.712  1.00  0.00    -0.278 A  
HETATM    4  N   UNL     1      -8.266  17.275  66.915  1.00  0.00    -0.214 NA 
HETATM    5  C   UNL     1      -9.174  16.400  66.362  1.00  0.00    -0.302 A  
HETATM    6  H   UNL     1      -7.387  17.048  67.381  1.00  0.00     0.000 HD 
HETATM    7  C   UNL     1     -10.250  17.088  65.811  1.00  0.00    -0.245 A  
HETATM    8  C   UNL     1     -11.268  16.466  65.090  1.00  0.00    -0.070 A  
HETATM    9  N   UNL     1     -10.001  18.399  66.112  1.00  0.00    -0.509 NA 
HETATM   10  C   UNL     1     -11.160  15.079  64.895  1.00  0.00    -0.415 A  
HETATM   11  C   UNL     1     -10.169  14.329  65.547  1.00  0.00    -0.357 A  
HETATM   12 CL   UNL     1     -12.237  14.429  63.701  1.00  0.00    -0.087 Cl 
HETATM   13  C   UNL     1      -9.149  15.000  66.259  1.00  0.00    -0.288 A  
BRANCH  11  14
HETATM   14  O   UNL     1      -9.965  12.964  65.501  1.00  0.00    -0.271 OA 
BRANCH  14  15
HETATM   15  C   UNL     1      -9.682  12.200  66.615  1.00  0.00    -0.219 A  
HETATM   16  C   UNL     1      -8.489  11.497  66.803  1.00  0.00    -0.168 A  
HETATM   17  C   UNL     1      -8.229  10.863  68.020  1.00  0.00    -0.121 A  
HETATM   18  C   UNL     1      -9.200  10.850  69.022  1.00  0.00    -0.128 A  
HETATM   19  C   UNL     1     -10.445  11.436  68.794  1.00  0.00    -0.204 A  
HETATM   20  C   UNL     1     -10.696  12.110  67.590  1.00  0.00    -0.220 A  
HETATM   21 CL   UNL     1     -11.630  11.295  70.047  1.00  0.00    -0.397 Cl 
HETATM   22 CL   UNL     1     -12.249  12.821  67.276  1.00  0.00    -0.198 Cl 
ENDBRANCH  14  15
ENDBRANCH  11  14
ENDBRANCH   2   3
TORSDOF 3
ENDMDL
MODEL      128
REMARK 921   NORMALIZED FREE ENERGY PREDICTED BY IDOCK:   -4.27 KCAL/MOL
REMARK 922        TOTAL FREE ENERGY PREDICTED BY IDOCK:   -5.58 KCAL/MOL
REMARK 923 INTER-LIGAND FREE ENERGY PREDICTED BY IDOCK:   -5.55 KCAL/MOL
REMARK 924 INTRA-LIGAND FREE ENERGY PREDICTED BY IDOCK:   -0.04 KCAL/MOL
REMARK 927      BINDING AFFINITY PREDICTED BY RF-SCORE:    0.00 PKD
ROOT
HETATM    1  C   UNL     1      -6.877   6.888  74.123  1.00  0.00    -0.082 C  
HETATM    2  S   UNL     1      -8.512   7.627  74.316  1.00  0.00    -0.221 SA 
ENDROOT
BRANCH   2   3
HETATM    3  C   UNL     1      -8.788   8.267  72.742  1.00  0.00    -0.239 A  
HETATM    4  N   UNL     1      -7.916   8.641  71.833  1.00  0.00    -0.270 NA 
HETATM    5  C   UNL     1      -8.675   9.163  70.809  1.00  0.00    -0.236 A  
HETATM    6  H   UNL     1      -6.900   8.563  71.877  1.00  0.00     0.000 HD 
HETATM    7  C   UNL     1     -10.029   9.103  71.119  1.00  0.00    -0.307 A  
HETATM    8  C   UNL     1     -11.024   9.655  70.315  1.00  0.00    -0.337 A  
HETATM    9  N   UNL     1     -10.070   8.464  72.328  1.00  0.00    -0.292 NA 
HETATM   10  C   UNL     1     -10.609  10.332  69.155  1.00  0.00    -0.230 A  
HETATM   11  C   UNL     1      -9.270  10.297  68.735  1.00  0.00    -0.166 A  
HETATM   12 CL   UNL     1     -11.835  11.300  68.402  1.00  0.00    -0.366 Cl 
HETATM   13  C   UNL     1      -8.291   9.737  69.587  1.00  0.00    -0.180 A  
BRANCH  11  14
HETATM   14  O   UNL     1      -8.717  10.862  67.602  1.00  0.00    -0.126 OA 
BRANCH  14  15
HETATM   15  C   UNL     1      -9.300  11.906  66.913  1.00  0.00    -0.196 A  
HETATM   16  C   UNL     1      -9.340  13.225  67.373  1.00  0.00    -0.217 A  
HETATM   17  C   UNL     1      -9.826  14.243  66.551  1.00  0.00    -0.299 A  
HETATM   18  C   UNL     1     -10.361  13.936  65.299  1.00  0.00    -0.396 A  
HETATM   19  C   UNL     1     -10.446  12.606  64.886  1.00  0.00    -0.309 A  
HETATM   20  C   UNL     1      -9.921  11.584  65.690  1.00  0.00    -0.236 A  
HETATM   21 CL   UNL     1     -11.208  12.296  63.363  1.00  0.00    -0.506 Cl 
HETATM   22 CL   UNL     1     -10.043   9.920  65.205  1.00  0.00    -0.333 Cl 
ENDBRANCH  14  15
ENDBRANCH  11  14
ENDBRANCH   2   3
TORSDOF 3
ENDMDL
MODEL      129
REMARK 921   NORMALIZED FREE ENERGY PREDICTED BY IDOCK:   -4.27 KCAL/MOL
REMARK 922        TOTAL FREE ENERGY PREDICTED BY IDOCK:   -5.58 KCAL/MOL
REMARK 923 INTER-LIGAND FREE ENERGY PREDICTED BY IDOCK:   -5.21 KCAL/MOL
REMARK 924 INTRA-LIGAND FREE ENERGY PREDICTED BY IDOCK:   -0.37 KCAL/MOL
REMARK 927      BINDING AFFINITY PREDICTED BY RF-SCORE:    0.00 PKD
ROOT
HETATM    1  C   UNL     1      -7.410   8.641  62.373  1.00  0.00    -0.101 C  
HETATM    2  S   UNL     1      -8.895   9.600  62.739  1.00  0.00    -0.246 SA 
ENDROOT
BRANCH   2   3
HETATM    3  C   UNL     1      -8.923   9.544  64.460  1.00  0.00    -0.212 A  
HETATM    4  N   UNL     1      -9.955   9.552  65.273  1.00  0.00    -0.404 NA 
HETATM    5  C   UNL     1      -9.407   9.593  66.537  1.00  0.00    -0.165 A  
HETATM    6  H   UNL     1     -10.944   9.532  65.024  1.00  0.00     0.000 HD 
HETATM    7  C   UNL     1      -8.018   9.616  66.472  1.00  0.00    -0.112 A  
HETATM    8  C   UNL     1      -7.202   9.766  67.591  1.00  0.00    -0.089 A  
HETATM    9  N   UNL     1      -7.742   9.515  65.136  1.00  0.00    -0.108 NA 
HETATM   10  C   UNL     1      -7.840   9.934  68.832  1.00  0.00    -0.091 A  
HETATM   11  C   UNL     1      -9.229   9.779  68.961  1.00  0.00    -0.165 A  
HETATM   12 CL   UNL     1      -6.804  10.476  70.112  1.00  0.00    -0.160 Cl 
HETATM   13  C   UNL     1     -10.021   9.641  67.799  1.00  0.00    -0.211 A  
BRANCH  11  14
HETATM   14  O   UNL     1      -9.992   9.860  70.109  1.00  0.00    -0.249 OA 
BRANCH  14  15
HETATM   15  C   UNL     1     -10.857   8.864  70.517  1.00  0.00    -0.236 A  
HETATM   16  C   UNL     1     -10.633   7.499  70.315  1.00  0.00    -0.235 A  
HETATM   17  C   UNL     1     -11.491   6.554  70.882  1.00  0.00    -0.408 A  
HETATM   18  C   UNL     1     -12.628   6.969  71.576  1.00  0.00    -0.426 A  
HETATM   19  C   UNL     1     -12.930   8.328  71.669  1.00  0.00    -0.337 A  
HETATM   20  C   UNL     1     -12.050   9.282  71.138  1.00  0.00    -0.316 A  
HETATM   21 CL   UNL     1     -14.406   8.760  72.463  1.00  0.00    -0.451 Cl 
HETATM   22 CL   UNL     1     -12.422  10.977  71.220  1.00  0.00    -0.483 Cl 
ENDBRANCH  14  15
ENDBRANCH  11  14
ENDBRANCH   2   3
TORSDOF 3
ENDMDL
MODEL      130
REMARK 921   NORMALIZED FREE ENERGY PREDICTED BY IDOCK:   -4.26 KCAL/MOL
REMARK 922        TOTAL FREE ENERGY PREDICTED BY IDOCK:   -5.57 KCAL/MOL
REMARK 923 INTER-LIGAND FREE ENERGY PREDICTED BY IDOCK:   -5.15 KCAL/MOL
REMARK 924 INTRA-LIGAND FREE ENERGY PREDICTED BY IDOCK:   -0.42 KCAL/MOL
REMARK 927      BINDING AFFINITY PREDICTED BY RF-SCORE:    0.00 PKD
ROOT
HETATM    1  C   UNL     1      -7.027   8.157  62.839  1.00  0.00    -0.086 C  
HETATM    2  S   UNL     1      -6.269   7.800  64.438  1.00  0.00    -0.053 SA 
ENDROOT
BRANCH   2   3
HETATM    3  C   UNL     1      -7.521   8.267  65.523  1.00  0.00    -0.077 A  
HETATM    4  N   UNL     1      -8.561   9.040  65.307  1.00  0.00    -0.165 NA 
HETATM    5  C   UNL     1      -9.175   9.156  66.535  1.00  0.00    -0.175 A  
HETATM    6  H   UNL     1      -8.851   9.462  64.425  1.00  0.00     0.000 HD 
HETATM    7  C   UNL     1      -8.480   8.440  67.504  1.00  0.00    -0.129 A  
HETATM    8  C   UNL     1      -8.811   8.464  68.857  1.00  0.00    -0.143 A  
HETATM    9  N   UNL     1      -7.470   7.830  66.812  1.00  0.00    -0.088 NA 
HETATM   10  C   UNL     1      -9.883   9.287  69.241  1.00  0.00    -0.172 A  
HETATM   11  C   UNL     1     -10.695   9.915  68.284  1.00  0.00    -0.234 A  
HETATM   12 CL   UNL     1     -10.013   9.560  70.949  1.00  0.00    -0.346 Cl 
HETATM   13  C   UNL     1     -10.317   9.876  66.923  1.00  0.00    -0.300 A  
BRANCH  11  14
HETATM   14  O   UNL     1     -11.808  10.705  68.496  1.00  0.00    -0.406 OA 
BRANCH  14  15
HETATM   15  C   UNL     1     -11.736  12.028  68.882  1.00  0.00    -0.326 A  
HETATM   16  C   UNL     1     -11.132  13.035  68.123  1.00  0.00    -0.285 A  
HETATM   17  C   UNL     1     -11.227  14.370  68.524  1.00  0.00    -0.286 A  
HETATM   18  C   UNL     1     -11.845  14.696  69.731  1.00  0.00    -0.366 A  
HETATM   19  C   UNL     1     -12.334  13.685  70.558  1.00  0.00    -0.355 A  
HETATM   20  C   UNL     1     -12.279  12.347  70.142  1.00  0.00    -0.229 A  
HETATM   21 CL   UNL     1     -13.001  14.160  72.083  1.00  0.00    -0.443 Cl 
HETATM   22 CL   UNL     1     -12.857  11.071  71.170  1.00  0.00    -0.489 Cl 
ENDBRANCH  14  15
ENDBRANCH  11  14
ENDBRANCH   2   3
TORSDOF 3
ENDMDL
MODEL      131
REMARK 921   NORMALIZED FREE ENERGY PREDICTED BY IDOCK:   -4.26 KCAL/MOL
REMARK 922        TOTAL FREE ENERGY PREDICTED BY IDOCK:   -5.57 KCAL/MOL
REMARK 923 INTER-LIGAND FREE ENERGY PREDICTED BY IDOCK:   -5.36 KCAL/MOL
REMARK 924 INTRA-LIGAND FREE ENERGY PREDICTED BY IDOCK:   -0.21 KCAL/MOL
REMARK 927      BINDING AFFINITY PREDICTED BY RF-SCORE:    0.00 PKD
ROOT
HETATM    1  C   UNL     1     -10.565   3.231  63.155  1.00  0.00    -0.231 C  
HETATM    2  S   UNL     1      -9.527   2.971  64.609  1.00  0.00    -0.135 SA 
ENDROOT
BRANCH   2   3
HETATM    3  C   UNL     1      -9.730   4.461  65.446  1.00  0.00    -0.197 A  
HETATM    4  N   UNL     1      -9.200   5.636  65.190  1.00  0.00    -0.362 NA 
HETATM    5  C   UNL     1      -9.618   6.444  66.225  1.00  0.00    -0.060 A  
HETATM    6  H   UNL     1      -8.610   5.894  64.399  1.00  0.00     0.000 HD 
HETATM    7  C   UNL     1     -10.408   5.731  67.120  1.00  0.00    -0.240 A  
HETATM    8  C   UNL     1     -10.882   6.265  68.317  1.00  0.00    -0.397 A  
HETATM    9  N   UNL     1     -10.516   4.488  66.558  1.00  0.00    -0.134 NA 
HETATM   10  C   UNL     1     -10.499   7.580  68.629  1.00  0.00    -0.183 A  
HETATM   11  C   UNL     1      -9.820   8.379  67.694  1.00  0.00    -0.173 A  
HETATM   12 CL   UNL     1     -10.803   8.055  70.268  1.00  0.00    -0.241 Cl 
HETATM   13  C   UNL     1      -9.348   7.794  66.498  1.00  0.00    -0.243 A  
BRANCH  11  14
HETATM   14  O   UNL     1      -9.424   9.695  67.827  1.00  0.00    -0.128 OA 
BRANCH  14  15
HETATM   15  C   UNL     1     -10.309  10.744  67.965  1.00  0.00    -0.182 A  
HETATM   16  C   UNL     1     -10.797  11.204  69.192  1.00  0.00    -0.284 A  
HETATM   17  C   UNL     1     -11.580  12.358  69.250  1.00  0.00    -0.379 A  
HETATM   18  C   UNL     1     -11.958  13.007  68.074  1.00  0.00    -0.335 A  
HETATM   19  C   UNL     1     -11.587  12.479  66.838  1.00  0.00    -0.370 A  
HETATM   20  C   UNL     1     -10.765  11.345  66.775  1.00  0.00    -0.271 A  
HETATM   21 CL   UNL     1     -12.173  13.285  65.423  1.00  0.00    -0.467 Cl 
HETATM   22 CL   UNL     1     -10.314  10.657  65.245  1.00  0.00    -0.347 Cl 
ENDBRANCH  14  15
ENDBRANCH  11  14
ENDBRANCH   2   3
TORSDOF 3
ENDMDL
MODEL      132
REMARK 921   NORMALIZED FREE ENERGY PREDICTED BY IDOCK:   -4.26 KCAL/MOL
REMARK 922        TOTAL FREE ENERGY PREDICTED BY IDOCK:   -5.57 KCAL/MOL
REMARK 923 INTER-LIGAND FREE ENERGY PREDICTED BY IDOCK:   -5.27 KCAL/MOL
REMARK 924 INTRA-LIGAND FREE ENERGY PREDICTED BY IDOCK:   -0.30 KCAL/MOL
REMARK 927      BINDING AFFINITY PREDICTED BY RF-SCORE:    0.00 PKD
ROOT
HETATM    1  C   UNL     1      -6.582   8.664  62.355  1.00  0.00    -0.095 C  
HETATM    2  S   UNL     1      -7.247  10.314  62.659  1.00  0.00    -0.134 SA 
ENDROOT
BRANCH   2   3
HETATM    3  C   UNL     1      -7.979  10.110  64.204  1.00  0.00    -0.154 A  
HETATM    4  N   UNL     1      -7.882  10.865  65.275  1.00  0.00    -0.359 NA 
HETATM    5  C   UNL     1      -8.585  10.189  66.248  1.00  0.00    -0.131 A  
HETATM    6  H   UNL     1      -7.393  11.756  65.366  1.00  0.00     0.000 HD 
HETATM    7  C   UNL     1      -9.106   9.002  65.745  1.00  0.00    -0.219 A  
HETATM    8  C   UNL     1      -9.772   8.065  66.532  1.00  0.00    -0.297 A  
HETATM    9  N   UNL     1      -8.759   9.016  64.422  1.00  0.00    -0.162 NA 
HETATM   10  C   UNL     1      -9.878   8.340  67.906  1.00  0.00    -0.169 A  
HETATM   11  C   UNL     1      -9.490   9.583  68.429  1.00  0.00    -0.137 A  
HETATM   12 CL   UNL     1     -10.378   6.994  68.879  1.00  0.00    -0.186 Cl 
HETATM   13  C   UNL     1      -8.808  10.501  67.599  1.00  0.00    -0.131 A  
BRANCH  11  14
HETATM   14  O   UNL     1      -9.578  10.024  69.735  1.00  0.00    -0.222 OA 
BRANCH  14  15
HETATM   15  C   UNL     1     -10.583   9.640  70.599  1.00  0.00    -0.319 A  
HETATM   16  C   UNL     1     -11.889  10.137  70.555  1.00  0.00    -0.408 A  
HETATM   17  C   UNL     1     -12.878   9.592  71.377  1.00  0.00    -0.471 A  
HETATM   18  C   UNL     1     -12.547   8.612  72.313  1.00  0.00    -0.457 A  
HETATM   19  C   UNL     1     -11.221   8.204  72.455  1.00  0.00    -0.391 A  
HETATM   20  C   UNL     1     -10.231   8.717  71.604  1.00  0.00    -0.324 A  
HETATM   21 CL   UNL     1     -10.873   7.055  73.702  1.00  0.00    -0.309 Cl 
HETATM   22 CL   UNL     1      -8.570   8.243  71.784  1.00  0.00    -0.190 Cl 
ENDBRANCH  14  15
ENDBRANCH  11  14
ENDBRANCH   2   3
TORSDOF 3
ENDMDL
MODEL      133
REMARK 921   NORMALIZED FREE ENERGY PREDICTED BY IDOCK:   -4.24 KCAL/MOL
REMARK 922        TOTAL FREE ENERGY PREDICTED BY IDOCK:   -5.55 KCAL/MOL
REMARK 923 INTER-LIGAND FREE ENERGY PREDICTED BY IDOCK:   -5.11 KCAL/MOL
REMARK 924 INTRA-LIGAND FREE ENERGY PREDICTED BY IDOCK:   -0.44 KCAL/MOL
REMARK 927      BINDING AFFINITY PREDICTED BY RF-SCORE:    0.00 PKD
ROOT
HETATM    1  C   UNL     1     -12.353  14.296  65.593  1.00  0.00    -0.405 C  
HETATM    2  S   UNL     1     -11.661  14.541  67.241  1.00  0.00    -0.391 SA 
ENDROOT
BRANCH   2   3
HETATM    3  C   UNL     1     -11.131  12.951  67.632  1.00  0.00    -0.264 A  
HETATM    4  N   UNL     1     -10.603  12.503  68.749  1.00  0.00    -0.333 NA 
HETATM    5  C   UNL     1     -10.278  11.190  68.483  1.00  0.00    -0.198 A  
HETATM    6  H   UNL     1     -10.463  13.014  69.620  1.00  0.00     0.000 HD 
HETATM    7  C   UNL     1     -10.616  10.853  67.177  1.00  0.00    -0.255 A  
HETATM    8  C   UNL     1     -10.306   9.623  66.600  1.00  0.00    -0.279 A  
HETATM    9  N   UNL     1     -11.220  11.977  66.685  1.00  0.00    -0.310 NA 
HETATM   10  C   UNL     1      -9.585   8.709  67.386  1.00  0.00    -0.159 A  
HETATM   11  C   UNL     1      -9.346   8.954  68.747  1.00  0.00    -0.137 A  
HETATM   12 CL   UNL     1      -8.917   7.369  66.511  1.00  0.00    -0.170 Cl 
HETATM   13  C   UNL     1      -9.665  10.219  69.290  1.00  0.00    -0.240 A  
BRANCH  11  14
HETATM   14  O   UNL     1      -8.704   8.139  69.660  1.00  0.00    -0.139 OA 
BRANCH  14  15
HETATM   15  C   UNL     1      -9.263   6.985  70.171  1.00  0.00    -0.152 A  
HETATM   16  C   UNL     1      -9.463   5.816  69.432  1.00  0.00    -0.162 A  
HETATM   17  C   UNL     1      -9.906   4.652  70.063  1.00  0.00    -0.294 A  
HETATM   18  C   UNL     1     -10.240   4.674  71.418  1.00  0.00    -0.212 A  
HETATM   19  C   UNL     1     -10.169   5.870  72.132  1.00  0.00    -0.195 A  
HETATM   20  C   UNL     1      -9.684   7.032  71.514  1.00  0.00    -0.165 A  
HETATM   21 CL   UNL     1     -10.689   5.840  73.783  1.00  0.00    -0.284 Cl 
HETATM   22 CL   UNL     1      -9.615   8.536  72.380  1.00  0.00    -0.365 Cl 
ENDBRANCH  14  15
ENDBRANCH  11  14
ENDBRANCH   2   3
TORSDOF 3
ENDMDL
MODEL      134
REMARK 921   NORMALIZED FREE ENERGY PREDICTED BY IDOCK:   -4.22 KCAL/MOL
REMARK 922        TOTAL FREE ENERGY PREDICTED BY IDOCK:   -5.52 KCAL/MOL
REMARK 923 INTER-LIGAND FREE ENERGY PREDICTED BY IDOCK:   -5.05 KCAL/MOL
REMARK 924 INTRA-LIGAND FREE ENERGY PREDICTED BY IDOCK:   -0.47 KCAL/MOL
REMARK 927      BINDING AFFINITY PREDICTED BY RF-SCORE:    0.00 PKD
ROOT
HETATM    1  C   UNL     1      -9.928  20.003  69.394  1.00  0.00    -0.040 C  
HETATM    2  S   UNL     1     -10.073  20.039  67.596  1.00  0.00    -0.413 SA 
ENDROOT
BRANCH   2   3
HETATM    3  C   UNL     1     -10.045  18.361  67.215  1.00  0.00    -0.352 A  
HETATM    4  N   UNL     1     -11.049  17.547  66.976  1.00  0.00     0.105 NA 
HETATM    5  C   UNL     1     -10.469  16.306  66.827  1.00  0.00    -0.287 A  
HETATM    6  H   UNL     1     -12.040  17.783  66.914  1.00  0.00     0.000 HD 
HETATM    7  C   UNL     1      -9.090  16.384  66.988  1.00  0.00    -0.214 A  
HETATM    8  C   UNL     1      -8.257  15.267  66.997  1.00  0.00    -0.267 A  
HETATM    9  N   UNL     1      -8.846  17.718  67.166  1.00  0.00    -0.241 NA 
HETATM   10  C   UNL     1      -8.869  14.008  66.871  1.00  0.00    -0.194 A  
HETATM   11  C   UNL     1     -10.235  13.894  66.569  1.00  0.00    -0.280 A  
HETATM   12 CL   UNL     1      -7.846  12.662  67.253  1.00  0.00    -0.172 Cl 
HETATM   13  C   UNL     1     -11.047  15.051  66.581  1.00  0.00    -0.326 A  
BRANCH  11  14
HETATM   14  O   UNL     1     -10.969  12.741  66.363  1.00  0.00    -0.267 OA 
BRANCH  14  15
HETATM   15  C   UNL     1     -10.924  11.652  67.208  1.00  0.00    -0.267 A  
HETATM   16  C   UNL     1     -11.156  11.717  68.585  1.00  0.00    -0.287 A  
HETATM   17  C   UNL     1     -11.227  10.546  69.343  1.00  0.00    -0.327 A  
HETATM   18  C   UNL     1     -10.976   9.310  68.746  1.00  0.00    -0.047 A  
HETATM   19  C   UNL     1     -10.614   9.248  67.401  1.00  0.00    -0.255 A  
HETATM   20  C   UNL     1     -10.582  10.416  66.625  1.00  0.00    -0.178 A  
HETATM   21 CL   UNL     1     -10.224   7.690  66.755  1.00  0.00    -0.346 Cl 
HETATM   22 CL   UNL     1     -10.106  10.362  64.955  1.00  0.00    -0.392 Cl 
ENDBRANCH  14  15
ENDBRANCH  11  14
ENDBRANCH   2   3
TORSDOF 3
ENDMDL
MODEL      135
REMARK 921   NORMALIZED FREE ENERGY PREDICTED BY IDOCK:   -4.21 KCAL/MOL
REMARK 922        TOTAL FREE ENERGY PREDICTED BY IDOCK:   -5.52 KCAL/MOL
REMARK 923 INTER-LIGAND FREE ENERGY PREDICTED BY IDOCK:   -5.27 KCAL/MOL
REMARK 924 INTRA-LIGAND FREE ENERGY PREDICTED BY IDOCK:   -0.25 KCAL/MOL
REMARK 927      BINDING AFFINITY PREDICTED BY RF-SCORE:    0.00 PKD
ROOT
HETATM    1  C   UNL     1      -5.583   9.577  63.954  1.00  0.00    -0.073 C  
HETATM    2  S   UNL     1      -6.532   8.067  64.233  1.00  0.00    -0.061 SA 
ENDROOT
BRANCH   2   3
HETATM    3  C   UNL     1      -7.823   8.649  65.211  1.00  0.00    -0.107 A  
HETATM    4  N   UNL     1      -8.729   9.560  64.935  1.00  0.00    -0.177 NA 
HETATM    5  C   UNL     1      -9.451   9.703  66.099  1.00  0.00    -0.217 A  
HETATM    6  H   UNL     1      -8.867  10.053  64.052  1.00  0.00     0.000 HD 
HETATM    7  C   UNL     1      -8.958   8.863  67.092  1.00  0.00    -0.127 A  
HETATM    8  C   UNL     1      -9.426   8.873  68.405  1.00  0.00    -0.147 A  
HETATM    9  N   UNL     1      -7.965   8.156  66.472  1.00  0.00    -0.100 NA 
HETATM   10  C   UNL     1     -10.421   9.813  68.724  1.00  0.00    -0.218 A  
HETATM   11  C   UNL     1     -11.041  10.581  67.726  1.00  0.00    -0.317 A  
HETATM   12 CL   UNL     1     -10.697  10.029  70.422  1.00  0.00    -0.362 Cl 
HETATM   13  C   UNL     1     -10.528  10.550  66.409  1.00  0.00    -0.258 A  
BRANCH  11  14
HETATM   14  O   UNL     1     -12.061  11.501  67.869  1.00  0.00    -0.630 OA 
BRANCH  14  15
HETATM   15  C   UNL     1     -11.895  12.732  68.469  1.00  0.00    -0.306 A  
HETATM   16  C   UNL     1     -12.032  12.961  69.841  1.00  0.00    -0.377 A  
HETATM   17  C   UNL     1     -11.710  14.208  70.382  1.00  0.00    -0.312 A  
HETATM   18  C   UNL     1     -11.339  15.259  69.543  1.00  0.00    -0.299 A  
HETATM   19  C   UNL     1     -11.327  15.076  68.160  1.00  0.00    -0.330 A  
HETATM   20  C   UNL     1     -11.608  13.815  67.615  1.00  0.00    -0.347 A  
HETATM   21 CL   UNL     1     -10.948  16.452  67.181  1.00  0.00    -0.161 Cl 
HETATM   22 CL   UNL     1     -11.626  13.574  65.894  1.00  0.00    -0.341 Cl 
ENDBRANCH  14  15
ENDBRANCH  11  14
ENDBRANCH   2   3
TORSDOF 3
ENDMDL
MODEL      136
REMARK 921   NORMALIZED FREE ENERGY PREDICTED BY IDOCK:   -4.21 KCAL/MOL
REMARK 922        TOTAL FREE ENERGY PREDICTED BY IDOCK:   -5.51 KCAL/MOL
REMARK 923 INTER-LIGAND FREE ENERGY PREDICTED BY IDOCK:   -5.46 KCAL/MOL
REMARK 924 INTRA-LIGAND FREE ENERGY PREDICTED BY IDOCK:   -0.05 KCAL/MOL
REMARK 927      BINDING AFFINITY PREDICTED BY RF-SCORE:    0.00 PKD
ROOT
HETATM    1  C   UNL     1      -6.558   6.961  64.599  1.00  0.00    -0.042 C  
HETATM    2  S   UNL     1      -7.601   7.862  63.434  1.00  0.00    -0.136 SA 
ENDROOT
BRANCH   2   3
HETATM    3  C   UNL     1      -8.295   9.063  64.453  1.00  0.00    -0.176 A  
HETATM    4  N   UNL     1      -9.523   9.530  64.468  1.00  0.00    -0.431 NA 
HETATM    5  C   UNL     1      -9.506  10.537  65.408  1.00  0.00    -0.223 A  
HETATM    6  H   UNL     1     -10.315   9.216  63.907  1.00  0.00     0.000 HD 
HETATM    7  C   UNL     1      -8.236  10.676  65.959  1.00  0.00    -0.158 A  
HETATM    8  C   UNL     1      -7.899  11.686  66.857  1.00  0.00    -0.156 A  
HETATM    9  N   UNL     1      -7.506   9.676  65.378  1.00  0.00    -0.106 NA 
HETATM   10  C   UNL     1      -8.899  12.619  67.180  1.00  0.00    -0.204 A  
HETATM   11  C   UNL     1     -10.224  12.436  66.757  1.00  0.00    -0.219 A  
HETATM   12 CL   UNL     1      -8.330  14.039  67.996  1.00  0.00    -0.151 Cl 
HETATM   13  C   UNL     1     -10.522  11.406  65.836  1.00  0.00    -0.309 A  
BRANCH  11  14
HETATM   14  O   UNL     1     -11.323  13.227  67.031  1.00  0.00    -0.289 OA 
BRANCH  14  15
HETATM   15  C   UNL     1     -11.576  13.770  68.275  1.00  0.00    -0.338 A  
HETATM   16  C   UNL     1     -11.395  15.118  68.594  1.00  0.00    -0.322 A  
HETATM   17  C   UNL     1     -11.806  15.609  69.835  1.00  0.00    -0.374 A  
HETATM   18  C   UNL     1     -12.316  14.738  70.798  1.00  0.00    -0.397 A  
HETATM   19  C   UNL     1     -12.377  13.369  70.535  1.00  0.00    -0.329 A  
HETATM   20  C   UNL     1     -12.005  12.876  69.276  1.00  0.00    -0.260 A  
HETATM   21 CL   UNL     1     -12.931  12.340  71.812  1.00  0.00    -0.477 Cl 
HETATM   22 CL   UNL     1     -12.048  11.173  68.939  1.00  0.00    -0.363 Cl 
ENDBRANCH  14  15
ENDBRANCH  11  14
ENDBRANCH   2   3
TORSDOF 3
ENDMDL
MODEL      137
REMARK 921   NORMALIZED FREE ENERGY PREDICTED BY IDOCK:   -4.20 KCAL/MOL
REMARK 922        TOTAL FREE ENERGY PREDICTED BY IDOCK:   -5.50 KCAL/MOL
REMARK 923 INTER-LIGAND FREE ENERGY PREDICTED BY IDOCK:   -4.90 KCAL/MOL
REMARK 924 INTRA-LIGAND FREE ENERGY PREDICTED BY IDOCK:   -0.60 KCAL/MOL
REMARK 927      BINDING AFFINITY PREDICTED BY RF-SCORE:    0.00 PKD
ROOT
HETATM    1  C   UNL     1     -12.042  14.509  64.311  1.00  0.00    -0.425 C  
HETATM    2  S   UNL     1     -11.951  12.875  63.550  1.00  0.00    -0.527 SA 
ENDROOT
BRANCH   2   3
HETATM    3  C   UNL     1     -11.296  11.934  64.834  1.00  0.00    -0.277 A  
HETATM    4  N   UNL     1     -10.453  10.928  64.778  1.00  0.00    -0.325 NA 
HETATM    5  C   UNL     1     -10.345  10.486  66.079  1.00  0.00    -0.211 A  
HETATM    6  H   UNL     1      -9.981  10.556  63.954  1.00  0.00     0.000 HD 
HETATM    7  C   UNL     1     -11.148  11.244  66.925  1.00  0.00    -0.275 A  
HETATM    8  C   UNL     1     -11.321  10.955  68.277  1.00  0.00    -0.374 A  
HETATM    9  N   UNL     1     -11.688  12.201  66.110  1.00  0.00    -0.522 NA 
HETATM   10  C   UNL     1     -10.668   9.817  68.779  1.00  0.00    -0.215 A  
HETATM   11  C   UNL     1      -9.742   9.108  67.997  1.00  0.00    -0.154 A  
HETATM   12 CL   UNL     1     -11.203   9.305  70.346  1.00  0.00    -0.282 Cl 
HETATM   13  C   UNL     1      -9.606   9.426  66.627  1.00  0.00    -0.250 A  
BRANCH  11  14
HETATM   14  O   UNL     1      -8.985   8.010  68.358  1.00  0.00    -0.134 OA 
BRANCH  14  15
HETATM   15  C   UNL     1      -9.150   6.758  67.802  1.00  0.00    -0.117 A  
HETATM   16  C   UNL     1     -10.320   6.001  67.906  1.00  0.00    -0.255 A  
HETATM   17  C   UNL     1     -10.450   4.805  67.196  1.00  0.00    -0.066 A  
HETATM   18  C   UNL     1      -9.377   4.314  66.452  1.00  0.00    -0.170 A  
HETATM   19  C   UNL     1      -8.161   4.996  66.450  1.00  0.00    -0.108 A  
HETATM   20  C   UNL     1      -8.038   6.219  67.126  1.00  0.00    -0.109 A  
HETATM   21 CL   UNL     1      -6.848   4.275  65.582  1.00  0.00    -0.056 Cl 
HETATM   22 CL   UNL     1      -6.524   7.069  67.157  1.00  0.00    -0.051 Cl 
ENDBRANCH  14  15
ENDBRANCH  11  14
ENDBRANCH   2   3
TORSDOF 3
ENDMDL
MODEL      138
REMARK 921   NORMALIZED FREE ENERGY PREDICTED BY IDOCK:   -4.20 KCAL/MOL
REMARK 922        TOTAL FREE ENERGY PREDICTED BY IDOCK:   -5.50 KCAL/MOL
REMARK 923 INTER-LIGAND FREE ENERGY PREDICTED BY IDOCK:   -5.01 KCAL/MOL
REMARK 924 INTRA-LIGAND FREE ENERGY PREDICTED BY IDOCK:   -0.49 KCAL/MOL
REMARK 927      BINDING AFFINITY PREDICTED BY RF-SCORE:    0.00 PKD
ROOT
HETATM    1  C   UNL     1     -12.412  13.737  66.186  1.00  0.00    -0.418 C  
HETATM    2  S   UNL     1     -12.012  14.006  67.925  1.00  0.00    -0.296 SA 
ENDROOT
BRANCH   2   3
HETATM    3  C   UNL     1     -11.426  12.455  68.387  1.00  0.00    -0.310 A  
HETATM    4  N   UNL     1     -10.894  12.073  69.526  1.00  0.00    -0.452 NA 
HETATM    5  C   UNL     1     -10.515  10.765  69.318  1.00  0.00    -0.217 A  
HETATM    6  H   UNL     1     -10.787  12.624  70.378  1.00  0.00     0.000 HD 
HETATM    7  C   UNL     1     -10.823  10.363  68.023  1.00  0.00    -0.270 A  
HETATM    8  C   UNL     1     -10.457   9.124  67.499  1.00  0.00    -0.335 A  
HETATM    9  N   UNL     1     -11.464  11.441  67.478  1.00  0.00    -0.477 NA 
HETATM   10  C   UNL     1      -9.710   8.271  68.330  1.00  0.00    -0.158 A  
HETATM   11  C   UNL     1      -9.499   8.580  69.683  1.00  0.00    -0.165 A  
HETATM   12 CL   UNL     1      -8.979   6.925  67.518  1.00  0.00    -0.117 Cl 
HETATM   13  C   UNL     1      -9.875   9.851  70.171  1.00  0.00    -0.272 A  
BRANCH  11  14
HETATM   14  O   UNL     1      -8.838   7.828  70.635  1.00  0.00    -0.141 OA 
BRANCH  14  15
HETATM   15  C   UNL     1      -9.426   6.784  71.320  1.00  0.00    -0.165 A  
HETATM   16  C   UNL     1     -10.722   6.818  71.841  1.00  0.00    -0.250 A  
HETATM   17  C   UNL     1     -11.287   5.670  72.399  1.00  0.00    -0.327 A  
HETATM   18  C   UNL     1     -10.528   4.506  72.523  1.00  0.00    -0.251 A  
HETATM   19  C   UNL     1      -9.190   4.502  72.127  1.00  0.00    -0.130 A  
HETATM   20  C   UNL     1      -8.630   5.640  71.528  1.00  0.00    -0.132 A  
HETATM   21 CL   UNL     1      -8.286   3.052  72.400  1.00  0.00    -0.066 Cl 
HETATM   22 CL   UNL     1      -6.959   5.664  71.053  1.00  0.00    -0.063 Cl 
ENDBRANCH  14  15
ENDBRANCH  11  14
ENDBRANCH   2   3
TORSDOF 3
ENDMDL
MODEL      139
REMARK 921   NORMALIZED FREE ENERGY PREDICTED BY IDOCK:   -4.20 KCAL/MOL
REMARK 922        TOTAL FREE ENERGY PREDICTED BY IDOCK:   -5.50 KCAL/MOL
REMARK 923 INTER-LIGAND FREE ENERGY PREDICTED BY IDOCK:   -4.91 KCAL/MOL
REMARK 924 INTRA-LIGAND FREE ENERGY PREDICTED BY IDOCK:   -0.58 KCAL/MOL
REMARK 927      BINDING AFFINITY PREDICTED BY RF-SCORE:    0.00 PKD
ROOT
HETATM    1  C   UNL     1      -9.519  19.691  68.472  1.00  0.00    -0.358 C  
HETATM    2  S   UNL     1     -10.719  19.061  67.281  1.00  0.00    -0.413 SA 
ENDROOT
BRANCH   2   3
HETATM    3  C   UNL     1     -10.486  17.362  67.423  1.00  0.00    -0.336 A  
HETATM    4  N   UNL     1      -9.721  16.566  66.710  1.00  0.00    -0.247 NA 
HETATM    5  C   UNL     1      -9.989  15.301  67.185  1.00  0.00    -0.233 A  
HETATM    6  H   UNL     1      -9.072  16.827  65.968  1.00  0.00     0.000 HD 
HETATM    7  C   UNL     1     -10.939  15.346  68.199  1.00  0.00    -0.297 A  
HETATM    8  C   UNL     1     -11.481  14.206  68.791  1.00  0.00    -0.333 A  
HETATM    9  N   UNL     1     -11.184  16.680  68.373  1.00  0.00    -0.316 NA 
HETATM   10  C   UNL     1     -11.055  12.962  68.297  1.00  0.00    -0.264 A  
HETATM   11  C   UNL     1     -10.001  12.871  67.374  1.00  0.00    -0.217 A  
HETATM   12 CL   UNL     1     -12.016  11.612  68.805  1.00  0.00    -0.368 Cl 
HETATM   13  C   UNL     1      -9.488  14.050  66.789  1.00  0.00    -0.292 A  
BRANCH  11  14
HETATM   14  O   UNL     1      -9.435  11.731  66.837  1.00  0.00    -0.185 OA 
BRANCH  14  15
HETATM   15  C   UNL     1      -8.696  10.830  67.575  1.00  0.00    -0.125 A  
HETATM   16  C   UNL     1      -7.572  11.171  68.334  1.00  0.00    -0.110 A  
HETATM   17  C   UNL     1      -6.967  10.223  69.160  1.00  0.00    -0.066 A  
HETATM   18  C   UNL     1      -7.423   8.904  69.163  1.00  0.00    -0.073 A  
HETATM   19  C   UNL     1      -8.459   8.524  68.310  1.00  0.00    -0.135 A  
HETATM   20  C   UNL     1      -9.098   9.481  67.509  1.00  0.00    -0.130 A  
HETATM   21 CL   UNL     1      -8.906   6.852  68.301  1.00  0.00    -0.123 Cl 
HETATM   22 CL   UNL     1     -10.372   9.022  66.421  1.00  0.00    -0.293 Cl 
ENDBRANCH  14  15
ENDBRANCH  11  14
ENDBRANCH   2   3
TORSDOF 3
ENDMDL
MODEL      140
REMARK 921   NORMALIZED FREE ENERGY PREDICTED BY IDOCK:   -4.19 KCAL/MOL
REMARK 922        TOTAL FREE ENERGY PREDICTED BY IDOCK:   -5.48 KCAL/MOL
REMARK 923 INTER-LIGAND FREE ENERGY PREDICTED BY IDOCK:   -5.28 KCAL/MOL
REMARK 924 INTRA-LIGAND FREE ENERGY PREDICTED BY IDOCK:   -0.21 KCAL/MOL
REMARK 927      BINDING AFFINITY PREDICTED BY RF-SCORE:    0.00 PKD
ROOT
HETATM    1  C   UNL     1     -12.768   9.036  71.966  1.00  0.00    -0.398 C  
HETATM    2  S   UNL     1     -11.005   8.785  71.673  1.00  0.00    -0.347 SA 
ENDROOT
BRANCH   2   3
HETATM    3  C   UNL     1     -10.718   9.865  70.363  1.00  0.00    -0.318 A  
HETATM    4  N   UNL     1      -9.575  10.276  69.861  1.00  0.00    -0.405 NA 
HETATM    5  C   UNL     1      -9.924  11.199  68.899  1.00  0.00    -0.175 A  
HETATM    6  H   UNL     1      -8.636   9.978  70.125  1.00  0.00     0.000 HD 
HETATM    7  C   UNL     1     -11.306  11.344  68.834  1.00  0.00    -0.270 A  
HETATM    8  C   UNL     1     -11.939  12.287  68.026  1.00  0.00    -0.251 A  
HETATM    9  N   UNL     1     -11.784  10.429  69.731  1.00  0.00    -0.252 NA 
HETATM   10  C   UNL     1     -11.116  13.145  67.277  1.00  0.00    -0.279 A  
HETATM   11  C   UNL     1      -9.729  12.944  67.208  1.00  0.00    -0.220 A  
HETATM   12 CL   UNL     1     -11.930  14.513  66.590  1.00  0.00    -0.393 Cl 
HETATM   13  C   UNL     1      -9.126  11.984  68.053  1.00  0.00    -0.188 A  
BRANCH  11  14
HETATM   14  O   UNL     1      -8.798  13.661  66.482  1.00  0.00    -0.127 OA 
BRANCH  14  15
HETATM   15  C   UNL     1      -8.508  14.989  66.721  1.00  0.00    -0.204 A  
HETATM   16  C   UNL     1      -9.250  16.058  66.211  1.00  0.00    -0.368 A  
HETATM   17  C   UNL     1      -8.970  17.365  66.615  1.00  0.00    -0.274 A  
HETATM   18  C   UNL     1      -7.888  17.619  67.459  1.00  0.00    -0.211 A  
HETATM   19  C   UNL     1      -7.062  16.572  67.867  1.00  0.00    -0.137 A  
HETATM   20  C   UNL     1      -7.364  15.253  67.499  1.00  0.00    -0.196 A  
HETATM   21 CL   UNL     1      -5.686  16.978  68.834  1.00  0.00    -0.140 Cl 
HETATM   22 CL   UNL     1      -6.331  13.939  67.974  1.00  0.00    -0.126 Cl 
ENDBRANCH  14  15
ENDBRANCH  11  14
ENDBRANCH   2   3
TORSDOF 3
ENDMDL
MODEL      141
REMARK 921   NORMALIZED FREE ENERGY PREDICTED BY IDOCK:   -4.19 KCAL/MOL
REMARK 922        TOTAL FREE ENERGY PREDICTED BY IDOCK:   -5.48 KCAL/MOL
REMARK 923 INTER-LIGAND FREE ENERGY PREDICTED BY IDOCK:   -5.03 KCAL/MOL
REMARK 924 INTRA-LIGAND FREE ENERGY PREDICTED BY IDOCK:   -0.45 KCAL/MOL
REMARK 927      BINDING AFFINITY PREDICTED BY RF-SCORE:    0.00 PKD
ROOT
HETATM    1  C   UNL     1     -10.116  19.294  68.219  1.00  0.00    -0.425 C  
HETATM    2  S   UNL     1     -10.530  18.840  66.522  1.00  0.00    -0.404 SA 
ENDROOT
BRANCH   2   3
HETATM    3  C   UNL     1     -10.274  17.138  66.549  1.00  0.00    -0.322 A  
HETATM    4  N   UNL     1      -9.583  16.416  67.402  1.00  0.00    -0.229 NA 
HETATM    5  C   UNL     1      -9.631  15.134  66.899  1.00  0.00    -0.239 A  
HETATM    6  H   UNL     1      -9.114  16.734  68.251  1.00  0.00     0.000 HD 
HETATM    7  C   UNL     1     -10.362  15.096  65.717  1.00  0.00    -0.339 A  
HETATM    8  C   UNL     1     -10.486  13.951  64.931  1.00  0.00    -0.446 A  
HETATM    9  N   UNL     1     -10.815  16.376  65.559  1.00  0.00    -0.271 NA 
HETATM   10  C   UNL     1      -9.800  12.802  65.359  1.00  0.00    -0.128 A  
HETATM   11  C   UNL     1      -9.168  12.758  66.611  1.00  0.00    -0.212 A  
HETATM   12 CL   UNL     1      -9.689  11.540  64.174  1.00  0.00    -0.252 Cl 
HETATM   13  C   UNL     1      -9.054  13.944  67.371  1.00  0.00    -0.217 A  
BRANCH  11  14
HETATM   14  O   UNL     1      -8.504  11.696  67.194  1.00  0.00    -0.149 OA 
BRANCH  14  15
HETATM   15  C   UNL     1      -8.933  10.388  67.100  1.00  0.00    -0.139 A  
HETATM   16  C   UNL     1     -10.161   9.929  67.583  1.00  0.00    -0.255 A  
HETATM   17  C   UNL     1     -10.575   8.621  67.323  1.00  0.00    -0.308 A  
HETATM   18  C   UNL     1      -9.724   7.737  66.658  1.00  0.00    -0.292 A  
HETATM   19  C   UNL     1      -8.443   8.149  66.289  1.00  0.00    -0.131 A  
HETATM   20  C   UNL     1      -8.039   9.473  66.510  1.00  0.00    -0.112 A  
HETATM   21 CL   UNL     1      -7.411   6.970  65.555  1.00  0.00    -0.082 Cl 
HETATM   22 CL   UNL     1      -6.438   9.997  66.083  1.00  0.00    -0.081 Cl 
ENDBRANCH  14  15
ENDBRANCH  11  14
ENDBRANCH   2   3
TORSDOF 3
ENDMDL
MODEL      142
REMARK 921   NORMALIZED FREE ENERGY PREDICTED BY IDOCK:   -4.17 KCAL/MOL
REMARK 922        TOTAL FREE ENERGY PREDICTED BY IDOCK:   -5.47 KCAL/MOL
REMARK 923 INTER-LIGAND FREE ENERGY PREDICTED BY IDOCK:   -5.11 KCAL/MOL
REMARK 924 INTRA-LIGAND FREE ENERGY PREDICTED BY IDOCK:   -0.36 KCAL/MOL
REMARK 927      BINDING AFFINITY PREDICTED BY RF-SCORE:    0.00 PKD
ROOT
HETATM    1  C   UNL     1      -7.633   9.962  64.747  1.00  0.00    -0.139 C  
HETATM    2  S   UNL     1      -9.433  10.088  64.786  1.00  0.00    -0.303 SA 
ENDROOT
BRANCH   2   3
HETATM    3  C   UNL     1      -9.797   9.350  66.297  1.00  0.00    -0.281 A  
HETATM    4  N   UNL     1     -10.039   8.087  66.567  1.00  0.00    -0.441 NA 
HETATM    5  C   UNL     1     -10.364   8.069  67.906  1.00  0.00    -0.222 A  
HETATM    6  H   UNL     1      -9.995   7.294  65.927  1.00  0.00     0.000 HD 
HETATM    7  C   UNL     1     -10.321   9.351  68.441  1.00  0.00    -0.205 A  
HETATM    8  C   UNL     1     -10.707   9.649  69.747  1.00  0.00    -0.269 A  
HETATM    9  N   UNL     1      -9.889  10.134  67.406  1.00  0.00    -0.180 NA 
HETATM   10  C   UNL     1     -11.194   8.588  70.530  1.00  0.00    -0.242 A  
HETATM   11  C   UNL     1     -11.125   7.261  70.076  1.00  0.00    -0.240 A  
HETATM   12 CL   UNL     1     -11.992   9.071  71.991  1.00  0.00    -0.438 Cl 
HETATM   13  C   UNL     1     -10.739   7.004  68.742  1.00  0.00    -0.226 A  
BRANCH  11  14
HETATM   14  O   UNL     1     -11.509   6.113  70.741  1.00  0.00    -0.324 OA 
BRANCH  14  15
HETATM   15  C   UNL     1     -10.833   5.605  71.831  1.00  0.00    -0.242 A  
HETATM   16  C   UNL     1     -10.907   6.141  73.120  1.00  0.00    -0.279 A  
HETATM   17  C   UNL     1     -10.301   5.482  74.192  1.00  0.00    -0.302 A  
HETATM   18  C   UNL     1      -9.540   4.335  73.968  1.00  0.00    -0.130 A  
HETATM   19  C   UNL     1      -9.351   3.868  72.667  1.00  0.00    -0.117 A  
HETATM   20  C   UNL     1      -9.992   4.500  71.592  1.00  0.00    -0.196 A  
HETATM   21 CL   UNL     1      -8.316   2.496  72.458  1.00  0.00    -0.062 Cl 
HETATM   22 CL   UNL     1      -9.747   3.950  69.962  1.00  0.00    -0.271 Cl 
ENDBRANCH  14  15
ENDBRANCH  11  14
ENDBRANCH   2   3
TORSDOF 3
ENDMDL
MODEL      143
REMARK 921   NORMALIZED FREE ENERGY PREDICTED BY IDOCK:   -4.15 KCAL/MOL
REMARK 922        TOTAL FREE ENERGY PREDICTED BY IDOCK:   -5.44 KCAL/MOL
REMARK 923 INTER-LIGAND FREE ENERGY PREDICTED BY IDOCK:   -4.96 KCAL/MOL
REMARK 924 INTRA-LIGAND FREE ENERGY PREDICTED BY IDOCK:   -0.48 KCAL/MOL
REMARK 927      BINDING AFFINITY PREDICTED BY RF-SCORE:    0.00 PKD
ROOT
HETATM    1  C   UNL     1      -7.673  15.687  67.977  1.00  0.00    -0.126 C  
HETATM    2  S   UNL     1      -9.000  15.170  66.868  1.00  0.00    -0.269 SA 
ENDROOT
BRANCH   2   3
HETATM    3  C   UNL     1      -9.273  13.552  67.390  1.00  0.00    -0.223 A  
HETATM    4  N   UNL     1      -8.826  12.940  68.463  1.00  0.00    -0.362 NA 
HETATM    5  C   UNL     1      -9.266  11.640  68.336  1.00  0.00    -0.182 A  
HETATM    6  H   UNL     1      -8.274  13.338  69.223  1.00  0.00     0.000 HD 
HETATM    7  C   UNL     1      -9.985  11.476  67.158  1.00  0.00    -0.199 A  
HETATM    8  C   UNL     1     -10.459  10.242  66.716  1.00  0.00    -0.279 A  
HETATM    9  N   UNL     1     -10.029  12.730  66.612  1.00  0.00    -0.239 NA 
HETATM   10  C   UNL     1     -10.151   9.118  67.501  1.00  0.00    -0.228 A  
HETATM   11  C   UNL     1      -9.550   9.257  68.762  1.00  0.00    -0.154 A  
HETATM   12 CL   UNL     1     -10.440   7.593  66.729  1.00  0.00    -0.373 Cl 
HETATM   13  C   UNL     1      -9.073  10.524  69.166  1.00  0.00    -0.177 A  
BRANCH  11  14
HETATM   14  O   UNL     1      -9.233   8.264  69.669  1.00  0.00    -0.156 OA 
BRANCH  14  15
HETATM   15  C   UNL     1     -10.162   7.670  70.498  1.00  0.00    -0.201 A  
HETATM   16  C   UNL     1     -11.379   8.255  70.860  1.00  0.00    -0.292 A  
HETATM   17  C   UNL     1     -12.320   7.526  71.590  1.00  0.00    -0.362 A  
HETATM   18  C   UNL     1     -12.013   6.243  72.043  1.00  0.00    -0.353 A  
HETATM   19  C   UNL     1     -10.751   5.702  71.800  1.00  0.00    -0.244 A  
HETATM   20  C   UNL     1      -9.817   6.412  71.031  1.00  0.00    -0.180 A  
HETATM   21 CL   UNL     1     -10.411   4.145  72.474  1.00  0.00    -0.238 Cl 
HETATM   22 CL   UNL     1      -8.230   5.768  70.741  1.00  0.00    -0.121 Cl 
ENDBRANCH  14  15
ENDBRANCH  11  14
ENDBRANCH   2   3
TORSDOF 3
ENDMDL
MODEL      144
REMARK 921   NORMALIZED FREE ENERGY PREDICTED BY IDOCK:   -4.14 KCAL/MOL
REMARK 922        TOTAL FREE ENERGY PREDICTED BY IDOCK:   -5.43 KCAL/MOL
REMARK 923 INTER-LIGAND FREE ENERGY PREDICTED BY IDOCK:   -4.95 KCAL/MOL
REMARK 924 INTRA-LIGAND FREE ENERGY PREDICTED BY IDOCK:   -0.48 KCAL/MOL
REMARK 927      BINDING AFFINITY PREDICTED BY RF-SCORE:    0.00 PKD
ROOT
HETATM    1  C   UNL     1     -12.046  14.506  64.310  1.00  0.00    -0.425 C  
HETATM    2  S   UNL     1     -12.009  12.874  63.541  1.00  0.00    -0.527 SA 
ENDROOT
BRANCH   2   3
HETATM    3  C   UNL     1     -11.407  11.901  64.826  1.00  0.00    -0.283 A  
HETATM    4  N   UNL     1     -10.613  10.855  64.774  1.00  0.00    -0.292 NA 
HETATM    5  C   UNL     1     -10.534  10.408  66.075  1.00  0.00    -0.140 A  
HETATM    6  H   UNL     1     -10.155  10.462  63.952  1.00  0.00     0.000 HD 
HETATM    7  C   UNL     1     -11.304  11.202  66.917  1.00  0.00    -0.090 A  
HETATM    8  C   UNL     1     -11.498  10.920  68.269  1.00  0.00    -0.376 A  
HETATM    9  N   UNL     1     -11.792  12.185  66.101  1.00  0.00    -0.582 NA 
HETATM   10  C   UNL     1     -10.903   9.751  68.772  1.00  0.00    -0.188 A  
HETATM   11  C   UNL     1     -10.008   8.999  67.994  1.00  0.00    -0.176 A  
HETATM   12 CL   UNL     1     -11.471   9.263  70.336  1.00  0.00    -0.278 Cl 
HETATM   13  C   UNL     1      -9.850   9.312  66.625  1.00  0.00    -0.311 A  
BRANCH  11  14
HETATM   14  O   UNL     1      -9.307   7.866  68.357  1.00  0.00    -0.141 OA 
BRANCH  14  15
HETATM   15  C   UNL     1      -8.700   7.711  69.587  1.00  0.00    -0.136 A  
HETATM   16  C   UNL     1      -7.660   8.519  70.056  1.00  0.00    -0.064 A  
HETATM   17  C   UNL     1      -7.198   8.380  71.367  1.00  0.00    -0.086 A  
HETATM   18  C   UNL     1      -7.708   7.372  72.185  1.00  0.00    -0.092 A  
HETATM   19  C   UNL     1      -8.652   6.477  71.681  1.00  0.00    -0.128 A  
HETATM   20  C   UNL     1      -9.150   6.637  70.380  1.00  0.00    -0.152 A  
HETATM   21 CL   UNL     1      -9.167   5.196  72.725  1.00  0.00    -0.142 Cl 
HETATM   22 CL   UNL     1     -10.305   5.517  69.725  1.00  0.00    -0.340 Cl 
ENDBRANCH  14  15
ENDBRANCH  11  14
ENDBRANCH   2   3
TORSDOF 3
ENDMDL
MODEL      145
REMARK 921   NORMALIZED FREE ENERGY PREDICTED BY IDOCK:   -4.13 KCAL/MOL
REMARK 922        TOTAL FREE ENERGY PREDICTED BY IDOCK:   -5.42 KCAL/MOL
REMARK 923 INTER-LIGAND FREE ENERGY PREDICTED BY IDOCK:   -5.01 KCAL/MOL
REMARK 924 INTRA-LIGAND FREE ENERGY PREDICTED BY IDOCK:   -0.42 KCAL/MOL
REMARK 927      BINDING AFFINITY PREDICTED BY RF-SCORE:    0.00 PKD
ROOT
HETATM    1  C   UNL     1      -5.967   8.688  66.649  1.00  0.00    -0.053 C  
HETATM    2  S   UNL     1      -7.041   9.068  65.250  1.00  0.00    -0.085 SA 
ENDROOT
BRANCH   2   3
HETATM    3  C   UNL     1      -7.828  10.497  65.799  1.00  0.00    -0.154 A  
HETATM    4  N   UNL     1      -7.529  11.269  66.819  1.00  0.00    -0.144 NA 
HETATM    5  C   UNL     1      -8.538  12.208  66.858  1.00  0.00    -0.191 A  
HETATM    6  H   UNL     1      -6.728  11.191  67.445  1.00  0.00     0.000 HD 
HETATM    7  C   UNL     1      -9.459  11.983  65.841  1.00  0.00    -0.197 A  
HETATM    8  C   UNL     1     -10.639  12.713  65.704  1.00  0.00    -0.299 A  
HETATM    9  N   UNL     1      -8.941  10.928  65.143  1.00  0.00    -0.197 NA 
HETATM   10  C   UNL     1     -10.904  13.694  66.674  1.00  0.00    -0.283 A  
HETATM   11  C   UNL     1      -9.940  14.045  67.632  1.00  0.00    -0.237 A  
HETATM   12 CL   UNL     1     -12.527  14.302  66.666  1.00  0.00    -0.341 Cl 
HETATM   13  C   UNL     1      -8.762  13.273  67.745  1.00  0.00    -0.194 A  
BRANCH  11  14
HETATM   14  O   UNL     1     -10.026  15.016  68.611  1.00  0.00    -0.207 OA 
BRANCH  14  15
HETATM   15  C   UNL     1      -9.882  16.365  68.356  1.00  0.00    -0.233 A  
HETATM   16  C   UNL     1     -10.878  17.167  67.791  1.00  0.00    -0.270 A  
HETATM   17  C   UNL     1     -10.698  18.549  67.696  1.00  0.00    -0.405 A  
HETATM   18  C   UNL     1      -9.487  19.125  68.080  1.00  0.00    -0.400 A  
HETATM   19  C   UNL     1      -8.440  18.316  68.522  1.00  0.00    -0.307 A  
HETATM   20  C   UNL     1      -8.629  16.933  68.659  1.00  0.00    -0.267 A  
HETATM   21 CL   UNL     1      -6.938  19.092  68.890  1.00  0.00    -0.357 Cl 
HETATM   22 CL   UNL     1      -7.329  15.906  69.181  1.00  0.00    -0.186 Cl 
ENDBRANCH  14  15
ENDBRANCH  11  14
ENDBRANCH   2   3
TORSDOF 3
ENDMDL
MODEL      146
REMARK 921   NORMALIZED FREE ENERGY PREDICTED BY IDOCK:   -4.11 KCAL/MOL
REMARK 922        TOTAL FREE ENERGY PREDICTED BY IDOCK:   -5.39 KCAL/MOL
REMARK 923 INTER-LIGAND FREE ENERGY PREDICTED BY IDOCK:   -5.49 KCAL/MOL
REMARK 924 INTRA-LIGAND FREE ENERGY PREDICTED BY IDOCK:    0.09 KCAL/MOL
REMARK 927      BINDING AFFINITY PREDICTED BY RF-SCORE:    0.00 PKD
ROOT
HETATM    1  C   UNL     1      -6.118   5.366  67.404  1.00  0.00    -0.030 C  
HETATM    2  S   UNL     1      -7.738   5.035  66.681  1.00  0.00    -0.092 SA 
ENDROOT
BRANCH   2   3
HETATM    3  C   UNL     1      -8.336   6.631  66.434  1.00  0.00    -0.121 A  
HETATM    4  N   UNL     1      -9.192   7.318  67.156  1.00  0.00    -0.131 NA 
HETATM    5  C   UNL     1      -9.387   8.487  66.454  1.00  0.00    -0.213 A  
HETATM    6  H   UNL     1      -9.619   7.045  68.041  1.00  0.00     0.000 HD 
HETATM    7  C   UNL     1      -8.634   8.491  65.285  1.00  0.00    -0.165 A  
HETATM    8  C   UNL     1      -8.715   9.500  64.326  1.00  0.00    -0.232 A  
HETATM    9  N   UNL     1      -7.924   7.324  65.337  1.00  0.00    -0.118 NA 
HETATM   10  C   UNL     1      -9.636  10.535  64.560  1.00  0.00    -0.302 A  
HETATM   11  C   UNL     1     -10.312  10.641  65.786  1.00  0.00    -0.219 A  
HETATM   12 CL   UNL     1      -9.956  11.545  63.188  1.00  0.00    -0.400 Cl 
HETATM   13  C   UNL     1     -10.212   9.590  66.725  1.00  0.00    -0.313 A  
BRANCH  11  14
HETATM   14  O   UNL     1     -11.201  11.619  66.187  1.00  0.00    -0.305 OA 
BRANCH  14  15
HETATM   15  C   UNL     1     -11.237  12.884  65.636  1.00  0.00    -0.295 A  
HETATM   16  C   UNL     1     -12.179  13.302  64.692  1.00  0.00    -0.460 A  
HETATM   17  C   UNL     1     -12.228  14.639  64.291  1.00  0.00    -0.432 A  
HETATM   18  C   UNL     1     -11.277  15.545  64.761  1.00  0.00    -0.399 A  
HETATM   19  C   UNL     1     -10.253  15.107  65.601  1.00  0.00    -0.361 A  
HETATM   20  C   UNL     1     -10.224  13.776  66.040  1.00  0.00    -0.308 A  
HETATM   21 CL   UNL     1      -9.056  16.268  66.065  1.00  0.00    -0.363 Cl 
HETATM   22 CL   UNL     1      -8.941  13.204  67.063  1.00  0.00    -0.226 Cl 
ENDBRANCH  14  15
ENDBRANCH  11  14
ENDBRANCH   2   3
TORSDOF 3
ENDMDL
MODEL      147
REMARK 921   NORMALIZED FREE ENERGY PREDICTED BY IDOCK:   -4.10 KCAL/MOL
REMARK 922        TOTAL FREE ENERGY PREDICTED BY IDOCK:   -5.38 KCAL/MOL
REMARK 923 INTER-LIGAND FREE ENERGY PREDICTED BY IDOCK:   -4.96 KCAL/MOL
REMARK 924 INTRA-LIGAND FREE ENERGY PREDICTED BY IDOCK:   -0.42 KCAL/MOL
REMARK 927      BINDING AFFINITY PREDICTED BY RF-SCORE:    0.00 PKD
ROOT
HETATM    1  C   UNL     1      -8.257   4.663  63.590  1.00  0.00    -0.107 C  
HETATM    2  S   UNL     1      -9.816   4.077  64.285  1.00  0.00    -0.153 SA 
ENDROOT
BRANCH   2   3
HETATM    3  C   UNL     1      -9.834   4.876  65.810  1.00  0.00    -0.168 A  
HETATM    4  N   UNL     1      -9.793   6.162  66.074  1.00  0.00    -0.387 NA 
HETATM    5  C   UNL     1      -9.734   6.238  67.449  1.00  0.00    -0.120 A  
HETATM    6  H   UNL     1      -9.802   6.935  65.408  1.00  0.00     0.000 HD 
HETATM    7  C   UNL     1      -9.733   4.967  68.013  1.00  0.00    -0.151 A  
HETATM    8  C   UNL     1      -9.573   4.736  69.378  1.00  0.00    -0.249 A  
HETATM    9  N   UNL     1      -9.867   4.124  66.945  1.00  0.00    -0.207 NA 
HETATM   10  C   UNL     1      -9.368   5.858  70.199  1.00  0.00    -0.156 A  
HETATM   11  C   UNL     1      -9.499   7.161  69.693  1.00  0.00    -0.152 A  
HETATM   12 CL   UNL     1      -8.816   5.493  71.801  1.00  0.00    -0.136 Cl 
HETATM   13  C   UNL     1      -9.649   7.351  68.300  1.00  0.00    -0.153 A  
BRANCH  11  14
HETATM   14  O   UNL     1      -9.382   8.356  70.375  1.00  0.00    -0.156 OA 
BRANCH  14  15
HETATM   15  C   UNL     1     -10.345   9.343  70.347  1.00  0.00    -0.262 A  
HETATM   16  C   UNL     1     -10.332  10.429  69.466  1.00  0.00    -0.264 A  
HETATM   17  C   UNL     1     -11.417  11.305  69.413  1.00  0.00    -0.370 A  
HETATM   18  C   UNL     1     -12.481  11.157  70.303  1.00  0.00    -0.354 A  
HETATM   19  C   UNL     1     -12.441  10.156  71.274  1.00  0.00    -0.406 A  
HETATM   20  C   UNL     1     -11.374   9.247  71.305  1.00  0.00    -0.353 A  
HETATM   21 CL   UNL     1     -13.751  10.094  72.404  1.00  0.00    -0.208 Cl 
HETATM   22 CL   UNL     1     -11.293   8.011  72.524  1.00  0.00    -0.441 Cl 
ENDBRANCH  14  15
ENDBRANCH  11  14
ENDBRANCH   2   3
TORSDOF 3
ENDMDL
MODEL      148
REMARK 921   NORMALIZED FREE ENERGY PREDICTED BY IDOCK:   -4.09 KCAL/MOL
REMARK 922        TOTAL FREE ENERGY PREDICTED BY IDOCK:   -5.37 KCAL/MOL
REMARK 923 INTER-LIGAND FREE ENERGY PREDICTED BY IDOCK:   -5.12 KCAL/MOL
REMARK 924 INTRA-LIGAND FREE ENERGY PREDICTED BY IDOCK:   -0.26 KCAL/MOL
REMARK 927      BINDING AFFINITY PREDICTED BY RF-SCORE:    0.00 PKD
ROOT
HETATM    1  C   UNL     1      -7.237   5.668  72.029  1.00  0.00    -0.088 C  
HETATM    2  S   UNL     1      -6.836   7.245  72.810  1.00  0.00    -0.069 SA 
ENDROOT
BRANCH   2   3
HETATM    3  C   UNL     1      -7.569   8.362  71.726  1.00  0.00    -0.112 A  
HETATM    4  N   UNL     1      -8.783   8.357  71.223  1.00  0.00    -0.147 NA 
HETATM    5  C   UNL     1      -8.806   9.419  70.345  1.00  0.00    -0.249 A  
HETATM    6  H   UNL     1      -9.542   7.710  71.437  1.00  0.00     0.000 HD 
HETATM    7  C   UNL     1      -7.574  10.064  70.320  1.00  0.00    -0.106 A  
HETATM    8  C   UNL     1      -7.274  11.106  69.444  1.00  0.00    -0.091 A  
HETATM    9  N   UNL     1      -6.831   9.408  71.262  1.00  0.00    -0.285 NA 
HETATM   10  C   UNL     1      -8.271  11.480  68.527  1.00  0.00    -0.148 A  
HETATM   11  C   UNL     1      -9.568  10.951  68.610  1.00  0.00    -0.190 A  
HETATM   12 CL   UNL     1      -7.725  12.508  67.242  1.00  0.00    -0.162 Cl 
HETATM   13  C   UNL     1      -9.827   9.888  69.504  1.00  0.00    -0.241 A  
BRANCH  11  14
HETATM   14  O   UNL     1     -10.663  11.253  67.823  1.00  0.00    -0.196 OA 
BRANCH  14  15
HETATM   15  C   UNL     1     -10.616  11.308  66.445  1.00  0.00    -0.266 A  
HETATM   16  C   UNL     1      -9.898  10.412  65.648  1.00  0.00    -0.321 A  
HETATM   17  C   UNL     1     -10.017  10.457  64.257  1.00  0.00    -0.368 A  
HETATM   18  C   UNL     1     -10.782  11.455  63.652  1.00  0.00    -0.470 A  
HETATM   19  C   UNL     1     -11.395  12.433  64.435  1.00  0.00    -0.340 A  
HETATM   20  C   UNL     1     -11.313  12.369  65.834  1.00  0.00    -0.356 A  
HETATM   21 CL   UNL     1     -12.246  13.693  63.609  1.00  0.00    -0.462 Cl 
HETATM   22 CL   UNL     1     -12.047  13.593  66.825  1.00  0.00    -0.449 Cl 
ENDBRANCH  14  15
ENDBRANCH  11  14
ENDBRANCH   2   3
TORSDOF 3
ENDMDL
MODEL      149
REMARK 921   NORMALIZED FREE ENERGY PREDICTED BY IDOCK:   -4.08 KCAL/MOL
REMARK 922        TOTAL FREE ENERGY PREDICTED BY IDOCK:   -5.36 KCAL/MOL
REMARK 923 INTER-LIGAND FREE ENERGY PREDICTED BY IDOCK:   -5.39 KCAL/MOL
REMARK 924 INTRA-LIGAND FREE ENERGY PREDICTED BY IDOCK:    0.03 KCAL/MOL
REMARK 927      BINDING AFFINITY PREDICTED BY RF-SCORE:    0.00 PKD
ROOT
HETATM    1  C   UNL     1     -12.687  15.936  72.856  1.00  0.00    -0.484 C  
HETATM    2  S   UNL     1     -13.940  15.265  71.744  1.00  0.00    -0.561 SA 
ENDROOT
BRANCH   2   3
HETATM    3  C   UNL     1     -12.997  14.213  70.760  1.00  0.00    -0.271 A  
HETATM    4  N   UNL     1     -12.597  14.373  69.519  1.00  0.00    -0.536 NA 
HETATM    5  C   UNL     1     -11.965  13.191  69.198  1.00  0.00    -0.281 A  
HETATM    6  H   UNL     1     -12.726  15.191  68.924  1.00  0.00     0.000 HD 
HETATM    7  C   UNL     1     -11.997  12.307  70.270  1.00  0.00    -0.290 A  
HETATM    8  C   UNL     1     -11.527  10.997  70.196  1.00  0.00    -0.383 A  
HETATM    9  N   UNL     1     -12.601  13.015  71.273  1.00  0.00    -0.336 NA 
HETATM   10  C   UNL     1     -11.036  10.561  68.954  1.00  0.00    -0.246 A  
HETATM   11  C   UNL     1     -10.859  11.458  67.889  1.00  0.00    -0.225 A  
HETATM   12 CL   UNL     1     -10.814   8.847  68.823  1.00  0.00    -0.106 Cl 
HETATM   13  C   UNL     1     -11.359  12.775  68.002  1.00  0.00    -0.335 A  
BRANCH  11  14
HETATM   14  O   UNL     1     -10.343  11.199  66.634  1.00  0.00    -0.223 OA 
BRANCH  14  15
HETATM   15  C   UNL     1      -9.378  10.242  66.392  1.00  0.00    -0.165 A  
HETATM   16  C   UNL     1      -9.647   8.966  65.889  1.00  0.00    -0.293 A  
HETATM   17  C   UNL     1      -8.599   8.110  65.545  1.00  0.00    -0.173 A  
HETATM   18  C   UNL     1      -7.278   8.489  65.787  1.00  0.00    -0.076 A  
HETATM   19  C   UNL     1      -7.007   9.706  66.412  1.00  0.00    -0.088 A  
HETATM   20  C   UNL     1      -8.052  10.588  66.721  1.00  0.00    -0.123 A  
HETATM   21 CL   UNL     1      -5.351  10.064  66.766  1.00  0.00    -0.040 Cl 
HETATM   22 CL   UNL     1      -7.736  12.096  67.523  1.00  0.00    -0.148 Cl 
ENDBRANCH  14  15
ENDBRANCH  11  14
ENDBRANCH   2   3
TORSDOF 3
ENDMDL
MODEL      150
REMARK 921   NORMALIZED FREE ENERGY PREDICTED BY IDOCK:   -4.08 KCAL/MOL
REMARK 922        TOTAL FREE ENERGY PREDICTED BY IDOCK:   -5.35 KCAL/MOL
REMARK 923 INTER-LIGAND FREE ENERGY PREDICTED BY IDOCK:   -5.27 KCAL/MOL
REMARK 924 INTRA-LIGAND FREE ENERGY PREDICTED BY IDOCK:   -0.08 KCAL/MOL
REMARK 927      BINDING AFFINITY PREDICTED BY RF-SCORE:    0.00 PKD
ROOT
HETATM    1  C   UNL     1     -12.542  16.054  73.265  1.00  0.00    -0.540 C  
HETATM    2  S   UNL     1     -13.586  14.978  72.260  1.00  0.00    -0.495 SA 
ENDROOT
BRANCH   2   3
HETATM    3  C   UNL     1     -12.559  14.664  70.914  1.00  0.00    -0.342 A  
HETATM    4  N   UNL     1     -11.817  13.608  70.665  1.00  0.00    -0.522 NA 
HETATM    5  C   UNL     1     -11.131  13.924  69.512  1.00  0.00    -0.128 A  
HETATM    6  H   UNL     1     -11.761  12.745  71.206  1.00  0.00     0.000 HD 
HETATM    7  C   UNL     1     -11.469  15.199  69.071  1.00  0.00    -0.309 A  
HETATM    8  C   UNL     1     -10.851  15.823  67.989  1.00  0.00    -0.309 A  
HETATM    9  N   UNL     1     -12.432  15.615  69.948  1.00  0.00    -0.262 NA 
HETATM   10  C   UNL     1      -9.813  15.122  67.351  1.00  0.00    -0.224 A  
HETATM   11  C   UNL     1      -9.535  13.784  67.675  1.00  0.00    -0.217 A  
HETATM   12 CL   UNL     1      -8.850  16.076  66.270  1.00  0.00    -0.359 Cl 
HETATM   13  C   UNL     1     -10.177  13.193  68.787  1.00  0.00    -0.109 A  
BRANCH  11  14
HETATM   14  O   UNL     1      -8.592  12.949  67.109  1.00  0.00    -0.195 OA 
BRANCH  14  15
HETATM   15  C   UNL     1      -8.896  11.713  66.574  1.00  0.00    -0.188 A  
HETATM   16  C   UNL     1     -10.198  11.244  66.373  1.00  0.00    -0.273 A  
HETATM   17  C   UNL     1     -10.415  10.040  65.700  1.00  0.00    -0.048 A  
HETATM   18  C   UNL     1      -9.333   9.254  65.304  1.00  0.00    -0.269 A  
HETATM   19  C   UNL     1      -8.033   9.652  65.618  1.00  0.00    -0.113 A  
HETATM   20  C   UNL     1      -7.806  10.879  66.257  1.00  0.00    -0.158 A  
HETATM   21 CL   UNL     1      -6.747   8.578  65.179  1.00  0.00    -0.063 Cl 
HETATM   22 CL   UNL     1      -6.197  11.378  66.680  1.00  0.00    -0.145 Cl 
ENDBRANCH  14  15
ENDBRANCH  11  14
ENDBRANCH   2   3
TORSDOF 3
ENDMDL
MODEL      151
REMARK 921   NORMALIZED FREE ENERGY PREDICTED BY IDOCK:   -4.07 KCAL/MOL
REMARK 922        TOTAL FREE ENERGY PREDICTED BY IDOCK:   -5.35 KCAL/MOL
REMARK 923 INTER-LIGAND FREE ENERGY PREDICTED BY IDOCK:   -5.21 KCAL/MOL
REMARK 924 INTRA-LIGAND FREE ENERGY PREDICTED BY IDOCK:   -0.14 KCAL/MOL
REMARK 927      BINDING AFFINITY PREDICTED BY RF-SCORE:    0.00 PKD
ROOT
HETATM    1  C   UNL     1     -10.680   7.151  69.118  1.00  0.00    -0.198 C  
HETATM    2  S   UNL     1     -10.066   7.384  67.437  1.00  0.00    -0.236 SA 
ENDROOT
BRANCH   2   3
HETATM    3  C   UNL     1     -10.182   9.092  67.262  1.00  0.00    -0.254 A  
HETATM    4  N   UNL     1     -10.241  10.019  68.191  1.00  0.00    -0.166 NA 
HETATM    5  C   UNL     1     -10.424  11.198  67.502  1.00  0.00    -0.204 A  
HETATM    6  H   UNL     1     -10.167   9.894  69.201  1.00  0.00     0.000 HD 
HETATM    7  C   UNL     1     -10.482  10.965  66.132  1.00  0.00    -0.229 A  
HETATM    8  C   UNL     1     -10.767  11.959  65.198  1.00  0.00    -0.339 A  
HETATM    9  N   UNL     1     -10.257   9.621  66.010  1.00  0.00    -0.235 NA 
HETATM   10  C   UNL     1     -11.040  13.245  65.693  1.00  0.00    -0.282 A  
HETATM   11  C   UNL     1     -10.857  13.554  67.050  1.00  0.00    -0.282 A  
HETATM   12 CL   UNL     1     -11.738  14.334  64.538  1.00  0.00    -0.425 Cl 
HETATM   13  C   UNL     1     -10.580  12.514  67.966  1.00  0.00    -0.237 A  
BRANCH  11  14
HETATM   14  O   UNL     1     -11.029  14.773  67.677  1.00  0.00    -0.274 OA 
BRANCH  14  15
HETATM   15  C   UNL     1     -10.363  15.921  67.301  1.00  0.00    -0.293 A  
HETATM   16  C   UNL     1     -10.750  16.740  66.236  1.00  0.00    -0.106 A  
HETATM   17  C   UNL     1     -10.100  17.956  66.012  1.00  0.00    -0.258 A  
HETATM   18  C   UNL     1      -9.001  18.316  66.792  1.00  0.00    -0.289 A  
HETATM   19  C   UNL     1      -8.526  17.443  67.771  1.00  0.00    -0.223 A  
HETATM   20  C   UNL     1      -9.200  16.241  68.029  1.00  0.00    -0.196 A  
HETATM   21 CL   UNL     1      -7.102  17.917  68.633  1.00  0.00    -0.257 Cl 
HETATM   22 CL   UNL     1      -8.607  15.128  69.225  1.00  0.00    -0.224 Cl 
ENDBRANCH  14  15
ENDBRANCH  11  14
ENDBRANCH   2   3
TORSDOF 3
ENDMDL
MODEL      152
REMARK 921   NORMALIZED FREE ENERGY PREDICTED BY IDOCK:   -4.06 KCAL/MOL
REMARK 922        TOTAL FREE ENERGY PREDICTED BY IDOCK:   -5.34 KCAL/MOL
REMARK 923 INTER-LIGAND FREE ENERGY PREDICTED BY IDOCK:   -4.83 KCAL/MOL
REMARK 924 INTRA-LIGAND FREE ENERGY PREDICTED BY IDOCK:   -0.51 KCAL/MOL
REMARK 927      BINDING AFFINITY PREDICTED BY RF-SCORE:    0.00 PKD
ROOT
HETATM    1  C   UNL     1      -7.557   3.571  68.458  1.00  0.00    -0.053 C  
HETATM    2  S   UNL     1      -8.828   3.614  67.177  1.00  0.00    -0.139 SA 
ENDROOT
BRANCH   2   3
HETATM    3  C   UNL     1      -9.086   5.307  67.007  1.00  0.00    -0.112 A  
HETATM    4  N   UNL     1      -9.953   6.081  67.620  1.00  0.00    -0.126 NA 
HETATM    5  C   UNL     1      -9.795   7.319  67.037  1.00  0.00    -0.203 A  
HETATM    6  H   UNL     1     -10.600   5.822  68.365  1.00  0.00     0.000 HD 
HETATM    7  C   UNL     1      -8.817   7.278  66.050  1.00  0.00    -0.136 A  
HETATM    8  C   UNL     1      -8.521   8.359  65.221  1.00  0.00    -0.189 A  
HETATM    9  N   UNL     1      -8.337   5.999  66.103  1.00  0.00    -0.121 NA 
HETATM   10  C   UNL     1      -9.287   9.525  65.388  1.00  0.00    -0.261 A  
HETATM   11  C   UNL     1     -10.185   9.655  66.458  1.00  0.00    -0.224 A  
HETATM   12 CL   UNL     1      -9.130  10.685  64.109  1.00  0.00    -0.227 Cl 
HETATM   13  C   UNL     1     -10.465   8.531  67.268  1.00  0.00    -0.366 A  
BRANCH  11  14
HETATM   14  O   UNL     1     -10.966  10.746  66.788  1.00  0.00    -0.234 OA 
BRANCH  14  15
HETATM   15  C   UNL     1     -10.483  12.038  66.837  1.00  0.00    -0.223 A  
HETATM   16  C   UNL     1      -9.519  12.481  67.747  1.00  0.00    -0.197 A  
HETATM   17  C   UNL     1      -8.987  13.767  67.637  1.00  0.00    -0.194 A  
HETATM   18  C   UNL     1      -9.481  14.649  66.675  1.00  0.00    -0.297 A  
HETATM   19  C   UNL     1     -10.535  14.259  65.849  1.00  0.00    -0.307 A  
HETATM   20  C   UNL     1     -11.045  12.955  65.927  1.00  0.00    -0.283 A  
HETATM   21 CL   UNL     1     -11.157  15.438  64.746  1.00  0.00    -0.429 Cl 
HETATM   22 CL   UNL     1     -12.375  12.459  64.926  1.00  0.00    -0.510 Cl 
ENDBRANCH  14  15
ENDBRANCH  11  14
ENDBRANCH   2   3
TORSDOF 3
ENDMDL
MODEL      153
REMARK 921   NORMALIZED FREE ENERGY PREDICTED BY IDOCK:   -4.06 KCAL/MOL
REMARK 922        TOTAL FREE ENERGY PREDICTED BY IDOCK:   -5.33 KCAL/MOL
REMARK 923 INTER-LIGAND FREE ENERGY PREDICTED BY IDOCK:   -4.72 KCAL/MOL
REMARK 924 INTRA-LIGAND FREE ENERGY PREDICTED BY IDOCK:   -0.61 KCAL/MOL
REMARK 927      BINDING AFFINITY PREDICTED BY RF-SCORE:    0.00 PKD
ROOT
HETATM    1  C   UNL     1     -11.762  14.652  64.427  1.00  0.00    -0.346 C  
HETATM    2  S   UNL     1     -12.383  14.138  66.042  1.00  0.00    -0.397 SA 
ENDROOT
BRANCH   2   3
HETATM    3  C   UNL     1     -11.596  12.621  66.246  1.00  0.00    -0.386 A  
HETATM    4  N   UNL     1     -11.893  11.635  67.062  1.00  0.00    -0.575 NA 
HETATM    5  C   UNL     1     -10.885  10.712  66.881  1.00  0.00    -0.205 A  
HETATM    6  H   UNL     1     -12.692  11.568  67.692  1.00  0.00     0.000 HD 
HETATM    7  C   UNL     1      -9.967  11.164  65.940  1.00  0.00    -0.239 A  
HETATM    8  C   UNL     1      -8.788  10.485  65.635  1.00  0.00    -0.197 A  
HETATM    9  N   UNL     1     -10.486  12.352  65.505  1.00  0.00    -0.268 NA 
HETATM   10  C   UNL     1      -8.522   9.307  66.353  1.00  0.00    -0.123 A  
HETATM   11  C   UNL     1      -9.483   8.746  67.208  1.00  0.00    -0.158 A  
HETATM   12 CL   UNL     1      -6.899   8.716  66.200  1.00  0.00    -0.072 Cl 
HETATM   13  C   UNL     1     -10.660   9.472  67.499  1.00  0.00    -0.338 A  
BRANCH  11  14
HETATM   14  O   UNL     1      -9.395   7.576  67.938  1.00  0.00    -0.138 OA 
BRANCH  14  15
HETATM   15  C   UNL     1      -9.463   6.320  67.369  1.00  0.00    -0.115 A  
HETATM   16  C   UNL     1     -10.566   5.840  66.657  1.00  0.00    -0.347 A  
HETATM   17  C   UNL     1     -10.496   4.611  65.998  1.00  0.00    -0.303 A  
HETATM   18  C   UNL     1      -9.359   3.813  66.124  1.00  0.00    -0.183 A  
HETATM   19  C   UNL     1      -8.306   4.225  66.941  1.00  0.00    -0.101 A  
HETATM   20  C   UNL     1      -8.353   5.477  67.571  1.00  0.00    -0.100 A  
HETATM   21 CL   UNL     1      -6.971   3.139  67.124  1.00  0.00    -0.049 Cl 
HETATM   22 CL   UNL     1      -7.065   5.996  68.615  1.00  0.00    -0.079 Cl 
ENDBRANCH  14  15
ENDBRANCH  11  14
ENDBRANCH   2   3
TORSDOF 3
ENDMDL
MODEL      154
REMARK 921   NORMALIZED FREE ENERGY PREDICTED BY IDOCK:   -4.05 KCAL/MOL
REMARK 922        TOTAL FREE ENERGY PREDICTED BY IDOCK:   -5.32 KCAL/MOL
REMARK 923 INTER-LIGAND FREE ENERGY PREDICTED BY IDOCK:   -4.91 KCAL/MOL
REMARK 924 INTRA-LIGAND FREE ENERGY PREDICTED BY IDOCK:   -0.42 KCAL/MOL
REMARK 927      BINDING AFFINITY PREDICTED BY RF-SCORE:    0.00 PKD
ROOT
HETATM    1  C   UNL     1      -7.980   5.602  69.267  1.00  0.00    -0.096 C  
HETATM    2  S   UNL     1      -8.616   5.307  67.604  1.00  0.00    -0.103 SA 
ENDROOT
BRANCH   2   3
HETATM    3  C   UNL     1      -9.203   6.868  67.178  1.00  0.00    -0.139 A  
HETATM    4  N   UNL     1      -8.827   7.656  66.196  1.00  0.00    -0.161 NA 
HETATM    5  C   UNL     1      -9.551   8.814  66.377  1.00  0.00    -0.249 A  
HETATM    6  H   UNL     1      -8.149   7.455  65.461  1.00  0.00     0.000 HD 
HETATM    7  C   UNL     1     -10.370   8.714  67.496  1.00  0.00    -0.269 A  
HETATM    8  C   UNL     1     -11.135   9.773  67.982  1.00  0.00    -0.168 A  
HETATM    9  N   UNL     1     -10.175   7.436  67.943  1.00  0.00    -0.184 NA 
HETATM   10  C   UNL     1     -11.028  11.002  67.311  1.00  0.00    -0.297 A  
HETATM   11  C   UNL     1     -10.324  11.110  66.102  1.00  0.00    -0.250 A  
HETATM   12 CL   UNL     1     -11.701  12.354  68.163  1.00  0.00    -0.393 Cl 
HETATM   13  C   UNL     1      -9.552  10.015  65.650  1.00  0.00    -0.313 A  
BRANCH  11  14
HETATM   14  O   UNL     1     -10.171  12.225  65.300  1.00  0.00    -0.270 OA 
BRANCH  14  15
HETATM   15  C   UNL     1      -9.738  13.446  65.774  1.00  0.00    -0.129 A  
HETATM   16  C   UNL     1      -8.686  13.608  66.680  1.00  0.00    -0.018 A  
HETATM   17  C   UNL     1      -8.222  14.886  66.999  1.00  0.00    -0.228 A  
HETATM   18  C   UNL     1      -8.867  16.012  66.487  1.00  0.00    -0.340 A  
HETATM   19  C   UNL     1     -10.000  15.862  65.687  1.00  0.00    -0.334 A  
HETATM   20  C   UNL     1     -10.444  14.581  65.329  1.00  0.00    -0.390 A  
HETATM   21 CL   UNL     1     -10.802  17.305  65.168  1.00  0.00    -0.133 Cl 
HETATM   22 CL   UNL     1     -11.869  14.373  64.357  1.00  0.00    -0.443 Cl 
ENDBRANCH  14  15
ENDBRANCH  11  14
ENDBRANCH   2   3
TORSDOF 3
ENDMDL
MODEL      155
REMARK 921   NORMALIZED FREE ENERGY PREDICTED BY IDOCK:   -4.04 KCAL/MOL
REMARK 922        TOTAL FREE ENERGY PREDICTED BY IDOCK:   -5.31 KCAL/MOL
REMARK 923 INTER-LIGAND FREE ENERGY PREDICTED BY IDOCK:   -5.02 KCAL/MOL
REMARK 924 INTRA-LIGAND FREE ENERGY PREDICTED BY IDOCK:   -0.29 KCAL/MOL
REMARK 927      BINDING AFFINITY PREDICTED BY RF-SCORE:    0.00 PKD
ROOT
HETATM    1  C   UNL     1      -9.552  17.521  68.435  1.00  0.00    -0.303 C  
HETATM    2  S   UNL     1      -9.454  16.081  69.519  1.00  0.00    -0.084 SA 
ENDROOT
BRANCH   2   3
HETATM    3  C   UNL     1      -9.887  14.810  68.442  1.00  0.00    -0.220 A  
HETATM    4  N   UNL     1      -9.285  13.662  68.229  1.00  0.00    -0.200 NA 
HETATM    5  C   UNL     1      -9.995  13.077  67.203  1.00  0.00    -0.235 A  
HETATM    6  H   UNL     1      -8.471  13.286  68.715  1.00  0.00     0.000 HD 
HETATM    7  C   UNL     1     -11.039  13.900  66.794  1.00  0.00    -0.303 A  
HETATM    8  C   UNL     1     -11.857  13.612  65.703  1.00  0.00    -0.387 A  
HETATM    9  N   UNL     1     -10.983  14.965  67.650  1.00  0.00    -0.290 NA 
HETATM   10  C   UNL     1     -11.571  12.444  64.976  1.00  0.00    -0.345 A  
HETATM   11  C   UNL     1     -10.619  11.519  65.435  1.00  0.00    -0.282 A  
HETATM   12 CL   UNL     1     -12.369  12.330  63.442  1.00  0.00    -0.651 Cl 
HETATM   13  C   UNL     1      -9.802  11.856  66.538  1.00  0.00    -0.225 A  
BRANCH  11  14
HETATM   14  O   UNL     1     -10.264  10.311  64.869  1.00  0.00    -0.327 OA 
BRANCH  14  15
HETATM   15  C   UNL     1      -9.048   9.697  65.091  1.00  0.00    -0.228 A  
HETATM   16  C   UNL     1      -7.856  10.064  64.460  1.00  0.00    -0.145 A  
HETATM   17  C   UNL     1      -6.647   9.482  64.847  1.00  0.00    -0.086 A  
HETATM   18  C   UNL     1      -6.634   8.463  65.799  1.00  0.00    -0.053 A  
HETATM   19  C   UNL     1      -7.834   7.998  66.338  1.00  0.00    -0.097 A  
HETATM   20  C   UNL     1      -9.047   8.608  65.985  1.00  0.00    -0.204 A  
HETATM   21 CL   UNL     1      -7.746   6.668  67.441  1.00  0.00    -0.107 Cl 
HETATM   22 CL   UNL     1     -10.554   8.025  66.623  1.00  0.00    -0.247 Cl 
ENDBRANCH  14  15
ENDBRANCH  11  14
ENDBRANCH   2   3
TORSDOF 3
ENDMDL
MODEL      156
REMARK 921   NORMALIZED FREE ENERGY PREDICTED BY IDOCK:   -4.03 KCAL/MOL
REMARK 922        TOTAL FREE ENERGY PREDICTED BY IDOCK:   -5.30 KCAL/MOL
REMARK 923 INTER-LIGAND FREE ENERGY PREDICTED BY IDOCK:   -4.78 KCAL/MOL
REMARK 924 INTRA-LIGAND FREE ENERGY PREDICTED BY IDOCK:   -0.51 KCAL/MOL
REMARK 927      BINDING AFFINITY PREDICTED BY RF-SCORE:    0.00 PKD
ROOT
HETATM    1  C   UNL     1      -7.450   3.748  70.612  1.00  0.00    -0.041 C  
HETATM    2  S   UNL     1      -7.742   3.824  68.832  1.00  0.00    -0.052 SA 
ENDROOT
BRANCH   2   3
HETATM    3  C   UNL     1      -8.355   5.423  68.653  1.00  0.00    -0.093 A  
HETATM    4  N   UNL     1      -9.471   5.826  68.090  1.00  0.00    -0.109 NA 
HETATM    5  C   UNL     1      -9.414   7.202  68.137  1.00  0.00    -0.132 A  
HETATM    6  H   UNL     1     -10.217   5.247  67.703  1.00  0.00     0.000 HD 
HETATM    7  C   UNL     1      -8.233   7.625  68.736  1.00  0.00    -0.128 A  
HETATM    8  C   UNL     1      -7.856   8.965  68.822  1.00  0.00    -0.101 A  
HETATM    9  N   UNL     1      -7.612   6.467  69.115  1.00  0.00    -0.098 NA 
HETATM   10  C   UNL     1      -8.713   9.911  68.236  1.00  0.00    -0.119 A  
HETATM   11  C   UNL     1      -9.976   9.541  67.746  1.00  0.00    -0.174 A  
HETATM   12 CL   UNL     1      -8.029  11.493  68.051  1.00  0.00    -0.123 Cl 
HETATM   13  C   UNL     1     -10.313   8.171  67.665  1.00  0.00    -0.313 A  
BRANCH  11  14
HETATM   14  O   UNL     1     -10.947  10.354  67.194  1.00  0.00    -0.267 OA 
BRANCH  14  15
HETATM   15  C   UNL     1     -10.786  11.024  65.999  1.00  0.00    -0.177 A  
HETATM   16  C   UNL     1     -10.122  10.498  64.887  1.00  0.00    -0.403 A  
HETATM   17  C   UNL     1     -10.126  11.189  63.673  1.00  0.00    -0.432 A  
HETATM   18  C   UNL     1     -10.713  12.452  63.589  1.00  0.00    -0.497 A  
HETATM   19  C   UNL     1     -11.261  13.042  64.728  1.00  0.00    -0.317 A  
HETATM   20  C   UNL     1     -11.298  12.335  65.939  1.00  0.00    -0.360 A  
HETATM   21 CL   UNL     1     -11.885  14.649  64.568  1.00  0.00    -0.446 Cl 
HETATM   22 CL   UNL     1     -11.952  13.064  67.374  1.00  0.00    -0.403 Cl 
ENDBRANCH  14  15
ENDBRANCH  11  14
ENDBRANCH   2   3
TORSDOF 3
ENDMDL
MODEL      157
REMARK 921   NORMALIZED FREE ENERGY PREDICTED BY IDOCK:   -4.02 KCAL/MOL
REMARK 922        TOTAL FREE ENERGY PREDICTED BY IDOCK:   -5.29 KCAL/MOL
REMARK 923 INTER-LIGAND FREE ENERGY PREDICTED BY IDOCK:   -5.25 KCAL/MOL
REMARK 924 INTRA-LIGAND FREE ENERGY PREDICTED BY IDOCK:   -0.03 KCAL/MOL
REMARK 927      BINDING AFFINITY PREDICTED BY RF-SCORE:    0.00 PKD
ROOT
HETATM    1  C   UNL     1      -9.071   5.134  66.037  1.00  0.00    -0.149 C  
HETATM    2  S   UNL     1      -9.557   5.357  67.761  1.00  0.00    -0.134 SA 
ENDROOT
BRANCH   2   3
HETATM    3  C   UNL     1      -9.812   7.058  67.828  1.00  0.00    -0.139 A  
HETATM    4  N   UNL     1     -10.910   7.743  67.598  1.00  0.00    -0.506 NA 
HETATM    5  C   UNL     1     -10.528   9.063  67.697  1.00  0.00    -0.260 A  
HETATM    6  H   UNL     1     -11.839   7.377  67.391  1.00  0.00     0.000 HD 
HETATM    7  C   UNL     1      -9.172   9.165  67.986  1.00  0.00    -0.134 A  
HETATM    8  C   UNL     1      -8.490  10.379  68.038  1.00  0.00    -0.119 A  
HETATM    9  N   UNL     1      -8.761   7.869  68.131  1.00  0.00    -0.126 NA 
HETATM   10  C   UNL     1      -9.224  11.541  67.745  1.00  0.00    -0.165 A  
HETATM   11  C   UNL     1     -10.617  11.497  67.584  1.00  0.00    -0.199 A  
HETATM   12 CL   UNL     1      -8.261  12.955  67.466  1.00  0.00    -0.172 Cl 
HETATM   13  C   UNL     1     -11.269  10.244  67.526  1.00  0.00    -0.192 A  
BRANCH  11  14
HETATM   14  O   UNL     1     -11.481  12.548  67.347  1.00  0.00    -0.298 OA 
BRANCH  14  15
HETATM   15  C   UNL     1     -11.388  13.767  67.987  1.00  0.00    -0.288 A  
HETATM   16  C   UNL     1     -10.963  14.947  67.370  1.00  0.00    -0.314 A  
HETATM   17  C   UNL     1     -11.030  16.162  68.055  1.00  0.00    -0.338 A  
HETATM   18  C   UNL     1     -11.434  16.192  69.390  1.00  0.00    -0.296 A  
HETATM   19  C   UNL     1     -11.733  15.002  70.053  1.00  0.00    -0.306 A  
HETATM   20  C   UNL     1     -11.708  13.784  69.359  1.00  0.00    -0.325 A  
HETATM   21 CL   UNL     1     -12.134  15.109  71.733  1.00  0.00    -0.399 Cl 
HETATM   22 CL   UNL     1     -12.050  12.288  70.174  1.00  0.00    -0.395 Cl 
ENDBRANCH  14  15
ENDBRANCH  11  14
ENDBRANCH   2   3
TORSDOF 3
ENDMDL
MODEL      158
REMARK 921   NORMALIZED FREE ENERGY PREDICTED BY IDOCK:   -4.01 KCAL/MOL
REMARK 922        TOTAL FREE ENERGY PREDICTED BY IDOCK:   -5.27 KCAL/MOL
REMARK 923 INTER-LIGAND FREE ENERGY PREDICTED BY IDOCK:   -5.34 KCAL/MOL
REMARK 924 INTRA-LIGAND FREE ENERGY PREDICTED BY IDOCK:    0.07 KCAL/MOL
REMARK 927      BINDING AFFINITY PREDICTED BY RF-SCORE:    0.00 PKD
ROOT
HETATM    1  C   UNL     1      -7.862   6.408  72.264  1.00  0.00    -0.102 C  
HETATM    2  S   UNL     1      -9.667   6.399  72.301  1.00  0.00    -0.148 SA 
ENDROOT
BRANCH   2   3
HETATM    3  C   UNL     1     -10.039   7.651  71.179  1.00  0.00    -0.184 A  
HETATM    4  N   UNL     1     -10.899   8.638  71.293  1.00  0.00    -0.242 NA 
HETATM    5  C   UNL     1     -10.863   9.278  70.073  1.00  0.00    -0.238 A  
HETATM    6  H   UNL     1     -11.467   8.878  72.105  1.00  0.00     0.000 HD 
HETATM    7  C   UNL     1      -9.968   8.652  69.214  1.00  0.00    -0.195 A  
HETATM    8  C   UNL     1      -9.805   9.018  67.879  1.00  0.00    -0.207 A  
HETATM    9  N   UNL     1      -9.409   7.661  69.972  1.00  0.00    -0.154 NA 
HETATM   10  C   UNL     1     -10.624  10.051  67.392  1.00  0.00    -0.271 A  
HETATM   11  C   UNL     1     -11.439  10.799  68.257  1.00  0.00    -0.280 A  
HETATM   12 CL   UNL     1     -10.642  10.211  65.666  1.00  0.00    -0.099 Cl 
HETATM   13  C   UNL     1     -11.584  10.386  69.601  1.00  0.00    -0.307 A  
BRANCH  11  14
HETATM   14  O   UNL     1     -12.255  11.869  67.946  1.00  0.00    -0.508 OA 
BRANCH  14  15
HETATM   15  C   UNL     1     -11.880  13.186  68.122  1.00  0.00    -0.348 A  
HETATM   16  C   UNL     1     -11.160  13.929  67.182  1.00  0.00    -0.312 A  
HETATM   17  C   UNL     1     -10.943  15.294  67.382  1.00  0.00    -0.321 A  
HETATM   18  C   UNL     1     -11.363  15.904  68.564  1.00  0.00    -0.374 A  
HETATM   19  C   UNL     1     -11.964  15.141  69.565  1.00  0.00    -0.321 A  
HETATM   20  C   UNL     1     -12.223  13.779  69.353  1.00  0.00    -0.278 A  
HETATM   21 CL   UNL     1     -12.371  15.948  71.041  1.00  0.00    -0.446 Cl 
HETATM   22 CL   UNL     1     -12.946  12.806  70.598  1.00  0.00     0.000 Cl 
ENDBRANCH  14  15
ENDBRANCH  11  14
ENDBRANCH   2   3
TORSDOF 3
ENDMDL
MODEL      159
REMARK 921   NORMALIZED FREE ENERGY PREDICTED BY IDOCK:   -3.99 KCAL/MOL
REMARK 922        TOTAL FREE ENERGY PREDICTED BY IDOCK:   -5.26 KCAL/MOL
REMARK 923 INTER-LIGAND FREE ENERGY PREDICTED BY IDOCK:   -5.19 KCAL/MOL
REMARK 924 INTRA-LIGAND FREE ENERGY PREDICTED BY IDOCK:   -0.06 KCAL/MOL
REMARK 927      BINDING AFFINITY PREDICTED BY RF-SCORE:    0.00 PKD
ROOT
HETATM    1  C   UNL     1      -5.638  16.068  70.400  1.00  0.00    -0.143 C  
HETATM    2  S   UNL     1      -6.244  17.088  69.040  1.00  0.00    -0.202 SA 
ENDROOT
BRANCH   2   3
HETATM    3  C   UNL     1      -7.654  16.224  68.564  1.00  0.00    -0.179 A  
HETATM    4  N   UNL     1      -8.015  14.996  68.860  1.00  0.00    -0.158 NA 
HETATM    5  C   UNL     1      -9.171  14.785  68.141  1.00  0.00    -0.195 A  
HETATM    6  H   UNL     1      -7.543  14.342  69.485  1.00  0.00     0.000 HD 
HETATM    7  C   UNL     1      -9.500  15.911  67.395  1.00  0.00    -0.219 A  
HETATM    8  C   UNL     1     -10.560  15.947  66.491  1.00  0.00    -0.297 A  
HETATM    9  N   UNL     1      -8.552  16.834  67.741  1.00  0.00    -0.196 NA 
HETATM   10  C   UNL     1     -11.295  14.762  66.316  1.00  0.00    -0.334 A  
HETATM   11  C   UNL     1     -11.084  13.649  67.145  1.00  0.00    -0.297 A  
HETATM   12 CL   UNL     1     -12.344  14.756  64.936  1.00  0.00    -0.317 Cl 
HETATM   13  C   UNL     1      -9.991  13.650  68.041  1.00  0.00    -0.247 A  
BRANCH  11  14
HETATM   14  O   UNL     1     -11.754  12.441  67.136  1.00  0.00    -0.366 OA 
BRANCH  14  15
HETATM   15  C   UNL     1     -11.114  11.219  67.083  1.00  0.00    -0.301 A  
HETATM   16  C   UNL     1     -10.989  10.350  68.171  1.00  0.00    -0.334 A  
HETATM   17  C   UNL     1     -10.448   9.075  67.994  1.00  0.00    -0.270 A  
HETATM   18  C   UNL     1      -9.945   8.695  66.750  1.00  0.00    -0.343 A  
HETATM   19  C   UNL     1      -9.945   9.604  65.691  1.00  0.00    -0.251 A  
HETATM   20  C   UNL     1     -10.525  10.871  65.851  1.00  0.00    -0.221 A  
HETATM   21 CL   UNL     1      -9.217   9.093  64.207  1.00  0.00    -0.001 Cl 
HETATM   22 CL   UNL     1     -10.509  12.026  64.554  1.00  0.00    -0.319 Cl 
ENDBRANCH  14  15
ENDBRANCH  11  14
ENDBRANCH   2   3
TORSDOF 3
ENDMDL
MODEL      160
REMARK 921   NORMALIZED FREE ENERGY PREDICTED BY IDOCK:   -3.97 KCAL/MOL
REMARK 922        TOTAL FREE ENERGY PREDICTED BY IDOCK:   -5.23 KCAL/MOL
REMARK 923 INTER-LIGAND FREE ENERGY PREDICTED BY IDOCK:   -4.75 KCAL/MOL
REMARK 924 INTRA-LIGAND FREE ENERGY PREDICTED BY IDOCK:   -0.47 KCAL/MOL
REMARK 927      BINDING AFFINITY PREDICTED BY RF-SCORE:    0.00 PKD
ROOT
HETATM    1  C   UNL     1     -13.337   9.538  71.966  1.00  0.00    -0.452 C  
HETATM    2  S   UNL     1     -12.673  11.209  71.806  1.00  0.00    -0.188 SA 
ENDROOT
BRANCH   2   3
HETATM    3  C   UNL     1     -11.902  11.126  70.269  1.00  0.00    -0.366 A  
HETATM    4  N   UNL     1     -10.727  10.627  69.955  1.00  0.00    -0.448 NA 
HETATM    5  C   UNL     1     -10.570  10.911  68.616  1.00  0.00    -0.195 A  
HETATM    6  H   UNL     1     -10.075  10.137  70.568  1.00  0.00     0.000 HD 
HETATM    7  C   UNL     1     -11.674  11.600  68.125  1.00  0.00    -0.295 A  
HETATM    8  C   UNL     1     -11.743  12.109  66.830  1.00  0.00    -0.377 A  
HETATM    9  N   UNL     1     -12.533  11.660  69.187  1.00  0.00    -0.148 NA 
HETATM   10  C   UNL     1     -10.615  11.936  66.011  1.00  0.00    -0.265 A  
HETATM   11  C   UNL     1      -9.540  11.131  66.418  1.00  0.00    -0.200 A  
HETATM   12 CL   UNL     1     -10.614  12.893  64.565  1.00  0.00    -0.374 Cl 
HETATM   13  C   UNL     1      -9.503  10.643  67.744  1.00  0.00    -0.165 A  
BRANCH  11  14
HETATM   14  O   UNL     1      -8.393  10.821  65.714  1.00  0.00    -0.164 OA 
BRANCH  14  15
HETATM   15  C   UNL     1      -8.361   9.908  64.679  1.00  0.00    -0.163 A  
HETATM   16  C   UNL     1      -9.009  10.088  63.453  1.00  0.00    -0.277 A  
HETATM   17  C   UNL     1      -8.810   9.179  62.412  1.00  0.00    -0.212 A  
HETATM   18  C   UNL     1      -8.037   8.037  62.619  1.00  0.00    -0.152 A  
HETATM   19  C   UNL     1      -7.495   7.782  63.879  1.00  0.00    -0.107 A  
HETATM   20  C   UNL     1      -7.656   8.712  64.916  1.00  0.00    -0.100 A  
HETATM   21 CL   UNL     1      -6.628   6.298  64.085  1.00  0.00    -0.033 Cl 
HETATM   22 CL   UNL     1      -7.012   8.399  66.499  1.00  0.00    -0.070 Cl 
ENDBRANCH  14  15
ENDBRANCH  11  14
ENDBRANCH   2   3
TORSDOF 3
ENDMDL
MODEL      161
REMARK 921   NORMALIZED FREE ENERGY PREDICTED BY IDOCK:   -3.95 KCAL/MOL
REMARK 922        TOTAL FREE ENERGY PREDICTED BY IDOCK:   -5.21 KCAL/MOL
REMARK 923 INTER-LIGAND FREE ENERGY PREDICTED BY IDOCK:   -4.64 KCAL/MOL
REMARK 924 INTRA-LIGAND FREE ENERGY PREDICTED BY IDOCK:   -0.57 KCAL/MOL
REMARK 927      BINDING AFFINITY PREDICTED BY RF-SCORE:    0.00 PKD
ROOT
HETATM    1  C   UNL     1      -8.860   3.909  74.146  1.00  0.00    -0.091 C  
HETATM    2  S   UNL     1     -10.285   3.382  73.172  1.00  0.00    -0.164 SA 
ENDROOT
BRANCH   2   3
HETATM    3  C   UNL     1     -10.577   4.779  72.209  1.00  0.00    -0.157 A  
HETATM    4  N   UNL     1     -10.042   5.121  71.058  1.00  0.00    -0.215 NA 
HETATM    5  C   UNL     1     -10.558   6.369  70.787  1.00  0.00    -0.238 A  
HETATM    6  H   UNL     1      -9.389   4.580  70.491  1.00  0.00     0.000 HD 
HETATM    7  C   UNL     1     -11.413   6.781  71.803  1.00  0.00    -0.281 A  
HETATM    8  C   UNL     1     -11.995   8.047  71.848  1.00  0.00    -0.359 A  
HETATM    9  N   UNL     1     -11.456   5.715  72.659  1.00  0.00    -0.306 NA 
HETATM   10  C   UNL     1     -11.656   8.945  70.821  1.00  0.00    -0.259 A  
HETATM   11  C   UNL     1     -10.910   8.527  69.709  1.00  0.00    -0.175 A  
HETATM   12 CL   UNL     1     -12.106  10.592  71.122  1.00  0.00    -0.455 Cl 
HETATM   13  C   UNL     1     -10.328   7.239  69.709  1.00  0.00    -0.227 A  
BRANCH  11  14
HETATM   14  O   UNL     1     -10.542   9.267  68.602  1.00  0.00    -0.215 OA 
BRANCH  14  15
HETATM   15  C   UNL     1      -9.633  10.304  68.650  1.00  0.00    -0.168 A  
HETATM   16  C   UNL     1      -8.386  10.225  69.277  1.00  0.00    -0.167 A  
HETATM   17  C   UNL     1      -7.472  11.274  69.159  1.00  0.00    -0.084 A  
HETATM   18  C   UNL     1      -7.833  12.445  68.492  1.00  0.00    -0.112 A  
HETATM   19  C   UNL     1      -9.122  12.584  67.978  1.00  0.00    -0.200 A  
HETATM   20  C   UNL     1     -10.030  11.518  68.057  1.00  0.00    -0.189 A  
HETATM   21 CL   UNL     1      -9.527  14.101  67.249  1.00  0.00    -0.222 Cl 
HETATM   22 CL   UNL     1     -11.649  11.682  67.447  1.00  0.00    -0.358 Cl 
ENDBRANCH  14  15
ENDBRANCH  11  14
ENDBRANCH   2   3
TORSDOF 3
ENDMDL
MODEL      162
REMARK 921   NORMALIZED FREE ENERGY PREDICTED BY IDOCK:   -3.89 KCAL/MOL
REMARK 922        TOTAL FREE ENERGY PREDICTED BY IDOCK:   -5.13 KCAL/MOL
REMARK 923 INTER-LIGAND FREE ENERGY PREDICTED BY IDOCK:   -4.60 KCAL/MOL
REMARK 924 INTRA-LIGAND FREE ENERGY PREDICTED BY IDOCK:   -0.53 KCAL/MOL
REMARK 927      BINDING AFFINITY PREDICTED BY RF-SCORE:    0.00 PKD
ROOT
HETATM    1  C   UNL     1      -6.816   4.787  71.203  1.00  0.00    -0.039 C  
HETATM    2  S   UNL     1      -7.153   6.095  72.401  1.00  0.00    -0.085 SA 
ENDROOT
BRANCH   2   3
HETATM    3  C   UNL     1      -7.802   7.328  71.391  1.00  0.00    -0.096 A  
HETATM    4  N   UNL     1      -8.915   7.329  70.693  1.00  0.00    -0.155 NA 
HETATM    5  C   UNL     1      -8.894   8.517  69.996  1.00  0.00    -0.141 A  
HETATM    6  H   UNL     1      -9.637   6.608  70.671  1.00  0.00     0.000 HD 
HETATM    7  C   UNL     1      -7.738   9.235  70.282  1.00  0.00    -0.129 A  
HETATM    8  C   UNL     1      -7.398  10.425  69.640  1.00  0.00    -0.156 A  
HETATM    9  N   UNL     1      -7.097   8.481  71.226  1.00  0.00    -0.070 NA 
HETATM   10  C   UNL     1      -8.266  10.882  68.634  1.00  0.00    -0.146 A  
HETATM   11  C   UNL     1      -9.506  10.264  68.411  1.00  0.00    -0.146 A  
HETATM   12 CL   UNL     1      -7.617  12.141  67.634  1.00  0.00    -0.129 Cl 
HETATM   13  C   UNL     1      -9.807   9.053  69.074  1.00  0.00    -0.178 A  
BRANCH  11  14
HETATM   14  O   UNL     1     -10.485  10.622  67.504  1.00  0.00    -0.201 OA 
BRANCH  14  15
HETATM   15  C   UNL     1     -11.086  11.864  67.486  1.00  0.00    -0.273 A  
HETATM   16  C   UNL     1     -11.540  12.533  68.626  1.00  0.00    -0.357 A  
HETATM   17  C   UNL     1     -12.010  13.844  68.533  1.00  0.00    -0.394 A  
HETATM   18  C   UNL     1     -12.115  14.462  67.287  1.00  0.00    -0.358 A  
HETATM   19  C   UNL     1     -11.789  13.755  66.129  1.00  0.00    -0.398 A  
HETATM   20  C   UNL     1     -11.277  12.453  66.220  1.00  0.00    -0.317 A  
HETATM   21 CL   UNL     1     -12.037  14.555  64.614  1.00  0.00    -0.468 Cl 
HETATM   22 CL   UNL     1     -10.891  11.547  64.789  1.00  0.00    -0.367 Cl 
ENDBRANCH  14  15
ENDBRANCH  11  14
ENDBRANCH   2   3
TORSDOF 3
ENDMDL
MODEL      163
REMARK 921   NORMALIZED FREE ENERGY PREDICTED BY IDOCK:   -3.88 KCAL/MOL
REMARK 922        TOTAL FREE ENERGY PREDICTED BY IDOCK:   -5.12 KCAL/MOL
REMARK 923 INTER-LIGAND FREE ENERGY PREDICTED BY IDOCK:   -4.92 KCAL/MOL
REMARK 924 INTRA-LIGAND FREE ENERGY PREDICTED BY IDOCK:   -0.20 KCAL/MOL
REMARK 927      BINDING AFFINITY PREDICTED BY RF-SCORE:    0.00 PKD
ROOT
HETATM    1  C   UNL     1     -14.402   8.341  71.295  1.00  0.00    -0.258 C  
HETATM    2  S   UNL     1     -12.998   8.938  72.259  1.00  0.00    -0.407 SA 
ENDROOT
BRANCH   2   3
HETATM    3  C   UNL     1     -11.801   9.133  71.038  1.00  0.00    -0.292 A  
HETATM    4  N   UNL     1     -11.516  10.194  70.317  1.00  0.00    -0.285 NA 
HETATM    5  C   UNL     1     -10.548   9.770  69.433  1.00  0.00    -0.228 A  
HETATM    6  H   UNL     1     -11.921  11.127  70.395  1.00  0.00     0.000 HD 
HETATM    7  C   UNL     1     -10.257   8.424  69.629  1.00  0.00    -0.209 A  
HETATM    8  C   UNL     1      -9.394   7.701  68.807  1.00  0.00    -0.148 A  
HETATM    9  N   UNL     1     -11.023   8.067  70.704  1.00  0.00    -0.242 NA 
HETATM   10  C   UNL     1      -8.831   8.379  67.713  1.00  0.00    -0.137 A  
HETATM   11  C   UNL     1      -8.988   9.765  67.560  1.00  0.00    -0.131 A  
HETATM   12 CL   UNL     1      -8.074   7.354  66.537  1.00  0.00    -0.113 Cl 
HETATM   13  C   UNL     1      -9.881  10.459  68.407  1.00  0.00    -0.173 A  
BRANCH  11  14
HETATM   14  O   UNL     1      -8.459  10.579  66.577  1.00  0.00    -0.133 OA 
BRANCH  14  15
HETATM   15  C   UNL     1      -8.977  10.665  65.302  1.00  0.00    -0.190 A  
HETATM   16  C   UNL     1      -8.566   9.864  64.232  1.00  0.00    -0.199 A  
HETATM   17  C   UNL     1      -9.240   9.922  63.010  1.00  0.00    -0.284 A  
HETATM   18  C   UNL     1     -10.269  10.845  62.822  1.00  0.00     0.016 A  
HETATM   19  C   UNL     1     -10.597  11.739  63.841  1.00  0.00    -0.393 A  
HETATM   20  C   UNL     1      -9.953  11.657  65.084  1.00  0.00    -0.259 A  
HETATM   21 CL   UNL     1     -11.818  12.917  63.500  1.00  0.00    -0.587 Cl 
HETATM   22 CL   UNL     1     -10.329  12.779  66.356  1.00  0.00    -0.263 Cl 
ENDBRANCH  14  15
ENDBRANCH  11  14
ENDBRANCH   2   3
TORSDOF 3
ENDMDL
MODEL      164
REMARK 921   NORMALIZED FREE ENERGY PREDICTED BY IDOCK:   -3.87 KCAL/MOL
REMARK 922        TOTAL FREE ENERGY PREDICTED BY IDOCK:   -5.11 KCAL/MOL
REMARK 923 INTER-LIGAND FREE ENERGY PREDICTED BY IDOCK:   -4.59 KCAL/MOL
REMARK 924 INTRA-LIGAND FREE ENERGY PREDICTED BY IDOCK:   -0.51 KCAL/MOL
REMARK 927      BINDING AFFINITY PREDICTED BY RF-SCORE:    0.00 PKD
ROOT
HETATM    1  C   UNL     1     -12.389  12.444  63.387  1.00  0.00    -0.499 C  
HETATM    2  S   UNL     1     -11.350  13.554  64.360  1.00  0.00    -0.375 SA 
ENDROOT
BRANCH   2   3
HETATM    3  C   UNL     1     -10.732  12.485  65.559  1.00  0.00    -0.271 A  
HETATM    4  N   UNL     1     -10.192  12.766  66.723  1.00  0.00    -0.236 NA 
HETATM    5  C   UNL     1      -9.788  11.549  67.227  1.00  0.00    -0.190 A  
HETATM    6  H   UNL     1     -10.094  13.684  67.158  1.00  0.00     0.000 HD 
HETATM    7  C   UNL     1     -10.088  10.523  66.339  1.00  0.00    -0.228 A  
HETATM    8  C   UNL     1      -9.699   9.200  66.538  1.00  0.00    -0.306 A  
HETATM    9  N   UNL     1     -10.752  11.145  65.317  1.00  0.00    -0.241 NA 
HETATM   10  C   UNL     1      -8.935   8.922  67.684  1.00  0.00    -0.134 A  
HETATM   11  C   UNL     1      -8.727   9.897  68.672  1.00  0.00    -0.124 A  
HETATM   12 CL   UNL     1      -8.178   7.362  67.690  1.00  0.00    -0.117 Cl 
HETATM   13  C   UNL     1      -9.128  11.229  68.425  1.00  0.00    -0.170 A  
BRANCH  11  14
HETATM   14  O   UNL     1      -8.050   9.767  69.869  1.00  0.00    -0.148 OA 
BRANCH  14  15
HETATM   15  C   UNL     1      -8.580   9.135  70.976  1.00  0.00    -0.177 A  
HETATM   16  C   UNL     1      -9.915   9.242  71.376  1.00  0.00    -0.323 A  
HETATM   17  C   UNL     1     -10.399   8.460  72.427  1.00  0.00    -0.399 A  
HETATM   18  C   UNL     1      -9.530   7.636  73.143  1.00  0.00    -0.300 A  
HETATM   19  C   UNL     1      -8.169   7.624  72.835  1.00  0.00    -0.120 A  
HETATM   20  C   UNL     1      -7.686   8.374  71.754  1.00  0.00    -0.116 A  
HETATM   21 CL   UNL     1      -7.140   6.650  73.829  1.00  0.00    -0.080 Cl 
HETATM   22 CL   UNL     1      -5.991   8.394  71.373  1.00  0.00    -0.036 Cl 
ENDBRANCH  14  15
ENDBRANCH  11  14
ENDBRANCH   2   3
TORSDOF 3
ENDMDL
MODEL      165
REMARK 921   NORMALIZED FREE ENERGY PREDICTED BY IDOCK:   -3.86 KCAL/MOL
REMARK 922        TOTAL FREE ENERGY PREDICTED BY IDOCK:   -5.10 KCAL/MOL
REMARK 923 INTER-LIGAND FREE ENERGY PREDICTED BY IDOCK:   -5.47 KCAL/MOL
REMARK 924 INTRA-LIGAND FREE ENERGY PREDICTED BY IDOCK:    0.37 KCAL/MOL
REMARK 927      BINDING AFFINITY PREDICTED BY RF-SCORE:    0.00 PKD
ROOT
HETATM    1  C   UNL     1      -7.912   6.521  73.809  1.00  0.00    -0.100 C  
HETATM    2  S   UNL     1      -7.734   5.854  72.142  1.00  0.00    -0.102 SA 
ENDROOT
BRANCH   2   3
HETATM    3  C   UNL     1      -8.376   7.135  71.188  1.00  0.00    -0.113 A  
HETATM    4  N   UNL     1      -9.069   8.185  71.568  1.00  0.00    -0.146 NA 
HETATM    5  C   UNL     1      -9.408   8.826  70.396  1.00  0.00    -0.180 A  
HETATM    6  H   UNL     1      -9.304   8.465  72.520  1.00  0.00     0.000 HD 
HETATM    7  C   UNL     1      -8.911   8.136  69.295  1.00  0.00    -0.144 A  
HETATM    8  C   UNL     1      -9.190   8.495  67.978  1.00  0.00    -0.143 A  
HETATM    9  N   UNL     1      -8.200   7.102  69.839  1.00  0.00    -0.131 NA 
HETATM   10  C   UNL     1     -10.048   9.590  67.779  1.00  0.00    -0.198 A  
HETATM   11  C   UNL     1     -10.459  10.394  68.854  1.00  0.00    -0.212 A  
HETATM   12 CL   UNL     1     -10.646   9.758  66.160  1.00  0.00    -0.109 Cl 
HETATM   13  C   UNL     1     -10.164   9.988  70.175  1.00  0.00    -0.297 A  
BRANCH  11  14
HETATM   14  O   UNL     1     -11.251  11.525  68.818  1.00  0.00    -0.207 OA 
BRANCH  14  15
HETATM   15  C   UNL     1     -12.012  11.953  69.886  1.00  0.00    -0.325 A  
HETATM   16  C   UNL     1     -12.587  11.100  70.832  1.00  0.00    -0.483 A  
HETATM   17  C   UNL     1     -13.225  11.625  71.958  1.00  0.00    -0.443 A  
HETATM   18  C   UNL     1     -13.373  13.005  72.098  1.00  0.00    -0.622 A  
HETATM   19  C   UNL     1     -12.919  13.859  71.093  1.00  0.00    -0.318 A  
HETATM   20  C   UNL     1     -12.240  13.340  69.981  1.00  0.00    -0.275 A  
HETATM   21 CL   UNL     1     -13.223  15.552  71.292  1.00  0.00    -0.566 Cl 
HETATM   22 CL   UNL     1     -11.692  14.385  68.706  1.00  0.00    -0.353 Cl 
ENDBRANCH  14  15
ENDBRANCH  11  14
ENDBRANCH   2   3
TORSDOF 3
ENDMDL
MODEL      166
REMARK 921   NORMALIZED FREE ENERGY PREDICTED BY IDOCK:   -3.86 KCAL/MOL
REMARK 922        TOTAL FREE ENERGY PREDICTED BY IDOCK:   -5.09 KCAL/MOL
REMARK 923 INTER-LIGAND FREE ENERGY PREDICTED BY IDOCK:   -4.91 KCAL/MOL
REMARK 924 INTRA-LIGAND FREE ENERGY PREDICTED BY IDOCK:   -0.18 KCAL/MOL
REMARK 927      BINDING AFFINITY PREDICTED BY RF-SCORE:    0.00 PKD
ROOT
HETATM    1  C   UNL     1     -10.619   7.000  73.552  1.00  0.00    -0.368 C  
HETATM    2  S   UNL     1      -9.062   7.909  73.476  1.00  0.00    -0.265 SA 
ENDROOT
BRANCH   2   3
HETATM    3  C   UNL     1      -9.214   8.727  71.970  1.00  0.00    -0.224 A  
HETATM    4  N   UNL     1      -8.273   9.184  71.174  1.00  0.00    -0.303 NA 
HETATM    5  C   UNL     1      -8.949   9.832  70.164  1.00  0.00    -0.195 A  
HETATM    6  H   UNL     1      -7.263   9.081  71.281  1.00  0.00     0.000 HD 
HETATM    7  C   UNL     1     -10.323   9.765  70.368  1.00  0.00    -0.293 A  
HETATM    8  C   UNL     1     -11.249  10.425  69.563  1.00  0.00    -0.325 A  
HETATM    9  N   UNL     1     -10.460   8.995  71.490  1.00  0.00    -0.315 NA 
HETATM   10  C   UNL     1     -10.742  11.219  68.520  1.00  0.00    -0.201 A  
HETATM   11  C   UNL     1      -9.377  11.205  68.196  1.00  0.00    -0.176 A  
HETATM   12 CL   UNL     1     -11.898  12.290  67.796  1.00  0.00    -0.392 Cl 
HETATM   13  C   UNL     1      -8.470  10.533  69.046  1.00  0.00    -0.159 A  
BRANCH  11  14
HETATM   14  O   UNL     1      -8.736  11.882  67.176  1.00  0.00    -0.163 OA 
BRANCH  14  15
HETATM   15  C   UNL     1      -8.669  13.258  67.104  1.00  0.00    -0.212 A  
HETATM   16  C   UNL     1      -9.647  14.061  66.510  1.00  0.00    -0.307 A  
HETATM   17  C   UNL     1      -9.568  15.452  66.603  1.00  0.00    -0.276 A  
HETATM   18  C   UNL     1      -8.464  16.051  67.211  1.00  0.00    -0.206 A  
HETATM   19  C   UNL     1      -7.419  15.260  67.689  1.00  0.00    -0.176 A  
HETATM   20  C   UNL     1      -7.513  13.862  67.636  1.00  0.00    -0.176 A  
HETATM   21 CL   UNL     1      -6.040  16.077  68.342  1.00  0.00    -0.101 Cl 
HETATM   22 CL   UNL     1      -6.210  12.861  68.201  1.00  0.00    -0.081 Cl 
ENDBRANCH  14  15
ENDBRANCH  11  14
ENDBRANCH   2   3
TORSDOF 3
ENDMDL
MODEL      167
REMARK 921   NORMALIZED FREE ENERGY PREDICTED BY IDOCK:   -3.85 KCAL/MOL
REMARK 922        TOTAL FREE ENERGY PREDICTED BY IDOCK:   -5.08 KCAL/MOL
REMARK 923 INTER-LIGAND FREE ENERGY PREDICTED BY IDOCK:   -4.58 KCAL/MOL
REMARK 924 INTRA-LIGAND FREE ENERGY PREDICTED BY IDOCK:   -0.50 KCAL/MOL
REMARK 927      BINDING AFFINITY PREDICTED BY RF-SCORE:    0.00 PKD
ROOT
HETATM    1  C   UNL     1     -10.386   7.600  67.872  1.00  0.00    -0.212 C  
HETATM    2  S   UNL     1      -9.463   8.115  66.409  1.00  0.00    -0.202 SA 
ENDROOT
BRANCH   2   3
HETATM    3  C   UNL     1      -9.375   9.818  66.640  1.00  0.00    -0.158 A  
HETATM    4  N   UNL     1      -9.852  10.784  65.887  1.00  0.00    -0.227 NA 
HETATM    5  C   UNL     1      -9.414  11.946  66.484  1.00  0.00    -0.217 A  
HETATM    6  H   UNL     1     -10.421  10.693  65.046  1.00  0.00     0.000 HD 
HETATM    7  C   UNL     1      -8.654  11.663  67.614  1.00  0.00    -0.142 A  
HETATM    8  C   UNL     1      -7.993  12.641  68.356  1.00  0.00    -0.134 A  
HETATM    9  N   UNL     1      -8.706  10.301  67.724  1.00  0.00    -0.122 NA 
HETATM   10  C   UNL     1      -8.086  13.966  67.898  1.00  0.00    -0.158 A  
HETATM   11  C   UNL     1      -8.951  14.311  66.848  1.00  0.00    -0.236 A  
HETATM   12 CL   UNL     1      -6.964  15.067  68.629  1.00  0.00    -0.106 Cl 
HETATM   13  C   UNL     1      -9.593  13.288  66.114  1.00  0.00    -0.211 A  
BRANCH  11  14
HETATM   14  O   UNL     1      -9.194  15.565  66.321  1.00  0.00    -0.279 OA 
BRANCH  14  15
HETATM   15  C   UNL     1      -9.407  16.686  67.097  1.00  0.00    -0.228 A  
HETATM   16  C   UNL     1     -10.482  16.838  67.978  1.00  0.00    -0.333 A  
HETATM   17  C   UNL     1     -10.546  17.945  68.826  1.00  0.00    -0.090 A  
HETATM   18  C   UNL     1      -9.586  18.953  68.733  1.00  0.00    -0.433 A  
HETATM   19  C   UNL     1      -8.584  18.874  67.766  1.00  0.00    -0.292 A  
HETATM   20  C   UNL     1      -8.490  17.744  66.941  1.00  0.00    -0.243 A  
HETATM   21 CL   UNL     1      -7.487  20.207  67.649  1.00  0.00    -0.331 Cl 
HETATM   22 CL   UNL     1      -7.267  17.640  65.712  1.00  0.00    -0.226 Cl 
ENDBRANCH  14  15
ENDBRANCH  11  14
ENDBRANCH   2   3
TORSDOF 3
ENDMDL
MODEL      168
REMARK 921   NORMALIZED FREE ENERGY PREDICTED BY IDOCK:   -3.83 KCAL/MOL
REMARK 922        TOTAL FREE ENERGY PREDICTED BY IDOCK:   -5.07 KCAL/MOL
REMARK 923 INTER-LIGAND FREE ENERGY PREDICTED BY IDOCK:   -4.62 KCAL/MOL
REMARK 924 INTRA-LIGAND FREE ENERGY PREDICTED BY IDOCK:   -0.44 KCAL/MOL
REMARK 927      BINDING AFFINITY PREDICTED BY RF-SCORE:    0.00 PKD
ROOT
HETATM    1  C   UNL     1      -7.787   4.360  69.853  1.00  0.00    -0.053 C  
HETATM    2  S   UNL     1      -9.272   4.163  68.846  1.00  0.00    -0.159 SA 
ENDROOT
BRANCH   2   3
HETATM    3  C   UNL     1      -9.595   5.790  68.388  1.00  0.00    -0.125 A  
HETATM    4  N   UNL     1     -10.407   6.663  68.942  1.00  0.00    -0.180 NA 
HETATM    5  C   UNL     1     -10.352   7.767  68.119  1.00  0.00    -0.200 A  
HETATM    6  H   UNL     1     -10.956   6.549  69.794  1.00  0.00     0.000 HD 
HETATM    7  C   UNL     1      -9.494   7.541  67.049  1.00  0.00    -0.162 A  
HETATM    8  C   UNL     1      -9.326   8.444  66.000  1.00  0.00    -0.244 A  
HETATM    9  N   UNL     1      -8.976   6.298  67.287  1.00  0.00    -0.114 NA 
HETATM   10  C   UNL     1     -10.100   9.616  66.032  1.00  0.00    -0.248 A  
HETATM   11  C   UNL     1     -10.871   9.945  67.157  1.00  0.00    -0.157 A  
HETATM   12 CL   UNL     1     -10.125  10.510  64.546  1.00  0.00    -0.414 Cl 
HETATM   13  C   UNL     1     -11.024   8.997  68.194  1.00  0.00     0.015 A  
BRANCH  11  14
HETATM   14  O   UNL     1     -11.639  11.075  67.364  1.00  0.00    -0.525 OA 
BRANCH  14  15
HETATM   15  C   UNL     1     -11.103  12.313  67.657  1.00  0.00    -0.268 A  
HETATM   16  C   UNL     1     -10.236  13.013  66.813  1.00  0.00    -0.246 A  
HETATM   17  C   UNL     1      -9.852  14.319  67.126  1.00  0.00    -0.252 A  
HETATM   18  C   UNL     1     -10.258  14.899  68.328  1.00  0.00    -0.225 A  
HETATM   19  C   UNL     1     -11.015  14.159  69.237  1.00  0.00    -0.220 A  
HETATM   20  C   UNL     1     -11.439  12.863  68.910  1.00  0.00    -0.304 A  
HETATM   21 CL   UNL     1     -11.400  14.912  70.747  1.00  0.00    -0.293 Cl 
HETATM   22 CL   UNL     1     -12.358  11.917  70.040  1.00  0.00    -0.249 Cl 
ENDBRANCH  14  15
ENDBRANCH  11  14
ENDBRANCH   2   3
TORSDOF 3
ENDMDL
MODEL      169
REMARK 921   NORMALIZED FREE ENERGY PREDICTED BY IDOCK:   -3.82 KCAL/MOL
REMARK 922        TOTAL FREE ENERGY PREDICTED BY IDOCK:   -5.05 KCAL/MOL
REMARK 923 INTER-LIGAND FREE ENERGY PREDICTED BY IDOCK:   -5.06 KCAL/MOL
REMARK 924 INTRA-LIGAND FREE ENERGY PREDICTED BY IDOCK:    0.01 KCAL/MOL
REMARK 927      BINDING AFFINITY PREDICTED BY RF-SCORE:    0.00 PKD
ROOT
HETATM    1  C   UNL     1     -13.499  14.622  72.619  1.00  0.00    -0.483 C  
HETATM    2  S   UNL     1     -12.809  15.644  71.301  1.00  0.00    -0.442 SA 
ENDROOT
BRANCH   2   3
HETATM    3  C   UNL     1     -12.336  14.453  70.153  1.00  0.00    -0.348 A  
HETATM    4  N   UNL     1     -11.938  13.217  70.355  1.00  0.00    -0.511 NA 
HETATM    5  C   UNL     1     -11.593  12.749  69.106  1.00  0.00    -0.319 A  
HETATM    6  H   UNL     1     -11.895  12.714  71.242  1.00  0.00     0.000 HD 
HETATM    7  C   UNL     1     -11.784  13.731  68.141  1.00  0.00    -0.357 A  
HETATM    8  C   UNL     1     -11.418  13.574  66.806  1.00  0.00    -0.374 A  
HETATM    9  N   UNL     1     -12.323  14.782  68.832  1.00  0.00    -0.096 NA 
HETATM   10  C   UNL     1     -10.794  12.366  66.450  1.00  0.00    -0.258 A  
HETATM   11  C   UNL     1     -10.708  11.299  67.358  1.00  0.00    -0.242 A  
HETATM   12 CL   UNL     1     -10.040  12.372  64.889  1.00  0.00    -0.279 Cl 
HETATM   13  C   UNL     1     -11.080  11.505  68.705  1.00  0.00    -0.288 A  
BRANCH  11  14
HETATM   14  O   UNL     1     -10.178  10.041  67.146  1.00  0.00    -0.203 OA 
BRANCH  14  15
HETATM   15  C   UNL     1      -9.212   9.774  66.198  1.00  0.00    -0.176 A  
HETATM   16  C   UNL     1      -9.485   9.297  64.912  1.00  0.00    -0.051 A  
HETATM   17  C   UNL     1      -8.460   9.186  63.971  1.00  0.00    -0.195 A  
HETATM   18  C   UNL     1      -7.142   9.463  64.336  1.00  0.00    -0.101 A  
HETATM   19  C   UNL     1      -6.843   9.812  65.653  1.00  0.00    -0.096 A  
HETATM   20  C   UNL     1      -7.873   9.966  66.592  1.00  0.00    -0.110 A  
HETATM   21 CL   UNL     1      -5.175  10.046  66.052  1.00  0.00    -0.042 Cl 
HETATM   22 CL   UNL     1      -7.518  10.373  68.243  1.00  0.00    -0.088 Cl 
ENDBRANCH  14  15
ENDBRANCH  11  14
ENDBRANCH   2   3
TORSDOF 3
ENDMDL
MODEL      170
REMARK 921   NORMALIZED FREE ENERGY PREDICTED BY IDOCK:   -3.82 KCAL/MOL
REMARK 922        TOTAL FREE ENERGY PREDICTED BY IDOCK:   -5.05 KCAL/MOL
REMARK 923 INTER-LIGAND FREE ENERGY PREDICTED BY IDOCK:   -4.48 KCAL/MOL
REMARK 924 INTRA-LIGAND FREE ENERGY PREDICTED BY IDOCK:   -0.56 KCAL/MOL
REMARK 927      BINDING AFFINITY PREDICTED BY RF-SCORE:    0.00 PKD
ROOT
HETATM    1  C   UNL     1      -8.195   4.298  62.977  1.00  0.00    -0.086 C  
HETATM    2  S   UNL     1      -7.091   4.890  64.277  1.00  0.00    -0.051 SA 
ENDROOT
BRANCH   2   3
HETATM    3  C   UNL     1      -7.682   6.487  64.529  1.00  0.00    -0.108 A  
HETATM    4  N   UNL     1      -8.090   7.055  65.641  1.00  0.00    -0.123 NA 
HETATM    5  C   UNL     1      -8.545   8.297  65.256  1.00  0.00    -0.132 A  
HETATM    6  H   UNL     1      -8.073   6.663  66.583  1.00  0.00     0.000 HD 
HETATM    7  C   UNL     1      -8.410   8.468  63.882  1.00  0.00    -0.087 A  
HETATM    8  C   UNL     1      -8.887   9.585  63.199  1.00  0.00    -0.239 A  
HETATM    9  N   UNL     1      -7.794   7.322  63.459  1.00  0.00    -0.124 NA 
HETATM   10  C   UNL     1      -9.564  10.558  63.954  1.00  0.00    -0.309 A  
HETATM   11  C   UNL     1      -9.601  10.492  65.356  1.00  0.00    -0.237 A  
HETATM   12 CL   UNL     1     -10.442  11.722  63.017  1.00  0.00    -0.312 Cl 
HETATM   13  C   UNL     1      -9.117   9.335  66.008  1.00  0.00    -0.235 A  
BRANCH  11  14
HETATM   14  O   UNL     1     -10.175  11.389  66.236  1.00  0.00    -0.219 OA 
BRANCH  14  15
HETATM   15  C   UNL     1      -9.628  12.621  66.528  1.00  0.00    -0.248 A  
HETATM   16  C   UNL     1      -8.432  12.804  67.229  1.00  0.00    -0.194 A  
HETATM   17  C   UNL     1      -7.881  14.080  67.360  1.00  0.00    -0.188 A  
HETATM   18  C   UNL     1      -8.568  15.192  66.872  1.00  0.00    -0.289 A  
HETATM   19  C   UNL     1      -9.826  15.033  66.290  1.00  0.00    -0.285 A  
HETATM   20  C   UNL     1     -10.365  13.750  66.118  1.00  0.00    -0.301 A  
HETATM   21 CL   UNL     1     -10.658  16.468  65.796  1.00  0.00    -0.340 Cl 
HETATM   22 CL   UNL     1     -11.941  13.534  65.419  1.00  0.00    -0.378 Cl 
ENDBRANCH  14  15
ENDBRANCH  11  14
ENDBRANCH   2   3
TORSDOF 3
ENDMDL
MODEL      171
REMARK 921   NORMALIZED FREE ENERGY PREDICTED BY IDOCK:   -3.82 KCAL/MOL
REMARK 922        TOTAL FREE ENERGY PREDICTED BY IDOCK:   -5.05 KCAL/MOL
REMARK 923 INTER-LIGAND FREE ENERGY PREDICTED BY IDOCK:   -4.87 KCAL/MOL
REMARK 924 INTRA-LIGAND FREE ENERGY PREDICTED BY IDOCK:   -0.18 KCAL/MOL
REMARK 927      BINDING AFFINITY PREDICTED BY RF-SCORE:    0.00 PKD
ROOT
HETATM    1  C   UNL     1      -9.070   3.834  74.508  1.00  0.00    -0.089 C  
HETATM    2  S   UNL     1     -10.223   3.381  73.196  1.00  0.00    -0.164 SA 
ENDROOT
BRANCH   2   3
HETATM    3  C   UNL     1     -10.009   4.679  72.086  1.00  0.00    -0.181 A  
HETATM    4  N   UNL     1      -9.772   5.949  72.329  1.00  0.00    -0.160 NA 
HETATM    5  C   UNL     1      -9.789   6.554  71.091  1.00  0.00    -0.182 A  
HETATM    6  H   UNL     1      -9.611   6.389  73.235  1.00  0.00     0.000 HD 
HETATM    7  C   UNL     1     -10.049   5.623  70.091  1.00  0.00    -0.227 A  
HETATM    8  C   UNL     1     -10.230   5.969  68.753  1.00  0.00    -0.236 A  
HETATM    9  N   UNL     1     -10.116   4.428  70.752  1.00  0.00    -0.178 NA 
HETATM   10  C   UNL     1     -10.177   7.335  68.431  1.00  0.00    -0.180 A  
HETATM   11  C   UNL     1      -9.782   8.290  69.381  1.00  0.00    -0.177 A  
HETATM   12 CL   UNL     1     -10.765   7.730  66.848  1.00  0.00    -0.368 Cl 
HETATM   13  C   UNL     1      -9.620   7.900  70.729  1.00  0.00    -0.171 A  
BRANCH  11  14
HETATM   14  O   UNL     1      -9.631   9.652  69.208  1.00  0.00    -0.167 OA 
BRANCH  14  15
HETATM   15  C   UNL     1     -10.604  10.572  69.542  1.00  0.00    -0.246 A  
HETATM   16  C   UNL     1     -11.613  10.341  70.482  1.00  0.00    -0.424 A  
HETATM   17  C   UNL     1     -12.472  11.375  70.860  1.00  0.00    -0.478 A  
HETATM   18  C   UNL     1     -12.387  12.619  70.235  1.00  0.00    -0.269 A  
HETATM   19  C   UNL     1     -11.470  12.819  69.203  1.00  0.00    -0.306 A  
HETATM   20  C   UNL     1     -10.577  11.798  68.848  1.00  0.00    -0.180 A  
HETATM   21 CL   UNL     1     -11.489  14.358  68.412  1.00  0.00    -0.309 Cl 
HETATM   22 CL   UNL     1      -9.447  12.018  67.547  1.00  0.00    -0.175 Cl 
ENDBRANCH  14  15
ENDBRANCH  11  14
ENDBRANCH   2   3
TORSDOF 3
ENDMDL
MODEL      172
REMARK 921   NORMALIZED FREE ENERGY PREDICTED BY IDOCK:   -3.81 KCAL/MOL
REMARK 922        TOTAL FREE ENERGY PREDICTED BY IDOCK:   -5.04 KCAL/MOL
REMARK 923 INTER-LIGAND FREE ENERGY PREDICTED BY IDOCK:   -4.61 KCAL/MOL
REMARK 924 INTRA-LIGAND FREE ENERGY PREDICTED BY IDOCK:   -0.43 KCAL/MOL
REMARK 927      BINDING AFFINITY PREDICTED BY RF-SCORE:    0.00 PKD
ROOT
HETATM    1  C   UNL     1      -6.965  20.364  66.999  1.00  0.00    -0.276 C  
HETATM    2  S   UNL     1      -6.618  19.271  65.605  1.00  0.00    -0.269 SA 
ENDROOT
BRANCH   2   3
HETATM    3  C   UNL     1      -7.224  17.768  66.187  1.00  0.00    -0.311 A  
HETATM    4  N   UNL     1      -6.618  16.854  66.911  1.00  0.00    -0.196 NA 
HETATM    5  C   UNL     1      -7.526  15.821  67.005  1.00  0.00    -0.207 A  
HETATM    6  H   UNL     1      -5.683  16.898  67.314  1.00  0.00     0.000 HD 
HETATM    7  C   UNL     1      -8.695  16.128  66.316  1.00  0.00    -0.337 A  
HETATM    8  C   UNL     1      -9.744  15.226  66.151  1.00  0.00    -0.343 A  
HETATM    9  N   UNL     1      -8.495  17.403  65.865  1.00  0.00    -0.541 NA 
HETATM   10  C   UNL     1      -9.574  13.938  66.686  1.00  0.00    -0.289 A  
HETATM   11  C   UNL     1      -8.475  13.632  67.504  1.00  0.00    -0.189 A  
HETATM   12 CL   UNL     1     -10.730  12.767  66.141  1.00  0.00    -0.290 Cl 
HETATM   13  C   UNL     1      -7.427  14.571  67.636  1.00  0.00    -0.195 A  
BRANCH  11  14
HETATM   14  O   UNL     1      -8.194  12.440  68.143  1.00  0.00    -0.157 OA 
BRANCH  14  15
HETATM   15  C   UNL     1      -8.070  11.235  67.482  1.00  0.00    -0.124 A  
HETATM   16  C   UNL     1      -7.498  11.090  66.215  1.00  0.00    -0.105 A  
HETATM   17  C   UNL     1      -7.287   9.818  65.679  1.00  0.00    -0.106 A  
HETATM   18  C   UNL     1      -7.731   8.688  66.366  1.00  0.00    -0.095 A  
HETATM   19  C   UNL     1      -8.421   8.831  67.570  1.00  0.00    -0.120 A  
HETATM   20  C   UNL     1      -8.598  10.103  68.133  1.00  0.00    -0.118 A  
HETATM   21 CL   UNL     1      -9.023   7.389  68.315  1.00  0.00    -0.130 Cl 
HETATM   22 CL   UNL     1      -9.478  10.303  69.617  1.00  0.00    -0.214 Cl 
ENDBRANCH  14  15
ENDBRANCH  11  14
ENDBRANCH   2   3
TORSDOF 3
ENDMDL
MODEL      173
REMARK 921   NORMALIZED FREE ENERGY PREDICTED BY IDOCK:   -3.80 KCAL/MOL
REMARK 922        TOTAL FREE ENERGY PREDICTED BY IDOCK:   -5.03 KCAL/MOL
REMARK 923 INTER-LIGAND FREE ENERGY PREDICTED BY IDOCK:   -4.91 KCAL/MOL
REMARK 924 INTRA-LIGAND FREE ENERGY PREDICTED BY IDOCK:   -0.12 KCAL/MOL
REMARK 927      BINDING AFFINITY PREDICTED BY RF-SCORE:    0.00 PKD
ROOT
HETATM    1  C   UNL     1     -12.401   7.227  71.381  1.00  0.00    -0.368 C  
HETATM    2  S   UNL     1     -10.620   7.038  71.163  1.00  0.00    -0.218 SA 
ENDROOT
BRANCH   2   3
HETATM    3  C   UNL     1     -10.291   8.229  69.965  1.00  0.00    -0.212 A  
HETATM    4  N   UNL     1     -10.101   9.521  70.110  1.00  0.00    -0.231 NA 
HETATM    5  C   UNL     1      -9.977  10.005  68.825  1.00  0.00    -0.172 A  
HETATM    6  H   UNL     1     -10.054  10.050  70.981  1.00  0.00     0.000 HD 
HETATM    7  C   UNL     1     -10.105   8.977  67.897  1.00  0.00    -0.197 A  
HETATM    8  C   UNL     1     -10.129   9.189  66.520  1.00  0.00    -0.357 A  
HETATM    9  N   UNL     1     -10.235   7.849  68.659  1.00  0.00    -0.202 NA 
HETATM   10  C   UNL     1     -10.056  10.520  66.074  1.00  0.00    -0.256 A  
HETATM   11  C   UNL     1      -9.789  11.570  66.966  1.00  0.00    -0.192 A  
HETATM   12 CL   UNL     1     -10.457  10.748  64.403  1.00  0.00    -0.413 Cl 
HETATM   13  C   UNL     1      -9.784  11.314  68.356  1.00  0.00    -0.194 A  
BRANCH  11  14
HETATM   14  O   UNL     1      -9.635  12.913  66.681  1.00  0.00    -0.245 OA 
BRANCH  14  15
HETATM   15  C   UNL     1      -9.362  13.867  67.640  1.00  0.00    -0.205 A  
HETATM   16  C   UNL     1      -8.078  14.168  68.103  1.00  0.00    -0.148 A  
HETATM   17  C   UNL     1      -7.879  15.242  68.973  1.00  0.00    -0.184 A  
HETATM   18  C   UNL     1      -8.971  15.963  69.457  1.00  0.00    -0.135 A  
HETATM   19  C   UNL     1     -10.266  15.585  69.103  1.00  0.00    -0.240 A  
HETATM   20  C   UNL     1     -10.470  14.534  68.197  1.00  0.00    -0.239 A  
HETATM   21 CL   UNL     1     -11.573  16.466  69.819  1.00  0.00    -0.118 Cl 
HETATM   22 CL   UNL     1     -12.076  14.031  67.766  1.00  0.00    -0.383 Cl 
ENDBRANCH  14  15
ENDBRANCH  11  14
ENDBRANCH   2   3
TORSDOF 3
ENDMDL
MODEL      174
REMARK 921   NORMALIZED FREE ENERGY PREDICTED BY IDOCK:   -3.79 KCAL/MOL
REMARK 922        TOTAL FREE ENERGY PREDICTED BY IDOCK:   -5.02 KCAL/MOL
REMARK 923 INTER-LIGAND FREE ENERGY PREDICTED BY IDOCK:   -4.83 KCAL/MOL
REMARK 924 INTRA-LIGAND FREE ENERGY PREDICTED BY IDOCK:   -0.18 KCAL/MOL
REMARK 927      BINDING AFFINITY PREDICTED BY RF-SCORE:    0.00 PKD
ROOT
HETATM    1  C   UNL     1     -12.396  13.227  63.582  1.00  0.00    -0.382 C  
HETATM    2  S   UNL     1     -12.075  14.019  65.172  1.00  0.00    -0.434 SA 
ENDROOT
BRANCH   2   3
HETATM    3  C   UNL     1     -11.093  12.840  65.952  1.00  0.00    -0.287 A  
HETATM    4  N   UNL     1     -11.440  11.687  66.478  1.00  0.00    -0.447 NA 
HETATM    5  C   UNL     1     -10.286  11.199  67.050  1.00  0.00    -0.215 A  
HETATM    6  H   UNL     1     -12.362  11.250  66.466  1.00  0.00     0.000 HD 
HETATM    7  C   UNL     1      -9.230  12.085  66.864  1.00  0.00    -0.197 A  
HETATM    8  C   UNL     1      -7.969  11.901  67.427  1.00  0.00    -0.162 A  
HETATM    9  N   UNL     1      -9.763  13.088  66.101  1.00  0.00    -0.272 NA 
HETATM   10  C   UNL     1      -7.791  10.774  68.248  1.00  0.00    -0.115 A  
HETATM   11  C   UNL     1      -8.783   9.787  68.350  1.00  0.00    -0.120 A  
HETATM   12 CL   UNL     1      -6.343  10.794  69.201  1.00  0.00    -0.051 Cl 
HETATM   13  C   UNL     1     -10.052  10.018  67.773  1.00  0.00    -0.222 A  
BRANCH  11  14
HETATM   14  O   UNL     1      -8.740   8.607  69.066  1.00  0.00    -0.131 OA 
BRANCH  14  15
HETATM   15  C   UNL     1      -9.316   8.453  70.310  1.00  0.00    -0.164 A  
HETATM   16  C   UNL     1     -10.226   9.354  70.871  1.00  0.00    -0.373 A  
HETATM   17  C   UNL     1     -10.865   9.051  72.075  1.00  0.00    -0.342 A  
HETATM   18  C   UNL     1     -10.530   7.890  72.772  1.00  0.00    -0.412 A  
HETATM   19  C   UNL     1      -9.527   7.051  72.286  1.00  0.00    -0.139 A  
HETATM   20  C   UNL     1      -8.912   7.328  71.057  1.00  0.00    -0.149 A  
HETATM   21 CL   UNL     1      -9.100   5.681  73.254  1.00  0.00    -0.130 Cl 
HETATM   22 CL   UNL     1      -7.641   6.311  70.448  1.00  0.00    -0.094 Cl 
ENDBRANCH  14  15
ENDBRANCH  11  14
ENDBRANCH   2   3
TORSDOF 3
ENDMDL
MODEL      175
REMARK 921   NORMALIZED FREE ENERGY PREDICTED BY IDOCK:   -3.78 KCAL/MOL
REMARK 922        TOTAL FREE ENERGY PREDICTED BY IDOCK:   -5.00 KCAL/MOL
REMARK 923 INTER-LIGAND FREE ENERGY PREDICTED BY IDOCK:   -4.54 KCAL/MOL
REMARK 924 INTRA-LIGAND FREE ENERGY PREDICTED BY IDOCK:   -0.46 KCAL/MOL
REMARK 927      BINDING AFFINITY PREDICTED BY RF-SCORE:    0.00 PKD
ROOT
HETATM    1  C   UNL     1      -6.585   6.940  63.521  1.00  0.00    -0.043 C  
HETATM    2  S   UNL     1      -8.071   7.896  63.158  1.00  0.00    -0.045 SA 
ENDROOT
BRANCH   2   3
HETATM    3  C   UNL     1      -8.658   8.233  64.741  1.00  0.00    -0.020 A  
HETATM    4  N   UNL     1      -8.881   7.406  65.738  1.00  0.00    -0.315 NA 
HETATM    5  C   UNL     1      -9.435   8.187  66.728  1.00  0.00    -0.198 A  
HETATM    6  H   UNL     1      -8.685   6.405  65.771  1.00  0.00     0.000 HD 
HETATM    7  C   UNL     1      -9.551   9.507  66.307  1.00  0.00    -0.226 A  
HETATM    8  C   UNL     1     -10.175  10.499  67.061  1.00  0.00    -0.275 A  
HETATM    9  N   UNL     1      -8.984   9.516  65.062  1.00  0.00    -0.201 NA 
HETATM   10  C   UNL     1     -10.738  10.112  68.289  1.00  0.00    -0.238 A  
HETATM   11  C   UNL     1     -10.525   8.827  68.812  1.00  0.00    -0.191 A  
HETATM   12 CL   UNL     1     -11.804  11.281  68.999  1.00  0.00    -0.396 Cl 
HETATM   13  C   UNL     1      -9.897   7.848  68.009  1.00  0.00    -0.195 A  
BRANCH  11  14
HETATM   14  O   UNL     1     -10.962   8.314  70.018  1.00  0.00    -0.247 OA 
BRANCH  14  15
HETATM   15  C   UNL     1     -10.143   8.158  71.118  1.00  0.00    -0.184 A  
HETATM   16  C   UNL     1      -8.915   8.805  71.280  1.00  0.00    -0.295 A  
HETATM   17  C   UNL     1      -8.216   8.697  72.485  1.00  0.00    -0.062 A  
HETATM   18  C   UNL     1      -8.695   7.868  73.499  1.00  0.00    -0.321 A  
HETATM   19  C   UNL     1      -9.851   7.115  73.295  1.00  0.00    -0.234 A  
HETATM   20  C   UNL     1     -10.579   7.251  72.104  1.00  0.00    -0.211 A  
HETATM   21 CL   UNL     1     -10.331   6.037  74.561  1.00  0.00    -0.286 Cl 
HETATM   22 CL   UNL     1     -12.006   6.302  71.820  1.00  0.00    -0.359 Cl 
ENDBRANCH  14  15
ENDBRANCH  11  14
ENDBRANCH   2   3
TORSDOF 3
ENDMDL
MODEL      176
REMARK 921   NORMALIZED FREE ENERGY PREDICTED BY IDOCK:   -3.77 KCAL/MOL
REMARK 922        TOTAL FREE ENERGY PREDICTED BY IDOCK:   -5.00 KCAL/MOL
REMARK 923 INTER-LIGAND FREE ENERGY PREDICTED BY IDOCK:   -4.91 KCAL/MOL
REMARK 924 INTRA-LIGAND FREE ENERGY PREDICTED BY IDOCK:   -0.08 KCAL/MOL
REMARK 927      BINDING AFFINITY PREDICTED BY RF-SCORE:    0.00 PKD
ROOT
HETATM    1  C   UNL     1     -10.148   9.099  67.244  1.00  0.00    -0.233 C  
HETATM    2  S   UNL     1     -11.163  10.208  68.241  1.00  0.00    -0.112 SA 
ENDROOT
BRANCH   2   3
HETATM    3  C   UNL     1     -10.429  11.731  67.917  1.00  0.00    -0.196 A  
HETATM    4  N   UNL     1     -10.773  12.649  67.043  1.00  0.00    -0.243 NA 
HETATM    5  C   UNL     1      -9.791  13.611  67.138  1.00  0.00    -0.242 A  
HETATM    6  H   UNL     1     -11.587  12.650  66.429  1.00  0.00     0.000 HD 
HETATM    7  C   UNL     1      -8.839  13.253  68.086  1.00  0.00    -0.187 A  
HETATM    8  C   UNL     1      -7.676  13.985  68.317  1.00  0.00    -0.141 A  
HETATM    9  N   UNL     1      -9.312  12.082  68.612  1.00  0.00    -0.111 NA 
HETATM   10  C   UNL     1      -7.461  15.119  67.515  1.00  0.00    -0.198 A  
HETATM   11  C   UNL     1      -8.457  15.592  66.646  1.00  0.00    -0.279 A  
HETATM   12 CL   UNL     1      -5.855  15.767  67.589  1.00  0.00    -0.168 Cl 
HETATM   13  C   UNL     1      -9.617  14.812  66.432  1.00  0.00    -0.324 A  
BRANCH  11  14
HETATM   14  O   UNL     1      -8.421  16.711  65.837  1.00  0.00    -0.451 OA 
BRANCH  14  15
HETATM   15  C   UNL     1      -8.087  17.969  66.297  1.00  0.00    -0.224 A  
HETATM   16  C   UNL     1      -6.832  18.559  66.126  1.00  0.00    -0.285 A  
HETATM   17  C   UNL     1      -6.622  19.888  66.500  1.00  0.00    -0.212 A  
HETATM   18  C   UNL     1      -7.639  20.606  67.131  1.00  0.00    -0.364 A  
HETATM   19  C   UNL     1      -8.852  19.983  67.424  1.00  0.00    -0.346 A  
HETATM   20  C   UNL     1      -9.083  18.662  67.014  1.00  0.00    -0.291 A  
HETATM   21 CL   UNL     1     -10.029  20.908  68.293  1.00  0.00     0.084 Cl 
HETATM   22 CL   UNL     1     -10.576  17.860  67.394  1.00  0.00    -0.389 Cl 
ENDBRANCH  14  15
ENDBRANCH  11  14
ENDBRANCH   2   3
TORSDOF 3
ENDMDL
MODEL      177
REMARK 921   NORMALIZED FREE ENERGY PREDICTED BY IDOCK:   -3.75 KCAL/MOL
REMARK 922        TOTAL FREE ENERGY PREDICTED BY IDOCK:   -4.97 KCAL/MOL
REMARK 923 INTER-LIGAND FREE ENERGY PREDICTED BY IDOCK:   -4.57 KCAL/MOL
REMARK 924 INTRA-LIGAND FREE ENERGY PREDICTED BY IDOCK:   -0.40 KCAL/MOL
REMARK 927      BINDING AFFINITY PREDICTED BY RF-SCORE:    0.00 PKD
ROOT
HETATM    1  C   UNL     1      -9.092   4.329  63.345  1.00  0.00    -0.138 C  
HETATM    2  S   UNL     1     -10.016   3.419  64.600  1.00  0.00    -0.072 SA 
ENDROOT
BRANCH   2   3
HETATM    3  C   UNL     1     -10.175   4.605  65.837  1.00  0.00    -0.276 A  
HETATM    4  N   UNL     1     -11.157   5.451  66.055  1.00  0.00    -0.789 NA 
HETATM    5  C   UNL     1     -10.724   6.229  67.107  1.00  0.00    -0.359 A  
HETATM    6  H   UNL     1     -12.044   5.517  65.556  1.00  0.00     0.000 HD 
HETATM    7  C   UNL     1      -9.454   5.841  67.518  1.00  0.00    -0.112 A  
HETATM    8  C   UNL     1      -8.724   6.521  68.492  1.00  0.00    -0.122 A  
HETATM    9  N   UNL     1      -9.162   4.760  66.734  1.00  0.00    -0.120 NA 
HETATM   10  C   UNL     1      -9.309   7.672  69.045  1.00  0.00    -0.146 A  
HETATM   11  C   UNL     1     -10.639   8.019  68.760  1.00  0.00    -0.118 A  
HETATM   12 CL   UNL     1      -8.225   8.667  69.962  1.00  0.00    -0.116 Cl 
HETATM   13  C   UNL     1     -11.340   7.311  67.757  1.00  0.00     0.325 A  
BRANCH  11  14
HETATM   14  O   UNL     1     -11.369   9.080  69.259  1.00  0.00     0.082 OA 
BRANCH  14  15
HETATM   15  C   UNL     1     -11.327  10.350  68.721  1.00  0.00    -0.214 A  
HETATM   16  C   UNL     1     -10.787  10.654  67.468  1.00  0.00    -0.351 A  
HETATM   17  C   UNL     1     -10.911  11.942  66.942  1.00  0.00    -0.305 A  
HETATM   18  C   UNL     1     -11.492  12.956  67.704  1.00  0.00    -0.383 A  
HETATM   19  C   UNL     1     -11.914  12.692  69.008  1.00  0.00    -0.236 A  
HETATM   20  C   UNL     1     -11.831  11.391  69.525  1.00  0.00    -0.357 A  
HETATM   21 CL   UNL     1     -12.536  14.022  69.924  1.00  0.00    -0.290 Cl 
HETATM   22 CL   UNL     1     -12.325  11.049  71.155  1.00  0.00    -0.474 Cl 
ENDBRANCH  14  15
ENDBRANCH  11  14
ENDBRANCH   2   3
TORSDOF 3
ENDMDL
MODEL      178
REMARK 921   NORMALIZED FREE ENERGY PREDICTED BY IDOCK:   -3.74 KCAL/MOL
REMARK 922        TOTAL FREE ENERGY PREDICTED BY IDOCK:   -4.96 KCAL/MOL
REMARK 923 INTER-LIGAND FREE ENERGY PREDICTED BY IDOCK:   -4.59 KCAL/MOL
REMARK 924 INTRA-LIGAND FREE ENERGY PREDICTED BY IDOCK:   -0.37 KCAL/MOL
REMARK 927      BINDING AFFINITY PREDICTED BY RF-SCORE:    0.00 PKD
ROOT
HETATM    1  C   UNL     1      -7.916  18.747  66.197  1.00  0.00    -0.217 C  
HETATM    2  S   UNL     1      -9.410  18.685  67.207  1.00  0.00    -0.291 SA 
ENDROOT
BRANCH   2   3
HETATM    3  C   UNL     1      -9.741  16.996  67.227  1.00  0.00    -0.253 A  
HETATM    4  N   UNL     1      -9.855  16.185  68.255  1.00  0.00    -0.221 NA 
HETATM    5  C   UNL     1     -10.022  14.934  67.700  1.00  0.00    -0.226 A  
HETATM    6  H   UNL     1      -9.827  16.427  69.245  1.00  0.00     0.000 HD 
HETATM    7  C   UNL     1     -10.000  15.004  66.311  1.00  0.00    -0.281 A  
HETATM    8  C   UNL     1     -10.039  13.880  65.488  1.00  0.00    -0.319 A  
HETATM    9  N   UNL     1      -9.888  16.341  66.043  1.00  0.00    -0.325 NA 
HETATM   10  C   UNL     1     -10.067  12.624  66.118  1.00  0.00    -0.257 A  
HETATM   11  C   UNL     1     -10.229  12.513  67.508  1.00  0.00    -0.217 A  
HETATM   12 CL   UNL     1      -9.746  11.281  65.071  1.00  0.00    -0.277 Cl 
HETATM   13  C   UNL     1     -10.172  13.678  68.307  1.00  0.00    -0.243 A  
BRANCH  11  14
HETATM   14  O   UNL     1     -10.328  11.362  68.265  1.00  0.00    -0.180 OA 
BRANCH  14  15
HETATM   15  C   UNL     1      -9.255  10.787  68.915  1.00  0.00    -0.173 A  
HETATM   16  C   UNL     1      -7.936  11.235  68.800  1.00  0.00    -0.137 A  
HETATM   17  C   UNL     1      -6.933  10.683  69.599  1.00  0.00    -0.134 A  
HETATM   18  C   UNL     1      -7.225   9.618  70.452  1.00  0.00    -0.147 A  
HETATM   19  C   UNL     1      -8.511   9.078  70.476  1.00  0.00    -0.200 A  
HETATM   20  C   UNL     1      -9.531   9.655  69.707  1.00  0.00    -0.220 A  
HETATM   21 CL   UNL     1      -8.773   7.698  71.487  1.00  0.00    -0.126 Cl 
HETATM   22 CL   UNL     1     -11.132   8.980  69.702  1.00  0.00    -0.142 Cl 
ENDBRANCH  14  15
ENDBRANCH  11  14
ENDBRANCH   2   3
TORSDOF 3
ENDMDL
MODEL      179
REMARK 921   NORMALIZED FREE ENERGY PREDICTED BY IDOCK:   -3.74 KCAL/MOL
REMARK 922        TOTAL FREE ENERGY PREDICTED BY IDOCK:   -4.95 KCAL/MOL
REMARK 923 INTER-LIGAND FREE ENERGY PREDICTED BY IDOCK:   -4.32 KCAL/MOL
REMARK 924 INTRA-LIGAND FREE ENERGY PREDICTED BY IDOCK:   -0.63 KCAL/MOL
REMARK 927      BINDING AFFINITY PREDICTED BY RF-SCORE:    0.00 PKD
ROOT
HETATM    1  C   UNL     1      -9.914   7.211  73.854  1.00  0.00    -0.318 C  
HETATM    2  S   UNL     1      -9.531   6.126  72.463  1.00  0.00    -0.141 SA 
ENDROOT
BRANCH   2   3
HETATM    3  C   UNL     1      -9.276   7.266  71.199  1.00  0.00    -0.156 A  
HETATM    4  N   UNL     1      -9.101   8.566  71.276  1.00  0.00    -0.177 NA 
HETATM    5  C   UNL     1      -9.042   8.992  69.967  1.00  0.00    -0.176 A  
HETATM    6  H   UNL     1      -9.025   9.135  72.120  1.00  0.00     0.000 HD 
HETATM    7  C   UNL     1      -9.193   7.921  69.093  1.00  0.00    -0.144 A  
HETATM    8  C   UNL     1      -9.281   8.069  67.710  1.00  0.00    -0.142 A  
HETATM    9  N   UNL     1      -9.270   6.827  69.910  1.00  0.00    -0.147 NA 
HETATM   10  C   UNL     1      -9.250   9.379  67.202  1.00  0.00    -0.134 A  
HETATM   11  C   UNL     1      -8.962  10.473  68.033  1.00  0.00    -0.135 A  
HETATM   12 CL   UNL     1      -9.728   9.524  65.541  1.00  0.00    -0.363 Cl 
HETATM   13  C   UNL     1      -8.891  10.281  69.431  1.00  0.00    -0.177 A  
BRANCH  11  14
HETATM   14  O   UNL     1      -8.844  11.803  67.680  1.00  0.00    -0.152 OA 
BRANCH  14  15
HETATM   15  C   UNL     1      -9.842  12.734  67.882  1.00  0.00    -0.223 A  
HETATM   16  C   UNL     1     -11.168  12.565  67.470  1.00  0.00    -0.342 A  
HETATM   17  C   UNL     1     -12.142  13.495  67.838  1.00  0.00    -0.304 A  
HETATM   18  C   UNL     1     -11.782  14.645  68.539  1.00  0.00    -0.348 A  
HETATM   19  C   UNL     1     -10.441  14.887  68.839  1.00  0.00    -0.242 A  
HETATM   20  C   UNL     1      -9.464  13.937  68.510  1.00  0.00    -0.174 A  
HETATM   21 CL   UNL     1     -10.061  16.381  69.626  1.00  0.00    -0.200 Cl 
HETATM   22 CL   UNL     1      -7.786  14.232  68.850  1.00  0.00    -0.126 Cl 
ENDBRANCH  14  15
ENDBRANCH  11  14
ENDBRANCH   2   3
TORSDOF 3
ENDMDL
MODEL      180
REMARK 921   NORMALIZED FREE ENERGY PREDICTED BY IDOCK:   -3.72 KCAL/MOL
REMARK 922        TOTAL FREE ENERGY PREDICTED BY IDOCK:   -4.94 KCAL/MOL
REMARK 923 INTER-LIGAND FREE ENERGY PREDICTED BY IDOCK:   -4.67 KCAL/MOL
REMARK 924 INTRA-LIGAND FREE ENERGY PREDICTED BY IDOCK:   -0.26 KCAL/MOL
REMARK 927      BINDING AFFINITY PREDICTED BY RF-SCORE:    0.00 PKD
ROOT
HETATM    1  C   UNL     1      -5.440  19.872  63.976  1.00  0.00    -0.219 C  
HETATM    2  S   UNL     1      -6.652  20.271  65.253  1.00  0.00    -0.282 SA 
ENDROOT
BRANCH   2   3
HETATM    3  C   UNL     1      -7.009  18.711  65.887  1.00  0.00    -0.270 A  
HETATM    4  N   UNL     1      -8.124  18.021  65.815  1.00  0.00    -0.512 NA 
HETATM    5  C   UNL     1      -7.891  16.893  66.573  1.00  0.00    -0.294 A  
HETATM    6  H   UNL     1      -8.976  18.265  65.310  1.00  0.00     0.000 HD 
HETATM    7  C   UNL     1      -6.609  16.919  67.112  1.00  0.00    -0.189 A  
HETATM    8  C   UNL     1      -6.137  15.960  68.007  1.00  0.00    -0.145 A  
HETATM    9  N   UNL     1      -6.050  18.057  66.600  1.00  0.00    -0.154 NA 
HETATM   10  C   UNL     1      -7.031  14.948  68.394  1.00  0.00    -0.110 A  
HETATM   11  C   UNL     1      -8.281  14.807  67.771  1.00  0.00    -0.159 A  
HETATM   12 CL   UNL     1      -6.522  14.015  69.764  1.00  0.00    -0.131 Cl 
HETATM   13  C   UNL     1      -8.727  15.808  66.878  1.00  0.00    -0.274 A  
BRANCH  11  14
HETATM   14  O   UNL     1      -9.243  13.842  67.999  1.00  0.00    -0.180 OA 
BRANCH  14  15
HETATM   15  C   UNL     1      -9.104  12.525  67.612  1.00  0.00    -0.187 A  
HETATM   16  C   UNL     1      -8.468  11.545  68.380  1.00  0.00    -0.159 A  
HETATM   17  C   UNL     1      -8.493  10.209  67.975  1.00  0.00    -0.118 A  
HETATM   18  C   UNL     1      -9.073   9.857  66.756  1.00  0.00    -0.164 A  
HETATM   19  C   UNL     1      -9.593  10.847  65.922  1.00  0.00    -0.216 A  
HETATM   20  C   UNL     1      -9.608  12.185  66.342  1.00  0.00    -0.234 A  
HETATM   21 CL   UNL     1     -10.210  10.346  64.384  1.00  0.00    -0.356 Cl 
HETATM   22 CL   UNL     1     -10.226  13.435  65.305  1.00  0.00    -0.321 Cl 
ENDBRANCH  14  15
ENDBRANCH  11  14
ENDBRANCH   2   3
TORSDOF 3
ENDMDL
MODEL      181
REMARK 921   NORMALIZED FREE ENERGY PREDICTED BY IDOCK:   -3.72 KCAL/MOL
REMARK 922        TOTAL FREE ENERGY PREDICTED BY IDOCK:   -4.94 KCAL/MOL
REMARK 923 INTER-LIGAND FREE ENERGY PREDICTED BY IDOCK:   -4.59 KCAL/MOL
REMARK 924 INTRA-LIGAND FREE ENERGY PREDICTED BY IDOCK:   -0.34 KCAL/MOL
REMARK 927      BINDING AFFINITY PREDICTED BY RF-SCORE:    0.00 PKD
ROOT
HETATM    1  C   UNL     1      -8.385  10.956  62.330  1.00  0.00    -0.243 C  
HETATM    2  S   UNL     1      -9.790  11.086  63.455  1.00  0.00    -0.393 SA 
ENDROOT
BRANCH   2   3
HETATM    3  C   UNL     1      -9.204  10.244  64.837  1.00  0.00    -0.227 A  
HETATM    4  N   UNL     1      -9.723   9.212  65.462  1.00  0.00    -0.462 NA 
HETATM    5  C   UNL     1      -8.902   9.009  66.550  1.00  0.00    -0.135 A  
HETATM    6  H   UNL     1     -10.552   8.678  65.200  1.00  0.00     0.000 HD 
HETATM    7  C   UNL     1      -7.875   9.947  66.575  1.00  0.00    -0.110 A  
HETATM    8  C   UNL     1      -6.957  10.049  67.618  1.00  0.00    -0.085 A  
HETATM    9  N   UNL     1      -8.057  10.676  65.432  1.00  0.00    -0.140 NA 
HETATM   10  C   UNL     1      -7.120   9.172  68.704  1.00  0.00    -0.071 A  
HETATM   11  C   UNL     1      -8.053   8.125  68.657  1.00  0.00    -0.124 A  
HETATM   12 CL   UNL     1      -6.196   9.583  70.113  1.00  0.00    -0.053 Cl 
HETATM   13  C   UNL     1      -8.974   8.064  67.586  1.00  0.00    -0.138 A  
BRANCH  11  14
HETATM   14  O   UNL     1      -8.296   7.156  69.612  1.00  0.00    -0.129 OA 
BRANCH  14  15
HETATM   15  C   UNL     1      -9.063   7.375  70.737  1.00  0.00    -0.151 A  
HETATM   16  C   UNL     1      -8.573   7.924  71.926  1.00  0.00    -0.161 A  
HETATM   17  C   UNL     1      -9.448   8.239  72.968  1.00  0.00    -0.298 A  
HETATM   18  C   UNL     1     -10.802   7.922  72.864  1.00  0.00    -0.451 A  
HETATM   19  C   UNL     1     -11.277   7.254  71.736  1.00  0.00    -0.247 A  
HETATM   20  C   UNL     1     -10.411   6.973  70.669  1.00  0.00    -0.210 A  
HETATM   21 CL   UNL     1     -12.949   6.809  71.721  1.00  0.00    -0.349 Cl 
HETATM   22 CL   UNL     1     -10.977   6.117  69.267  1.00  0.00    -0.416 Cl 
ENDBRANCH  14  15
ENDBRANCH  11  14
ENDBRANCH   2   3
TORSDOF 3
ENDMDL
MODEL      182
REMARK 921   NORMALIZED FREE ENERGY PREDICTED BY IDOCK:   -3.72 KCAL/MOL
REMARK 922        TOTAL FREE ENERGY PREDICTED BY IDOCK:   -4.93 KCAL/MOL
REMARK 923 INTER-LIGAND FREE ENERGY PREDICTED BY IDOCK:   -5.20 KCAL/MOL
REMARK 924 INTRA-LIGAND FREE ENERGY PREDICTED BY IDOCK:    0.27 KCAL/MOL
REMARK 927      BINDING AFFINITY PREDICTED BY RF-SCORE:    0.00 PKD
ROOT
HETATM    1  C   UNL     1     -10.388  18.584  68.112  1.00  0.00    -0.356 C  
HETATM    2  S   UNL     1     -10.227  18.313  66.334  1.00  0.00    -0.402 SA 
ENDROOT
BRANCH   2   3
HETATM    3  C   UNL     1     -10.180  16.594  66.252  1.00  0.00    -0.334 A  
HETATM    4  N   UNL     1      -9.676  15.736  67.109  1.00  0.00    -0.222 NA 
HETATM    5  C   UNL     1      -9.821  14.507  66.503  1.00  0.00    -0.285 A  
HETATM    6  H   UNL     1      -9.267  15.935  68.022  1.00  0.00     0.000 HD 
HETATM    7  C   UNL     1     -10.419  14.640  65.255  1.00  0.00    -0.398 A  
HETATM    8  C   UNL     1     -10.593  13.575  64.373  1.00  0.00    -0.394 A  
HETATM    9  N   UNL     1     -10.697  15.975  65.155  1.00  0.00    -0.538 NA 
HETATM   10  C   UNL     1     -10.098  12.322  64.774  1.00  0.00    -0.246 A  
HETATM   11  C   UNL     1      -9.615  12.116  66.075  1.00  0.00    -0.231 A  
HETATM   12 CL   UNL     1     -10.011  11.139  63.510  1.00  0.00    -0.380 Cl 
HETATM   13  C   UNL     1      -9.444  13.225  66.934  1.00  0.00    -0.249 A  
BRANCH  11  14
HETATM   14  O   UNL     1      -9.148  10.942  66.635  1.00  0.00    -0.156 OA 
BRANCH  14  15
HETATM   15  C   UNL     1      -9.548  10.479  67.871  1.00  0.00    -0.150 A  
HETATM   16  C   UNL     1      -9.682  11.285  69.006  1.00  0.00    -0.072 A  
HETATM   17  C   UNL     1     -10.225  10.762  70.181  1.00  0.00     0.383 A  
HETATM   18  C   UNL     1     -10.550   9.408  70.258  1.00  0.00    -0.297 A  
HETATM   19  C   UNL     1     -10.296   8.567  69.174  1.00  0.00    -0.217 A  
HETATM   20  C   UNL     1      -9.791   9.096  67.977  1.00  0.00    -0.168 A  
HETATM   21 CL   UNL     1     -10.638   6.883  69.378  1.00  0.00    -0.237 Cl 
HETATM   22 CL   UNL     1      -9.442   8.061  66.626  1.00  0.00    -0.251 Cl 
ENDBRANCH  14  15
ENDBRANCH  11  14
ENDBRANCH   2   3
TORSDOF 3
ENDMDL
MODEL      183
REMARK 921   NORMALIZED FREE ENERGY PREDICTED BY IDOCK:   -3.71 KCAL/MOL
REMARK 922        TOTAL FREE ENERGY PREDICTED BY IDOCK:   -4.92 KCAL/MOL
REMARK 923 INTER-LIGAND FREE ENERGY PREDICTED BY IDOCK:   -4.68 KCAL/MOL
REMARK 924 INTRA-LIGAND FREE ENERGY PREDICTED BY IDOCK:   -0.24 KCAL/MOL
REMARK 927      BINDING AFFINITY PREDICTED BY RF-SCORE:    0.00 PKD
ROOT
HETATM    1  C   UNL     1      -7.277   4.491  67.250  1.00  0.00    -0.069 C  
HETATM    2  S   UNL     1      -7.547   5.226  65.624  1.00  0.00    -0.083 SA 
ENDROOT
BRANCH   2   3
HETATM    3  C   UNL     1      -8.185   6.768  66.045  1.00  0.00    -0.129 A  
HETATM    4  N   UNL     1      -9.392   7.249  65.848  1.00  0.00    -0.389 NA 
HETATM    5  C   UNL     1      -9.328   8.553  66.289  1.00  0.00    -0.224 A  
HETATM    6  H   UNL     1     -10.198   6.764  65.455  1.00  0.00     0.000 HD 
HETATM    7  C   UNL     1      -8.052   8.855  66.752  1.00  0.00    -0.111 A  
HETATM    8  C   UNL     1      -7.668  10.131  67.159  1.00  0.00    -0.092 A  
HETATM    9  N   UNL     1      -7.367   7.676  66.647  1.00  0.00    -0.086 NA 
HETATM   10  C   UNL     1      -8.626  11.154  67.052  1.00  0.00    -0.147 A  
HETATM   11  C   UNL     1      -9.959  10.867  66.722  1.00  0.00    -0.205 A  
HETATM   12 CL   UNL     1      -7.993  12.760  67.218  1.00  0.00    -0.173 Cl 
HETATM   13  C   UNL     1     -10.304   9.562  66.304  1.00  0.00    -0.226 A  
BRANCH  11  14
HETATM   14  O   UNL     1     -11.022  11.745  66.629  1.00  0.00    -0.267 OA 
BRANCH  14  15
HETATM   15  C   UNL     1     -11.061  12.961  67.281  1.00  0.00    -0.274 A  
HETATM   16  C   UNL     1     -11.288  13.109  68.652  1.00  0.00    -0.327 A  
HETATM   17  C   UNL     1     -11.174  14.365  69.252  1.00  0.00    -0.308 A  
HETATM   18  C   UNL     1     -10.924  15.493  68.471  1.00  0.00    -0.288 A  
HETATM   19  C   UNL     1     -10.828  15.373  67.084  1.00  0.00    -0.321 A  
HETATM   20  C   UNL     1     -10.900  14.109  66.481  1.00  0.00    -0.298 A  
HETATM   21 CL   UNL     1     -10.613  16.829  66.175  1.00  0.00    -0.260 Cl 
HETATM   22 CL   UNL     1     -10.811  13.942  64.754  1.00  0.00    -0.406 Cl 
ENDBRANCH  14  15
ENDBRANCH  11  14
ENDBRANCH   2   3
TORSDOF 3
ENDMDL
MODEL      184
REMARK 921   NORMALIZED FREE ENERGY PREDICTED BY IDOCK:   -3.69 KCAL/MOL
REMARK 922        TOTAL FREE ENERGY PREDICTED BY IDOCK:   -4.90 KCAL/MOL
REMARK 923 INTER-LIGAND FREE ENERGY PREDICTED BY IDOCK:   -4.62 KCAL/MOL
REMARK 924 INTRA-LIGAND FREE ENERGY PREDICTED BY IDOCK:   -0.28 KCAL/MOL
REMARK 927      BINDING AFFINITY PREDICTED BY RF-SCORE:    0.00 PKD
ROOT
HETATM    1  C   UNL     1      -5.756  19.354  62.823  1.00  0.00    -0.062 C  
HETATM    2  S   UNL     1      -5.171  19.706  64.494  1.00  0.00    -0.185 SA 
ENDROOT
BRANCH   2   3
HETATM    3  C   UNL     1      -5.887  18.420  65.386  1.00  0.00    -0.215 A  
HETATM    4  N   UNL     1      -7.108  17.941  65.317  1.00  0.00    -0.177 NA 
HETATM    5  C   UNL     1      -7.171  16.992  66.314  1.00  0.00    -0.234 A  
HETATM    6  H   UNL     1      -7.847  18.211  64.668  1.00  0.00     0.000 HD 
HETATM    7  C   UNL     1      -5.962  16.911  66.995  1.00  0.00    -0.175 A  
HETATM    8  C   UNL     1      -5.769  16.112  68.121  1.00  0.00    -0.114 A  
HETATM    9  N   UNL     1      -5.144  17.785  66.334  1.00  0.00    -0.152 NA 
HETATM   10  C   UNL     1      -6.879  15.390  68.592  1.00  0.00    -0.106 A  
HETATM   11  C   UNL     1      -8.074  15.336  67.858  1.00  0.00    -0.138 A  
HETATM   12 CL   UNL     1      -6.686  14.718  70.179  1.00  0.00    -0.166 Cl 
HETATM   13  C   UNL     1      -8.232  16.170  66.729  1.00  0.00    -0.304 A  
BRANCH  11  14
HETATM   14  O   UNL     1      -9.226  14.634  68.157  1.00  0.00    -0.181 OA 
BRANCH  14  15
HETATM   15  C   UNL     1     -10.083  14.137  67.195  1.00  0.00    -0.258 A  
HETATM   16  C   UNL     1     -11.350  14.662  66.927  1.00  0.00    -0.361 A  
HETATM   17  C   UNL     1     -12.093  14.187  65.844  1.00  0.00    -0.441 A  
HETATM   18  C   UNL     1     -11.615  13.121  65.081  1.00  0.00    -0.347 A  
HETATM   19  C   UNL     1     -10.412  12.504  65.424  1.00  0.00    -0.282 A  
HETATM   20  C   UNL     1      -9.641  13.005  66.484  1.00  0.00    -0.260 A  
HETATM   21 CL   UNL     1      -9.931  11.129  64.490  1.00  0.00    -0.322 Cl 
HETATM   22 CL   UNL     1      -8.154  12.233  66.943  1.00  0.00    -0.135 Cl 
ENDBRANCH  14  15
ENDBRANCH  11  14
ENDBRANCH   2   3
TORSDOF 3
ENDMDL
MODEL      185
REMARK 921   NORMALIZED FREE ENERGY PREDICTED BY IDOCK:   -3.68 KCAL/MOL
REMARK 922        TOTAL FREE ENERGY PREDICTED BY IDOCK:   -4.88 KCAL/MOL
REMARK 923 INTER-LIGAND FREE ENERGY PREDICTED BY IDOCK:   -4.47 KCAL/MOL
REMARK 924 INTRA-LIGAND FREE ENERGY PREDICTED BY IDOCK:   -0.41 KCAL/MOL
REMARK 927      BINDING AFFINITY PREDICTED BY RF-SCORE:    0.00 PKD
ROOT
HETATM    1  C   UNL     1      -6.782  10.143  63.225  1.00  0.00    -0.131 C  
HETATM    2  S   UNL     1      -8.553  10.442  63.397  1.00  0.00    -0.191 SA 
ENDROOT
BRANCH   2   3
HETATM    3  C   UNL     1      -8.985   9.272  64.583  1.00  0.00    -0.154 A  
HETATM    4  N   UNL     1     -10.028   9.247  65.382  1.00  0.00    -0.384 NA 
HETATM    5  C   UNL     1      -9.827   8.147  66.189  1.00  0.00    -0.023 A  
HETATM    6  H   UNL     1     -10.814   9.897  65.401  1.00  0.00     0.000 HD 
HETATM    7  C   UNL     1      -8.635   7.510  65.866  1.00  0.00    -0.151 A  
HETATM    8  C   UNL     1      -8.123   6.433  66.587  1.00  0.00    -0.110 A  
HETATM    9  N   UNL     1      -8.157   8.212  64.794  1.00  0.00    -0.150 NA 
HETATM   10  C   UNL     1      -8.850   6.012  67.714  1.00  0.00    -0.106 A  
HETATM   11  C   UNL     1     -10.122   6.535  67.993  1.00  0.00    -0.150 A  
HETATM   12 CL   UNL     1      -7.994   4.933  68.767  1.00  0.00    -0.080 Cl 
HETATM   13  C   UNL     1     -10.598   7.635  67.244  1.00  0.00    -0.388 A  
BRANCH  11  14
HETATM   14  O   UNL     1     -10.978   6.191  69.021  1.00  0.00    -0.312 OA 
BRANCH  14  15
HETATM   15  C   UNL     1     -10.934   6.773  70.272  1.00  0.00    -0.291 A  
HETATM   16  C   UNL     1     -11.024   8.149  70.501  1.00  0.00    -0.248 A  
HETATM   17  C   UNL     1     -11.110   8.641  71.805  1.00  0.00    -0.396 A  
HETATM   18  C   UNL     1     -11.014   7.768  72.889  1.00  0.00    -0.467 A  
HETATM   19  C   UNL     1     -10.790   6.409  72.671  1.00  0.00    -0.240 A  
HETATM   20  C   UNL     1     -10.745   5.903  71.364  1.00  0.00    -0.260 A  
HETATM   21 CL   UNL     1     -10.586   5.405  74.066  1.00  0.00    -0.314 Cl 
HETATM   22 CL   UNL     1     -10.441   4.218  71.072  1.00  0.00     0.070 Cl 
ENDBRANCH  14  15
ENDBRANCH  11  14
ENDBRANCH   2   3
TORSDOF 3
ENDMDL
MODEL      186
REMARK 921   NORMALIZED FREE ENERGY PREDICTED BY IDOCK:   -3.68 KCAL/MOL
REMARK 922        TOTAL FREE ENERGY PREDICTED BY IDOCK:   -4.88 KCAL/MOL
REMARK 923 INTER-LIGAND FREE ENERGY PREDICTED BY IDOCK:   -4.49 KCAL/MOL
REMARK 924 INTRA-LIGAND FREE ENERGY PREDICTED BY IDOCK:   -0.39 KCAL/MOL
REMARK 927      BINDING AFFINITY PREDICTED BY RF-SCORE:    0.00 PKD
ROOT
HETATM    1  C   UNL     1     -13.597  13.064  72.338  1.00  0.00    -0.529 C  
HETATM    2  S   UNL     1     -12.661  13.731  70.946  1.00  0.00    -0.295 SA 
ENDROOT
BRANCH   2   3
HETATM    3  C   UNL     1     -12.013  12.297  70.249  1.00  0.00    -0.290 A  
HETATM    4  N   UNL     1     -11.645  12.070  69.008  1.00  0.00    -0.288 NA 
HETATM    5  C   UNL     1     -11.298  10.737  68.981  1.00  0.00    -0.284 A  
HETATM    6  H   UNL     1     -11.622  12.735  68.234  1.00  0.00     0.000 HD 
HETATM    7  C   UNL     1     -11.470  10.158  70.234  1.00  0.00    -0.306 A  
HETATM    8  C   UNL     1     -11.298   8.796  70.477  1.00  0.00    -0.255 A  
HETATM    9  N   UNL     1     -11.861  11.195  71.034  1.00  0.00    -0.162 NA 
HETATM   10  C   UNL     1     -10.968   7.985  69.378  1.00  0.00    -0.009 A  
HETATM   11  C   UNL     1     -10.651   8.546  68.131  1.00  0.00    -0.124 A  
HETATM   12 CL   UNL     1     -11.128   6.282  69.660  1.00  0.00    -0.442 Cl 
HETATM   13  C   UNL     1     -10.851   9.930  67.923  1.00  0.00    -0.312 A  
BRANCH  11  14
HETATM   14  O   UNL     1     -10.260   7.894  66.977  1.00  0.00    -0.253 OA 
BRANCH  14  15
HETATM   15  C   UNL     1      -9.189   8.294  66.206  1.00  0.00    -0.203 A  
HETATM   16  C   UNL     1      -9.285   9.178  65.127  1.00  0.00    -0.218 A  
HETATM   17  C   UNL     1      -8.132   9.636  64.488  1.00  0.00    -0.143 A  
HETATM   18  C   UNL     1      -6.881   9.143  64.862  1.00  0.00    -0.081 A  
HETATM   19  C   UNL     1      -6.787   8.162  65.849  1.00  0.00    -0.060 A  
HETATM   20  C   UNL     1      -7.938   7.729  66.523  1.00  0.00    -0.106 A  
HETATM   21 CL   UNL     1      -5.213   7.531  66.193  1.00  0.00    -0.024 Cl 
HETATM   22 CL   UNL     1      -7.845   6.488  67.735  1.00  0.00    -0.109 Cl 
ENDBRANCH  14  15
ENDBRANCH  11  14
ENDBRANCH   2   3
TORSDOF 3
ENDMDL
MODEL      187
REMARK 921   NORMALIZED FREE ENERGY PREDICTED BY IDOCK:   -3.67 KCAL/MOL
REMARK 922        TOTAL FREE ENERGY PREDICTED BY IDOCK:   -4.88 KCAL/MOL
REMARK 923 INTER-LIGAND FREE ENERGY PREDICTED BY IDOCK:   -4.96 KCAL/MOL
REMARK 924 INTRA-LIGAND FREE ENERGY PREDICTED BY IDOCK:    0.08 KCAL/MOL
REMARK 927      BINDING AFFINITY PREDICTED BY RF-SCORE:    0.00 PKD
ROOT
HETATM    1  C   UNL     1     -10.911   6.537  73.022  1.00  0.00    -0.239 C  
HETATM    2  S   UNL     1     -10.736   5.441  71.599  1.00  0.00    -0.155 SA 
ENDROOT
BRANCH   2   3
HETATM    3  C   UNL     1     -10.169   6.531  70.393  1.00  0.00    -0.193 A  
HETATM    4  N   UNL     1     -10.264   7.840  70.347  1.00  0.00    -0.195 NA 
HETATM    5  C   UNL     1      -9.734   8.189  69.123  1.00  0.00    -0.163 A  
HETATM    6  H   UNL     1     -10.646   8.462  71.059  1.00  0.00     0.000 HD 
HETATM    7  C   UNL     1      -9.321   7.060  68.425  1.00  0.00    -0.130 A  
HETATM    8  C   UNL     1      -8.844   7.102  67.116  1.00  0.00    -0.121 A  
HETATM    9  N   UNL     1      -9.549   6.026  69.290  1.00  0.00    -0.135 NA 
HETATM   10  C   UNL     1      -8.823   8.355  66.481  1.00  0.00    -0.147 A  
HETATM   11  C   UNL     1      -9.099   9.534  67.192  1.00  0.00    -0.134 A  
HETATM   12 CL   UNL     1      -8.576   8.295  64.766  1.00  0.00    -0.105 Cl 
HETATM   13  C   UNL     1      -9.591   9.446  68.514  1.00  0.00    -0.154 A  
BRANCH  11  14
HETATM   14  O   UNL     1      -9.069  10.835  66.729  1.00  0.00    -0.151 OA 
BRANCH  14  15
HETATM   15  C   UNL     1     -10.200  11.608  66.564  1.00  0.00    -0.214 A  
HETATM   16  C   UNL     1     -10.856  12.273  67.604  1.00  0.00    -0.262 A  
HETATM   17  C   UNL     1     -11.911  13.144  67.328  1.00  0.00    -0.389 A  
HETATM   18  C   UNL     1     -12.378  13.285  66.020  1.00  0.00    -0.449 A  
HETATM   19  C   UNL     1     -11.816  12.525  64.995  1.00  0.00    -0.396 A  
HETATM   20  C   UNL     1     -10.728  11.680  65.260  1.00  0.00    -0.291 A  
HETATM   21 CL   UNL     1     -12.510  12.683  63.417  1.00  0.00    -0.543 Cl 
HETATM   22 CL   UNL     1     -10.033  10.705  64.001  1.00  0.00    -0.392 Cl 
ENDBRANCH  14  15
ENDBRANCH  11  14
ENDBRANCH   2   3
TORSDOF 3
ENDMDL
MODEL      188
REMARK 921   NORMALIZED FREE ENERGY PREDICTED BY IDOCK:   -3.67 KCAL/MOL
REMARK 922        TOTAL FREE ENERGY PREDICTED BY IDOCK:   -4.87 KCAL/MOL
REMARK 923 INTER-LIGAND FREE ENERGY PREDICTED BY IDOCK:   -4.73 KCAL/MOL
REMARK 924 INTRA-LIGAND FREE ENERGY PREDICTED BY IDOCK:   -0.14 KCAL/MOL
REMARK 927      BINDING AFFINITY PREDICTED BY RF-SCORE:    0.00 PKD
ROOT
HETATM    1  C   UNL     1      -8.675   3.050  65.984  1.00  0.00    -0.135 C  
HETATM    2  S   UNL     1      -8.085   4.117  64.654  1.00  0.00    -0.091 SA 
ENDROOT
BRANCH   2   3
HETATM    3  C   UNL     1      -8.522   5.675  65.242  1.00  0.00    -0.147 A  
HETATM    4  N   UNL     1      -8.048   6.853  64.905  1.00  0.00    -0.168 NA 
HETATM    5  C   UNL     1      -8.678   7.741  65.750  1.00  0.00    -0.133 A  
HETATM    6  H   UNL     1      -7.365   7.064  64.178  1.00  0.00     0.000 HD 
HETATM    7  C   UNL     1      -9.540   7.074  66.613  1.00  0.00    -0.167 A  
HETATM    8  C   UNL     1     -10.229   7.706  67.646  1.00  0.00    -0.277 A  
HETATM    9  N   UNL     1      -9.469   5.766  66.217  1.00  0.00    -0.158 NA 
HETATM   10  C   UNL     1      -9.996   9.080  67.826  1.00  0.00    -0.187 A  
HETATM   11  C   UNL     1      -9.244   9.816  66.897  1.00  0.00    -0.147 A  
HETATM   12 CL   UNL     1     -10.581   9.725  69.325  1.00  0.00    -0.225 Cl 
HETATM   13  C   UNL     1      -8.552   9.134  65.870  1.00  0.00    -0.168 A  
BRANCH  11  14
HETATM   14  O   UNL     1      -8.971  11.170  66.903  1.00  0.00    -0.154 OA 
BRANCH  14  15
HETATM   15  C   UNL     1      -9.949  12.141  66.971  1.00  0.00    -0.202 A  
HETATM   16  C   UNL     1     -10.466  12.652  68.165  1.00  0.00    -0.239 A  
HETATM   17  C   UNL     1     -11.353  13.731  68.142  1.00  0.00    -0.315 A  
HETATM   18  C   UNL     1     -11.799  14.244  66.925  1.00  0.00    -0.458 A  
HETATM   19  C   UNL     1     -11.391  13.654  65.728  1.00  0.00    -0.306 A  
HETATM   20  C   UNL     1     -10.468  12.599  65.743  1.00  0.00    -0.277 A  
HETATM   21 CL   UNL     1     -12.062  14.285  64.263  1.00  0.00    -0.493 Cl 
HETATM   22 CL   UNL     1      -9.969  11.833  64.266  1.00  0.00    -0.288 Cl 
ENDBRANCH  14  15
ENDBRANCH  11  14
ENDBRANCH   2   3
TORSDOF 3
ENDMDL
MODEL      189
REMARK 921   NORMALIZED FREE ENERGY PREDICTED BY IDOCK:   -3.64 KCAL/MOL
REMARK 922        TOTAL FREE ENERGY PREDICTED BY IDOCK:   -4.84 KCAL/MOL
REMARK 923 INTER-LIGAND FREE ENERGY PREDICTED BY IDOCK:   -4.36 KCAL/MOL
REMARK 924 INTRA-LIGAND FREE ENERGY PREDICTED BY IDOCK:   -0.48 KCAL/MOL
REMARK 927      BINDING AFFINITY PREDICTED BY RF-SCORE:    0.00 PKD
ROOT
HETATM    1  C   UNL     1      -8.996  18.793  68.828  1.00  0.00    -0.280 C  
HETATM    2  S   UNL     1     -10.067  18.239  67.485  1.00  0.00    -0.368 SA 
ENDROOT
BRANCH   2   3
HETATM    3  C   UNL     1      -9.953  16.528  67.638  1.00  0.00    -0.254 A  
HETATM    4  N   UNL     1      -9.110  15.698  67.069  1.00  0.00    -0.208 NA 
HETATM    5  C   UNL     1      -9.529  14.445  67.461  1.00  0.00    -0.207 A  
HETATM    6  H   UNL     1      -8.318  15.929  66.468  1.00  0.00     0.000 HD 
HETATM    7  C   UNL     1     -10.651  14.534  68.277  1.00  0.00    -0.241 A  
HETATM    8  C   UNL     1     -11.355  13.421  68.735  1.00  0.00    -0.332 A  
HETATM    9  N   UNL     1     -10.854  15.878  68.426  1.00  0.00    -0.300 NA 
HETATM   10  C   UNL     1     -10.907  12.159  68.307  1.00  0.00    -0.223 A  
HETATM   11  C   UNL     1      -9.703  12.018  67.600  1.00  0.00    -0.187 A  
HETATM   12 CL   UNL     1     -12.017  10.860  68.598  1.00  0.00    -0.286 Cl 
HETATM   13  C   UNL     1      -9.027  13.172  67.145  1.00  0.00    -0.228 A  
BRANCH  11  14
HETATM   14  O   UNL     1      -9.106  10.853  67.159  1.00  0.00    -0.144 OA 
BRANCH  14  15
HETATM   15  C   UNL     1      -8.717  10.648  65.851  1.00  0.00    -0.177 A  
HETATM   16  C   UNL     1      -9.605  10.459  64.789  1.00  0.00    -0.352 A  
HETATM   17  C   UNL     1      -9.130  10.397  63.477  1.00  0.00    -0.270 A  
HETATM   18  C   UNL     1      -7.757  10.429  63.228  1.00  0.00    -0.090 A  
HETATM   19  C   UNL     1      -6.858  10.484  64.293  1.00  0.00     0.112 A  
HETATM   20  C   UNL     1      -7.330  10.589  65.609  1.00  0.00    -0.126 A  
HETATM   21 CL   UNL     1      -5.171  10.424  63.910  1.00  0.00    -0.134 Cl 
HETATM   22 CL   UNL     1      -6.226  10.630  66.949  1.00  0.00    -0.064 Cl 
ENDBRANCH  14  15
ENDBRANCH  11  14
ENDBRANCH   2   3
TORSDOF 3
ENDMDL
MODEL      190
REMARK 921   NORMALIZED FREE ENERGY PREDICTED BY IDOCK:   -3.63 KCAL/MOL
REMARK 922        TOTAL FREE ENERGY PREDICTED BY IDOCK:   -4.82 KCAL/MOL
REMARK 923 INTER-LIGAND FREE ENERGY PREDICTED BY IDOCK:   -4.47 KCAL/MOL
REMARK 924 INTRA-LIGAND FREE ENERGY PREDICTED BY IDOCK:   -0.36 KCAL/MOL
REMARK 927      BINDING AFFINITY PREDICTED BY RF-SCORE:    0.00 PKD
ROOT
HETATM    1  C   UNL     1      -6.240   8.224  68.831  1.00  0.00    -0.044 C  
HETATM    2  S   UNL     1      -5.384   9.788  68.548  1.00  0.00    -0.032 SA 
ENDROOT
BRANCH   2   3
HETATM    3  C   UNL     1      -6.679  10.802  68.041  1.00  0.00    -0.064 A  
HETATM    4  N   UNL     1      -7.278  11.772  68.695  1.00  0.00    -0.106 NA 
HETATM    5  C   UNL     1      -8.300  12.178  67.864  1.00  0.00    -0.161 A  
HETATM    6  H   UNL     1      -7.039  12.143  69.614  1.00  0.00     0.000 HD 
HETATM    7  C   UNL     1      -8.312  11.427  66.694  1.00  0.00    -0.172 A  
HETATM    8  C   UNL     1      -9.300  11.545  65.719  1.00  0.00    -0.238 A  
HETATM    9  N   UNL     1      -7.224  10.606  66.809  1.00  0.00    -0.112 NA 
HETATM   10  C   UNL     1     -10.345  12.450  65.971  1.00  0.00    -0.251 A  
HETATM   11  C   UNL     1     -10.299  13.323  67.069  1.00  0.00    -0.246 A  
HETATM   12 CL   UNL     1     -11.714  12.290  64.919  1.00  0.00    -0.407 Cl 
HETATM   13  C   UNL     1      -9.286  13.162  68.040  1.00  0.00    -0.211 A  
BRANCH  11  14
HETATM   14  O   UNL     1     -11.213  14.298  67.422  1.00  0.00    -0.293 OA 
BRANCH  14  15
HETATM   15  C   UNL     1     -10.852  15.521  67.949  1.00  0.00    -0.307 A  
HETATM   16  C   UNL     1     -10.760  15.790  69.317  1.00  0.00    -0.246 A  
HETATM   17  C   UNL     1     -10.254  17.013  69.762  1.00  0.00     0.100 A  
HETATM   18  C   UNL     1      -9.925  18.009  68.843  1.00  0.00    -0.347 A  
HETATM   19  C   UNL     1     -10.138  17.798  67.480  1.00  0.00    -0.340 A  
HETATM   20  C   UNL     1     -10.606  16.557  67.026  1.00  0.00    -0.255 A  
HETATM   21 CL   UNL     1      -9.796  19.114  66.410  1.00  0.00    -0.406 Cl 
HETATM   22 CL   UNL     1     -10.904  16.284  65.336  1.00  0.00    -0.328 Cl 
ENDBRANCH  14  15
ENDBRANCH  11  14
ENDBRANCH   2   3
TORSDOF 3
ENDMDL
MODEL      191
REMARK 921   NORMALIZED FREE ENERGY PREDICTED BY IDOCK:   -3.58 KCAL/MOL
REMARK 922        TOTAL FREE ENERGY PREDICTED BY IDOCK:   -4.76 KCAL/MOL
REMARK 923 INTER-LIGAND FREE ENERGY PREDICTED BY IDOCK:   -4.22 KCAL/MOL
REMARK 924 INTRA-LIGAND FREE ENERGY PREDICTED BY IDOCK:   -0.55 KCAL/MOL
REMARK 927      BINDING AFFINITY PREDICTED BY RF-SCORE:    0.00 PKD
ROOT
HETATM    1  C   UNL     1      -9.056   3.931  74.183  1.00  0.00    -0.092 C  
HETATM    2  S   UNL     1     -10.702   3.945  73.442  1.00  0.00    -0.225 SA 
ENDROOT
BRANCH   2   3
HETATM    3  C   UNL     1     -10.696   5.457  72.620  1.00  0.00    -0.240 A  
HETATM    4  N   UNL     1      -9.726   6.031  71.945  1.00  0.00    -0.154 NA 
HETATM    5  C   UNL     1     -10.228   7.263  71.585  1.00  0.00    -0.192 A  
HETATM    6  H   UNL     1      -8.804   5.650  71.735  1.00  0.00     0.000 HD 
HETATM    7  C   UNL     1     -11.524   7.426  72.063  1.00  0.00    -0.273 A  
HETATM    8  C   UNL     1     -12.241   8.615  71.941  1.00  0.00    -0.419 A  
HETATM    9  N   UNL     1     -11.817   6.230  72.658  1.00  0.00    -0.140 NA 
HETATM   10  C   UNL     1     -11.586   9.699  71.332  1.00  0.00    -0.400 A  
HETATM   11  C   UNL     1     -10.335   9.538  70.716  1.00  0.00    -0.306 A  
HETATM   12 CL   UNL     1     -12.374  11.230  71.536  1.00  0.00    -0.300 Cl 
HETATM   13  C   UNL     1      -9.637   8.319  70.874  1.00  0.00    -0.196 A  
BRANCH  11  14
HETATM   14  O   UNL     1      -9.592  10.483  70.036  1.00  0.00     0.036 OA 
BRANCH  14  15
HETATM   15  C   UNL     1      -9.302  10.397  68.690  1.00  0.00    -0.167 A  
HETATM   16  C   UNL     1     -10.224  10.011  67.712  1.00  0.00    -0.235 A  
HETATM   17  C   UNL     1      -9.886  10.084  66.359  1.00  0.00    -0.283 A  
HETATM   18  C   UNL     1      -8.596  10.455  65.979  1.00  0.00    -0.158 A  
HETATM   19  C   UNL     1      -7.631  10.714  66.953  1.00  0.00    -0.115 A  
HETATM   20  C   UNL     1      -7.976  10.683  68.312  1.00  0.00    -0.116 A  
HETATM   21 CL   UNL     1      -6.029  11.074  66.406  1.00  0.00    -0.129 Cl 
HETATM   22 CL   UNL     1      -6.781  10.975  69.539  1.00  0.00    -0.112 Cl 
ENDBRANCH  14  15
ENDBRANCH  11  14
ENDBRANCH   2   3
TORSDOF 3
ENDMDL
MODEL      192
REMARK 921   NORMALIZED FREE ENERGY PREDICTED BY IDOCK:   -3.57 KCAL/MOL
REMARK 922        TOTAL FREE ENERGY PREDICTED BY IDOCK:   -4.76 KCAL/MOL
REMARK 923 INTER-LIGAND FREE ENERGY PREDICTED BY IDOCK:   -4.27 KCAL/MOL
REMARK 924 INTRA-LIGAND FREE ENERGY PREDICTED BY IDOCK:   -0.49 KCAL/MOL
REMARK 927      BINDING AFFINITY PREDICTED BY RF-SCORE:    0.00 PKD
ROOT
HETATM    1  C   UNL     1     -11.334   7.553  70.532  1.00  0.00    -0.260 C  
HETATM    2  S   UNL     1     -10.238   7.519  69.099  1.00  0.00    -0.204 SA 
ENDROOT
BRANCH   2   3
HETATM    3  C   UNL     1     -10.168   9.187  68.679  1.00  0.00    -0.204 A  
HETATM    4  N   UNL     1      -9.248   9.835  68.000  1.00  0.00    -0.125 NA 
HETATM    5  C   UNL     1      -9.641  11.155  68.045  1.00  0.00    -0.176 A  
HETATM    6  H   UNL     1      -8.425   9.446  67.541  1.00  0.00     0.000 HD 
HETATM    7  C   UNL     1     -10.818  11.294  68.773  1.00  0.00    -0.208 A  
HETATM    8  C   UNL     1     -11.390  12.529  69.073  1.00  0.00    -0.342 A  
HETATM    9  N   UNL     1     -11.163  10.013  69.105  1.00  0.00    -0.190 NA 
HETATM   10  C   UNL     1     -10.705  13.676  68.638  1.00  0.00    -0.256 A  
HETATM   11  C   UNL     1      -9.593  13.578  67.786  1.00  0.00    -0.219 A  
HETATM   12 CL   UNL     1     -11.254  15.161  69.344  1.00  0.00    -0.271 Cl 
HETATM   13  C   UNL     1      -9.038  12.306  67.516  1.00  0.00    -0.182 A  
BRANCH  11  14
HETATM   14  O   UNL     1      -8.850  14.602  67.233  1.00  0.00    -0.184 OA 
BRANCH  14  15
HETATM   15  C   UNL     1      -7.839  15.256  67.907  1.00  0.00    -0.139 A  
HETATM   16  C   UNL     1      -6.752  14.614  68.505  1.00  0.00    -0.098 A  
HETATM   17  C   UNL     1      -5.704  15.361  69.047  1.00  0.00    -0.098 A  
HETATM   18  C   UNL     1      -5.780  16.754  69.075  1.00  0.00    -0.143 A  
HETATM   19  C   UNL     1      -6.922  17.399  68.599  1.00  0.00    -0.226 A  
HETATM   20  C   UNL     1      -7.958  16.656  68.017  1.00  0.00    -0.171 A  
HETATM   21 CL   UNL     1      -6.984  19.121  68.756  1.00  0.00    -0.341 Cl 
HETATM   22 CL   UNL     1      -9.400  17.438  67.444  1.00  0.00    -0.235 Cl 
ENDBRANCH  14  15
ENDBRANCH  11  14
ENDBRANCH   2   3
TORSDOF 3
ENDMDL
MODEL      193
REMARK 921   NORMALIZED FREE ENERGY PREDICTED BY IDOCK:   -3.57 KCAL/MOL
REMARK 922        TOTAL FREE ENERGY PREDICTED BY IDOCK:   -4.76 KCAL/MOL
REMARK 923 INTER-LIGAND FREE ENERGY PREDICTED BY IDOCK:   -4.18 KCAL/MOL
REMARK 924 INTRA-LIGAND FREE ENERGY PREDICTED BY IDOCK:   -0.57 KCAL/MOL
REMARK 927      BINDING AFFINITY PREDICTED BY RF-SCORE:    0.00 PKD
ROOT
HETATM    1  C   UNL     1     -13.759   9.186  72.088  1.00  0.00    -0.471 C  
HETATM    2  S   UNL     1     -12.893  10.658  71.505  1.00  0.00    -0.468 SA 
ENDROOT
BRANCH   2   3
HETATM    3  C   UNL     1     -11.786   9.980  70.375  1.00  0.00    -0.286 A  
HETATM    4  N   UNL     1     -11.711  10.160  69.075  1.00  0.00    -0.501 NA 
HETATM    5  C   UNL     1     -10.712   9.308  68.658  1.00  0.00    -0.143 A  
HETATM    6  H   UNL     1     -12.270  10.792  68.502  1.00  0.00     0.000 HD 
HETATM    7  C   UNL     1     -10.186   8.601  69.734  1.00  0.00    -0.206 A  
HETATM    8  C   UNL     1      -9.236   7.591  69.594  1.00  0.00    -0.146 A  
HETATM    9  N   UNL     1     -10.845   9.103  70.822  1.00  0.00    -0.246 NA 
HETATM   10  C   UNL     1      -8.832   7.266  68.288  1.00  0.00    -0.127 A  
HETATM   11  C   UNL     1      -9.232   8.044  67.190  1.00  0.00    -0.142 A  
HETATM   12 CL   UNL     1      -7.945   5.782  68.151  1.00  0.00    -0.103 Cl 
HETATM   13  C   UNL     1     -10.206   9.051  67.374  1.00  0.00    -0.308 A  
BRANCH  11  14
HETATM   14  O   UNL     1      -8.882   7.889  65.863  1.00  0.00    -0.163 OA 
BRANCH  14  15
HETATM   15  C   UNL     1      -7.707   8.374  65.326  1.00  0.00    -0.098 A  
HETATM   16  C   UNL     1      -6.432   8.007  65.767  1.00  0.00    -0.042 A  
HETATM   17  C   UNL     1      -5.298   8.439  65.077  1.00  0.00    -0.036 A  
HETATM   18  C   UNL     1      -5.426   9.316  63.999  1.00  0.00    -0.061 A  
HETATM   19  C   UNL     1      -6.686   9.792  63.636  1.00  0.00    -0.119 A  
HETATM   20  C   UNL     1      -7.832   9.329  64.298  1.00  0.00    -0.125 A  
HETATM   21 CL   UNL     1      -6.755  10.950  62.352  1.00  0.00    -0.089 Cl 
HETATM   22 CL   UNL     1      -9.406   9.932  63.878  1.00  0.00    -0.305 Cl 
ENDBRANCH  14  15
ENDBRANCH  11  14
ENDBRANCH   2   3
TORSDOF 3
ENDMDL
MODEL      194
REMARK 921   NORMALIZED FREE ENERGY PREDICTED BY IDOCK:   -3.53 KCAL/MOL
REMARK 922        TOTAL FREE ENERGY PREDICTED BY IDOCK:   -4.71 KCAL/MOL
REMARK 923 INTER-LIGAND FREE ENERGY PREDICTED BY IDOCK:   -4.41 KCAL/MOL
REMARK 924 INTRA-LIGAND FREE ENERGY PREDICTED BY IDOCK:   -0.30 KCAL/MOL
REMARK 927      BINDING AFFINITY PREDICTED BY RF-SCORE:    0.00 PKD
ROOT
HETATM    1  C   UNL     1      -5.969   8.136  63.822  1.00  0.00    -0.066 C  
HETATM    2  S   UNL     1      -7.682   7.621  63.576  1.00  0.00    -0.125 SA 
ENDROOT
BRANCH   2   3
HETATM    3  C   UNL     1      -8.263   7.575  65.196  1.00  0.00    -0.120 A  
HETATM    4  N   UNL     1      -8.424   8.562  66.048  1.00  0.00    -0.132 NA 
HETATM    5  C   UNL     1      -8.820   7.954  67.220  1.00  0.00    -0.127 A  
HETATM    6  H   UNL     1      -8.287   9.559  65.880  1.00  0.00     0.000 HD 
HETATM    7  C   UNL     1      -8.888   6.575  67.061  1.00  0.00    -0.116 A  
HETATM    8  C   UNL     1      -9.157   5.696  68.110  1.00  0.00    -0.111 A  
HETATM    9  N   UNL     1      -8.593   6.372  65.741  1.00  0.00    -0.151 NA 
HETATM   10  C   UNL     1      -9.330   6.256  69.387  1.00  0.00    -0.140 A  
HETATM   11  C   UNL     1      -9.406   7.646  69.566  1.00  0.00    -0.153 A  
HETATM   12 CL   UNL     1      -9.295   5.113  70.690  1.00  0.00    -0.197 Cl 
HETATM   13  C   UNL     1      -9.115   8.501  68.479  1.00  0.00    -0.135 A  
BRANCH  11  14
HETATM   14  O   UNL     1      -9.623   8.344  70.738  1.00  0.00    -0.164 OA 
BRANCH  14  15
HETATM   15  C   UNL     1     -10.691   9.197  70.927  1.00  0.00    -0.275 A  
HETATM   16  C   UNL     1     -10.755  10.498  70.418  1.00  0.00    -0.074 A  
HETATM   17  C   UNL     1     -11.930  11.243  70.539  1.00  0.00    -0.467 A  
HETATM   18  C   UNL     1     -13.015  10.728  71.249  1.00  0.00    -0.502 A  
HETATM   19  C   UNL     1     -12.912   9.485  71.874  1.00  0.00    -0.425 A  
HETATM   20  C   UNL     1     -11.750   8.715  71.720  1.00  0.00    -0.331 A  
HETATM   21 CL   UNL     1     -14.263   8.956  72.816  1.00  0.00    -0.308 Cl 
HETATM   22 CL   UNL     1     -11.592   7.177  72.513  1.00  0.00    -0.290 Cl 
ENDBRANCH  14  15
ENDBRANCH  11  14
ENDBRANCH   2   3
TORSDOF 3
ENDMDL
MODEL      195
REMARK 921   NORMALIZED FREE ENERGY PREDICTED BY IDOCK:   -3.52 KCAL/MOL
REMARK 922        TOTAL FREE ENERGY PREDICTED BY IDOCK:   -4.70 KCAL/MOL
REMARK 923 INTER-LIGAND FREE ENERGY PREDICTED BY IDOCK:   -4.44 KCAL/MOL
REMARK 924 INTRA-LIGAND FREE ENERGY PREDICTED BY IDOCK:   -0.26 KCAL/MOL
REMARK 927      BINDING AFFINITY PREDICTED BY RF-SCORE:    0.00 PKD
ROOT
HETATM    1  C   UNL     1     -12.746  13.204  64.804  1.00  0.00    -0.308 C  
HETATM    2  S   UNL     1     -12.118  13.908  66.343  1.00  0.00    -0.454 SA 
ENDROOT
BRANCH   2   3
HETATM    3  C   UNL     1     -11.349  12.544  67.056  1.00  0.00    -0.328 A  
HETATM    4  N   UNL     1     -11.874  11.405  67.448  1.00  0.00    -0.601 NA 
HETATM    5  C   UNL     1     -10.832  10.718  68.031  1.00  0.00    -0.255 A  
HETATM    6  H   UNL     1     -12.841  11.097  67.343  1.00  0.00     0.000 HD 
HETATM    7  C   UNL     1      -9.663  11.469  67.991  1.00  0.00    -0.186 A  
HETATM    8  C   UNL     1      -8.475  11.070  68.602  1.00  0.00    -0.157 A  
HETATM    9  N   UNL     1     -10.011  12.598  67.302  1.00  0.00    -0.210 NA 
HETATM   10  C   UNL     1      -8.497   9.860  69.318  1.00  0.00    -0.158 A  
HETATM   11  C   UNL     1      -9.612   9.008  69.268  1.00  0.00    -0.162 A  
HETATM   12 CL   UNL     1      -7.126   9.601  70.347  1.00  0.00    -0.122 Cl 
HETATM   13  C   UNL     1     -10.800   9.457  68.648  1.00  0.00    -0.149 A  
BRANCH  11  14
HETATM   14  O   UNL     1      -9.767   7.773  69.867  1.00  0.00    -0.174 OA 
BRANCH  14  15
HETATM   15  C   UNL     1      -9.051   6.654  69.496  1.00  0.00    -0.144 A  
HETATM   16  C   UNL     1      -7.783   6.334  69.992  1.00  0.00    -0.101 A  
HETATM   17  C   UNL     1      -7.189   5.112  69.668  1.00  0.00    -0.056 A  
HETATM   18  C   UNL     1      -7.817   4.244  68.774  1.00  0.00    -0.073 A  
HETATM   19  C   UNL     1      -9.019   4.615  68.172  1.00  0.00    -0.114 A  
HETATM   20  C   UNL     1      -9.641   5.821  68.525  1.00  0.00    -0.126 A  
HETATM   21 CL   UNL     1      -9.689   3.529  67.003  1.00  0.00    -0.147 Cl 
HETATM   22 CL   UNL     1     -11.124   6.313  67.766  1.00  0.00    -0.419 Cl 
ENDBRANCH  14  15
ENDBRANCH  11  14
ENDBRANCH   2   3
TORSDOF 3
ENDMDL
MODEL      196
REMARK 921   NORMALIZED FREE ENERGY PREDICTED BY IDOCK:   -3.51 KCAL/MOL
REMARK 922        TOTAL FREE ENERGY PREDICTED BY IDOCK:   -4.69 KCAL/MOL
REMARK 923 INTER-LIGAND FREE ENERGY PREDICTED BY IDOCK:   -4.27 KCAL/MOL
REMARK 924 INTRA-LIGAND FREE ENERGY PREDICTED BY IDOCK:   -0.42 KCAL/MOL
REMARK 927      BINDING AFFINITY PREDICTED BY RF-SCORE:    0.00 PKD
ROOT
HETATM    1  C   UNL     1      -6.083  18.497  69.376  1.00  0.00    -0.259 C  
HETATM    2  S   UNL     1      -6.807  18.410  67.725  1.00  0.00    -0.210 SA 
ENDROOT
BRANCH   2   3
HETATM    3  C   UNL     1      -7.597  16.881  67.776  1.00  0.00    -0.169 A  
HETATM    4  N   UNL     1      -7.085  15.677  67.657  1.00  0.00    -0.150 NA 
HETATM    5  C   UNL     1      -8.171  14.829  67.676  1.00  0.00    -0.175 A  
HETATM    6  H   UNL     1      -6.101  15.426  67.570  1.00  0.00     0.000 HD 
HETATM    7  C   UNL     1      -9.355  15.547  67.802  1.00  0.00    -0.195 A  
HETATM    8  C   UNL     1     -10.617  14.958  67.741  1.00  0.00    -0.262 A  
HETATM    9  N   UNL     1      -8.950  16.846  67.932  1.00  0.00    -0.222 NA 
HETATM   10  C   UNL     1     -10.668  13.574  67.505  1.00  0.00    -0.259 A  
HETATM   11  C   UNL     1      -9.501  12.794  67.509  1.00  0.00    -0.187 A  
HETATM   12 CL   UNL     1     -12.236  12.968  67.077  1.00  0.00    -0.316 Cl 
HETATM   13  C   UNL     1      -8.242  13.432  67.562  1.00  0.00    -0.186 A  
BRANCH  11  14
HETATM   14  O   UNL     1      -9.390  11.426  67.347  1.00  0.00    -0.165 OA 
BRANCH  14  15
HETATM   15  C   UNL     1      -8.744  10.605  68.247  1.00  0.00    -0.135 A  
HETATM   16  C   UNL     1      -7.439  10.131  68.082  1.00  0.00    -0.083 A  
HETATM   17  C   UNL     1      -6.813   9.419  69.107  1.00  0.00    -0.050 A  
HETATM   18  C   UNL     1      -7.519   9.096  70.266  1.00  0.00    -0.099 A  
HETATM   19  C   UNL     1      -8.863   9.450  70.384  1.00  0.00    -0.249 A  
HETATM   20  C   UNL     1      -9.484  10.202  69.376  1.00  0.00    -0.224 A  
HETATM   21 CL   UNL     1      -9.698   8.932  71.809  1.00  0.00    -0.374 Cl 
HETATM   22 CL   UNL     1     -11.164  10.629  69.492  1.00  0.00    -0.300 Cl 
ENDBRANCH  14  15
ENDBRANCH  11  14
ENDBRANCH   2   3
TORSDOF 3
ENDMDL
MODEL      197
REMARK 921   NORMALIZED FREE ENERGY PREDICTED BY IDOCK:   -3.46 KCAL/MOL
REMARK 922        TOTAL FREE ENERGY PREDICTED BY IDOCK:   -4.63 KCAL/MOL
REMARK 923 INTER-LIGAND FREE ENERGY PREDICTED BY IDOCK:   -4.02 KCAL/MOL
REMARK 924 INTRA-LIGAND FREE ENERGY PREDICTED BY IDOCK:   -0.61 KCAL/MOL
REMARK 927      BINDING AFFINITY PREDICTED BY RF-SCORE:    0.00 PKD
ROOT
HETATM    1  C   UNL     1     -10.517   7.040  72.499  1.00  0.00    -0.216 C  
HETATM    2  S   UNL     1     -10.044   5.961  71.132  1.00  0.00    -0.205 SA 
ENDROOT
BRANCH   2   3
HETATM    3  C   UNL     1      -9.368   7.089  70.022  1.00  0.00    -0.158 A  
HETATM    4  N   UNL     1      -9.745   8.319  69.755  1.00  0.00    -0.178 NA 
HETATM    5  C   UNL     1      -8.924   8.724  68.726  1.00  0.00    -0.138 A  
HETATM    6  H   UNL     1     -10.484   8.856  70.210  1.00  0.00     0.000 HD 
HETATM    7  C   UNL     1      -8.043   7.709  68.369  1.00  0.00    -0.124 A  
HETATM    8  C   UNL     1      -7.169   7.800  67.288  1.00  0.00    -0.090 A  
HETATM    9  N   UNL     1      -8.307   6.705  69.260  1.00  0.00    -0.123 NA 
HETATM   10  C   UNL     1      -7.224   8.972  66.515  1.00  0.00    -0.085 A  
HETATM   11  C   UNL     1      -7.996  10.072  66.919  1.00  0.00    -0.113 A  
HETATM   12 CL   UNL     1      -6.394   8.878  64.995  1.00  0.00    -0.064 Cl 
HETATM   13  C   UNL     1      -8.878   9.934  68.015  1.00  0.00    -0.125 A  
BRANCH  11  14
HETATM   14  O   UNL     1      -8.114  11.303  66.304  1.00  0.00    -0.165 OA 
BRANCH  14  15
HETATM   15  C   UNL     1      -9.243  11.705  65.620  1.00  0.00    -0.138 A  
HETATM   16  C   UNL     1      -9.866  10.951  64.621  1.00  0.00    -0.350 A  
HETATM   17  C   UNL     1     -11.082  11.369  64.079  1.00  0.00    -0.400 A  
HETATM   18  C   UNL     1     -11.638  12.589  64.466  1.00  0.00    -0.406 A  
HETATM   19  C   UNL     1     -10.957  13.410  65.365  1.00  0.00    -0.286 A  
HETATM   20  C   UNL     1      -9.756  12.976  65.944  1.00  0.00    -0.178 A  
HETATM   21 CL   UNL     1     -11.662  14.950  65.724  1.00  0.00    -0.245 Cl 
HETATM   22 CL   UNL     1      -8.880  13.996  67.045  1.00  0.00    -0.237 Cl 
ENDBRANCH  14  15
ENDBRANCH  11  14
ENDBRANCH   2   3
TORSDOF 3
ENDMDL
MODEL      198
REMARK 921   NORMALIZED FREE ENERGY PREDICTED BY IDOCK:   -3.46 KCAL/MOL
REMARK 922        TOTAL FREE ENERGY PREDICTED BY IDOCK:   -4.63 KCAL/MOL
REMARK 923 INTER-LIGAND FREE ENERGY PREDICTED BY IDOCK:   -4.07 KCAL/MOL
REMARK 924 INTRA-LIGAND FREE ENERGY PREDICTED BY IDOCK:   -0.56 KCAL/MOL
REMARK 927      BINDING AFFINITY PREDICTED BY RF-SCORE:    0.00 PKD
ROOT
HETATM    1  C   UNL     1     -10.528  14.474  67.413  1.00  0.00    -0.264 C  
HETATM    2  S   UNL     1      -9.841  13.205  66.329  1.00  0.00    -0.273 SA 
ENDROOT
BRANCH   2   3
HETATM    3  C   UNL     1      -9.802  11.841  67.379  1.00  0.00    -0.178 A  
HETATM    4  N   UNL     1     -10.740  10.954  67.622  1.00  0.00    -0.223 NA 
HETATM    5  C   UNL     1     -10.214  10.146  68.607  1.00  0.00    -0.176 A  
HETATM    6  H   UNL     1     -11.656  10.879  67.179  1.00  0.00     0.000 HD 
HETATM    7  C   UNL     1      -8.937  10.568  68.961  1.00  0.00    -0.176 A  
HETATM    8  C   UNL     1      -8.207  10.003  70.005  1.00  0.00    -0.139 A  
HETATM    9  N   UNL     1      -8.678  11.608  68.111  1.00  0.00    -0.154 NA 
HETATM   10  C   UNL     1      -8.828   8.982  70.744  1.00  0.00    -0.234 A  
HETATM   11  C   UNL     1     -10.054   8.435  70.335  1.00  0.00    -0.187 A  
HETATM   12 CL   UNL     1      -8.037   8.580  72.233  1.00  0.00    -0.182 Cl 
HETATM   13  C   UNL     1     -10.768   9.045  69.279  1.00  0.00    -0.189 A  
BRANCH  11  14
HETATM   14  O   UNL     1     -10.762   7.401  70.918  1.00  0.00    -0.229 OA 
BRANCH  14  15
HETATM   15  C   UNL     1     -10.220   6.159  71.173  1.00  0.00    -0.198 A  
HETATM   16  C   UNL     1      -9.804   5.265  70.181  1.00  0.00    -0.290 A  
HETATM   17  C   UNL     1      -9.139   4.088  70.529  1.00  0.00    -0.182 A  
HETATM   18  C   UNL     1      -8.967   3.752  71.873  1.00  0.00    -0.148 A  
HETATM   19  C   UNL     1      -9.496   4.573  72.869  1.00  0.00    -0.130 A  
HETATM   20  C   UNL     1     -10.128   5.778  72.526  1.00  0.00    -0.180 A  
HETATM   21 CL   UNL     1      -9.328   4.043  74.507  1.00  0.00    -0.121 Cl 
HETATM   22 CL   UNL     1     -10.817   6.800  73.750  1.00  0.00    -0.217 Cl 
ENDBRANCH  14  15
ENDBRANCH  11  14
ENDBRANCH   2   3
TORSDOF 3
ENDMDL
MODEL      199
REMARK 921   NORMALIZED FREE ENERGY PREDICTED BY IDOCK:   -3.45 KCAL/MOL
REMARK 922        TOTAL FREE ENERGY PREDICTED BY IDOCK:   -4.61 KCAL/MOL
REMARK 923 INTER-LIGAND FREE ENERGY PREDICTED BY IDOCK:   -4.11 KCAL/MOL
REMARK 924 INTRA-LIGAND FREE ENERGY PREDICTED BY IDOCK:   -0.50 KCAL/MOL
REMARK 927      BINDING AFFINITY PREDICTED BY RF-SCORE:    0.00 PKD
ROOT
HETATM    1  C   UNL     1     -14.338   8.673  72.151  1.00  0.00    -0.427 C  
HETATM    2  S   UNL     1     -12.967   9.605  71.437  1.00  0.00    -0.394 SA 
ENDROOT
BRANCH   2   3
HETATM    3  C   UNL     1     -11.858   8.345  71.053  1.00  0.00    -0.252 A  
HETATM    4  N   UNL     1     -11.104   8.199  69.987  1.00  0.00    -0.392 NA 
HETATM    5  C   UNL     1     -10.494   6.975  70.152  1.00  0.00    -0.214 A  
HETATM    6  H   UNL     1     -10.994   8.849  69.209  1.00  0.00     0.000 HD 
HETATM    7  C   UNL     1     -10.900   6.377  71.340  1.00  0.00    -0.253 A  
HETATM    8  C   UNL     1     -10.527   5.088  71.714  1.00  0.00    -0.246 A  
HETATM    9  N   UNL     1     -11.717   7.307  71.923  1.00  0.00    -0.278 NA 
HETATM   10  C   UNL     1      -9.728   4.364  70.813  1.00  0.00    -0.201 A  
HETATM   11  C   UNL     1      -9.184   4.976  69.673  1.00  0.00    -0.118 A  
HETATM   12 CL   UNL     1      -9.604   2.668  71.154  1.00  0.00    -0.224 Cl 
HETATM   13  C   UNL     1      -9.598   6.281  69.323  1.00  0.00    -0.147 A  
BRANCH  11  14
HETATM   14  O   UNL     1      -8.345   4.420  68.726  1.00  0.00    -0.083 OA 
BRANCH  14  15
HETATM   15  C   UNL     1      -8.586   4.483  67.369  1.00  0.00    -0.104 A  
HETATM   16  C   UNL     1      -9.655   3.845  66.731  1.00  0.00    -0.222 A  
HETATM   17  C   UNL     1      -9.903   4.074  65.376  1.00  0.00    -0.192 A  
HETATM   18  C   UNL     1      -9.032   4.868  64.630  1.00  0.00    -0.111 A  
HETATM   19  C   UNL     1      -7.890   5.400  65.227  1.00  0.00    -0.097 A  
HETATM   20  C   UNL     1      -7.658   5.209  66.597  1.00  0.00    -0.088 A  
HETATM   21 CL   UNL     1      -6.807   6.294  64.215  1.00  0.00    -0.041 Cl 
HETATM   22 CL   UNL     1      -6.227   5.840  67.353  1.00  0.00    -0.029 Cl 
ENDBRANCH  14  15
ENDBRANCH  11  14
ENDBRANCH   2   3
TORSDOF 3
ENDMDL
MODEL      200
REMARK 921   NORMALIZED FREE ENERGY PREDICTED BY IDOCK:   -3.44 KCAL/MOL
REMARK 922        TOTAL FREE ENERGY PREDICTED BY IDOCK:   -4.60 KCAL/MOL
REMARK 923 INTER-LIGAND FREE ENERGY PREDICTED BY IDOCK:   -4.27 KCAL/MOL
REMARK 924 INTRA-LIGAND FREE ENERGY PREDICTED BY IDOCK:   -0.34 KCAL/MOL
REMARK 927      BINDING AFFINITY PREDICTED BY RF-SCORE:    0.00 PKD
ROOT
HETATM    1  C   UNL     1     -12.412  14.208  65.311  1.00  0.00    -0.461 C  
HETATM    2  S   UNL     1     -10.635  14.223  64.995  1.00  0.00    -0.440 SA 
ENDROOT
BRANCH   2   3
HETATM    3  C   UNL     1     -10.202  12.605  65.390  1.00  0.00    -0.284 A  
HETATM    4  N   UNL     1      -9.409  11.777  64.747  1.00  0.00    -0.423 NA 
HETATM    5  C   UNL     1      -9.496  10.592  65.445  1.00  0.00    -0.223 A  
HETATM    6  H   UNL     1      -8.852  11.969  63.915  1.00  0.00     0.000 HD 
HETATM    7  C   UNL     1     -10.366  10.717  66.523  1.00  0.00    -0.244 A  
HETATM    8  C   UNL     1     -10.730   9.649  67.341  1.00  0.00    -0.308 A  
HETATM    9  N   UNL     1     -10.745  12.031  66.499  1.00  0.00    -0.248 NA 
HETATM   10  C   UNL     1     -10.205   8.386  67.018  1.00  0.00    -0.307 A  
HETATM   11  C   UNL     1      -9.220   8.241  66.028  1.00  0.00    -0.166 A  
HETATM   12 CL   UNL     1     -10.968   7.056  67.827  1.00  0.00    -0.267 Cl 
HETATM   13  C   UNL     1      -8.889   9.348  65.213  1.00  0.00    -0.227 A  
BRANCH  11  14
HETATM   14  O   UNL     1      -8.573   7.087  65.633  1.00  0.00    -0.151 OA 
BRANCH  14  15
HETATM   15  C   UNL     1      -7.797   6.323  66.481  1.00  0.00    -0.104 A  
HETATM   16  C   UNL     1      -7.395   6.731  67.757  1.00  0.00    -0.096 A  
HETATM   17  C   UNL     1      -6.729   5.841  68.602  1.00  0.00    -0.060 A  
HETATM   18  C   UNL     1      -6.379   4.570  68.144  1.00  0.00    -0.037 A  
HETATM   19  C   UNL     1      -6.660   4.202  66.828  1.00  0.00    -0.046 A  
HETATM   20  C   UNL     1      -7.366   5.076  65.989  1.00  0.00    -0.078 A  
HETATM   21 CL   UNL     1      -6.112   2.646  66.305  1.00  0.00    -0.023 Cl 
HETATM   22 CL   UNL     1      -7.701   4.647  64.339  1.00  0.00    -0.076 Cl 
ENDBRANCH  14  15
ENDBRANCH  11  14
ENDBRANCH   2   3
TORSDOF 3
ENDMDL
MODEL      201
REMARK 921   NORMALIZED FREE ENERGY PREDICTED BY IDOCK:   -3.44 KCAL/MOL
REMARK 922        TOTAL FREE ENERGY PREDICTED BY IDOCK:   -4.60 KCAL/MOL
REMARK 923 INTER-LIGAND FREE ENERGY PREDICTED BY IDOCK:   -4.00 KCAL/MOL
REMARK 924 INTRA-LIGAND FREE ENERGY PREDICTED BY IDOCK:   -0.60 KCAL/MOL
REMARK 927      BINDING AFFINITY PREDICTED BY RF-SCORE:    0.00 PKD
ROOT
HETATM    1  C   UNL     1      -6.958  10.428  62.683  1.00  0.00    -0.125 C  
HETATM    2  S   UNL     1      -8.708  10.122  63.003  1.00  0.00    -0.238 SA 
ENDROOT
BRANCH   2   3
HETATM    3  C   UNL     1      -8.628   8.978  64.286  1.00  0.00    -0.148 A  
HETATM    4  N   UNL     1      -9.413   8.848  65.332  1.00  0.00    -0.454 NA 
HETATM    5  C   UNL     1      -8.838   7.843  66.080  1.00  0.00    -0.166 A  
HETATM    6  H   UNL     1     -10.260   9.374  65.543  1.00  0.00     0.000 HD 
HETATM    7  C   UNL     1      -7.683   7.371  65.468  1.00  0.00    -0.107 A  
HETATM    8  C   UNL     1      -6.838   6.429  66.052  1.00  0.00    -0.057 A  
HETATM    9  N   UNL     1      -7.615   8.068  64.293  1.00  0.00    -0.110 NA 
HETATM   10  C   UNL     1      -7.174   5.976  67.339  1.00  0.00    -0.076 A  
HETATM   11  C   UNL     1      -8.398   6.321  67.932  1.00  0.00    -0.118 A  
HETATM   12 CL   UNL     1      -5.915   5.104  68.152  1.00  0.00    -0.021 Cl 
HETATM   13  C   UNL     1      -9.220   7.289  67.312  1.00  0.00    -0.148 A  
BRANCH  11  14
HETATM   14  O   UNL     1      -8.895   5.919  69.157  1.00  0.00    -0.117 OA 
BRANCH  14  15
HETATM   15  C   UNL     1      -8.975   6.752  70.254  1.00  0.00    -0.152 A  
HETATM   16  C   UNL     1      -7.866   7.233  70.957  1.00  0.00    -0.097 A  
HETATM   17  C   UNL     1      -8.032   8.181  71.969  1.00  0.00    -0.160 A  
HETATM   18  C   UNL     1      -9.312   8.584  72.347  1.00  0.00    -0.349 A  
HETATM   19  C   UNL     1     -10.430   8.010  71.741  1.00  0.00    -0.229 A  
HETATM   20  C   UNL     1     -10.269   7.090  70.695  1.00  0.00    -0.191 A  
HETATM   21 CL   UNL     1     -11.986   8.491  72.328  1.00  0.00    -0.446 Cl 
HETATM   22 CL   UNL     1     -11.648   6.343  69.947  1.00  0.00    -0.490 Cl 
ENDBRANCH  14  15
ENDBRANCH  11  14
ENDBRANCH   2   3
TORSDOF 3
ENDMDL
MODEL      202
REMARK 921   NORMALIZED FREE ENERGY PREDICTED BY IDOCK:   -3.43 KCAL/MOL
REMARK 922        TOTAL FREE ENERGY PREDICTED BY IDOCK:   -4.60 KCAL/MOL
REMARK 923 INTER-LIGAND FREE ENERGY PREDICTED BY IDOCK:   -4.75 KCAL/MOL
REMARK 924 INTRA-LIGAND FREE ENERGY PREDICTED BY IDOCK:    0.15 KCAL/MOL
REMARK 927      BINDING AFFINITY PREDICTED BY RF-SCORE:    0.00 PKD
ROOT
HETATM    1  C   UNL     1      -9.585  17.709  67.680  1.00  0.00    -0.268 C  
HETATM    2  S   UNL     1      -8.813  16.919  66.253  1.00  0.00    -0.255 SA 
ENDROOT
BRANCH   2   3
HETATM    3  C   UNL     1      -9.009  15.252  66.635  1.00  0.00    -0.291 A  
HETATM    4  N   UNL     1     -10.016  14.452  66.364  1.00  0.00    -0.283 NA 
HETATM    5  C   UNL     1      -9.696  13.262  66.981  1.00  0.00    -0.238 A  
HETATM    6  H   UNL     1     -10.850  14.664  65.817  1.00  0.00     0.000 HD 
HETATM    7  C   UNL     1      -8.475  13.361  67.640  1.00  0.00    -0.187 A  
HETATM    8  C   UNL     1      -7.952  12.345  68.438  1.00  0.00    -0.149 A  
HETATM    9  N   UNL     1      -8.032  14.620  67.341  1.00  0.00    -0.190 NA 
HETATM   10  C   UNL     1      -8.733  11.188  68.598  1.00  0.00    -0.153 A  
HETATM   11  C   UNL     1      -9.901  10.992  67.845  1.00  0.00    -0.171 A  
HETATM   12 CL   UNL     1      -8.214  10.134  69.873  1.00  0.00    -0.173 Cl 
HETATM   13  C   UNL     1     -10.403  12.052  67.057  1.00  0.00    -0.235 A  
BRANCH  11  14
HETATM   14  O   UNL     1     -10.743   9.896  67.848  1.00  0.00    -0.238 OA 
BRANCH  14  15
HETATM   15  C   UNL     1     -10.690   8.902  68.803  1.00  0.00    -0.090 A  
HETATM   16  C   UNL     1     -10.163   7.627  68.580  1.00  0.00    -0.220 A  
HETATM   17  C   UNL     1     -10.022   6.728  69.639  1.00  0.00    -0.184 A  
HETATM   18  C   UNL     1     -10.493   7.064  70.908  1.00  0.00    -0.233 A  
HETATM   19  C   UNL     1     -11.141   8.283  71.111  1.00  0.00    -0.250 A  
HETATM   20  C   UNL     1     -11.247   9.206  70.061  1.00  0.00    -0.150 A  
HETATM   21 CL   UNL     1     -11.783   8.588  72.689  1.00  0.00    -0.391 Cl 
HETATM   22 CL   UNL     1     -12.074  10.717  70.285  1.00  0.00    -0.400 Cl 
ENDBRANCH  14  15
ENDBRANCH  11  14
ENDBRANCH   2   3
TORSDOF 3
ENDMDL
MODEL      203
REMARK 921   NORMALIZED FREE ENERGY PREDICTED BY IDOCK:   -3.42 KCAL/MOL
REMARK 922        TOTAL FREE ENERGY PREDICTED BY IDOCK:   -4.58 KCAL/MOL
REMARK 923 INTER-LIGAND FREE ENERGY PREDICTED BY IDOCK:   -4.15 KCAL/MOL
REMARK 924 INTRA-LIGAND FREE ENERGY PREDICTED BY IDOCK:   -0.43 KCAL/MOL
REMARK 927      BINDING AFFINITY PREDICTED BY RF-SCORE:    0.00 PKD
ROOT
HETATM    1  C   UNL     1     -10.448  17.240  66.709  1.00  0.00    -0.261 C  
HETATM    2  S   UNL     1     -10.221  16.155  65.285  1.00  0.00    -0.052 SA 
ENDROOT
BRANCH   2   3
HETATM    3  C   UNL     1      -9.975  14.632  66.049  1.00  0.00    -0.316 A  
HETATM    4  N   UNL     1      -8.911  14.179  66.674  1.00  0.00    -0.416 NA 
HETATM    5  C   UNL     1      -9.223  12.877  67.002  1.00  0.00    -0.226 A  
HETATM    6  H   UNL     1      -8.046  14.680  66.873  1.00  0.00     0.000 HD 
HETATM    7  C   UNL     1     -10.498  12.548  66.555  1.00  0.00    -0.238 A  
HETATM    8  C   UNL     1     -11.036  11.266  66.653  1.00  0.00    -0.326 A  
HETATM    9  N   UNL     1     -10.976  13.710  66.013  1.00  0.00    -0.286 NA 
HETATM   10  C   UNL     1     -10.215  10.266  67.201  1.00  0.00    -0.225 A  
HETATM   11  C   UNL     1      -8.980  10.583  67.788  1.00  0.00    -0.132 A  
HETATM   12 CL   UNL     1     -10.786   8.647  66.962  1.00  0.00    -0.286 Cl 
HETATM   13  C   UNL     1      -8.466  11.893  67.656  1.00  0.00    -0.156 A  
BRANCH  11  14
HETATM   14  O   UNL     1      -8.089   9.731  68.410  1.00  0.00    -0.102 OA 
BRANCH  14  15
HETATM   15  C   UNL     1      -8.479   8.692  69.231  1.00  0.00    -0.123 A  
HETATM   16  C   UNL     1      -9.115   8.862  70.464  1.00  0.00    -0.233 A  
HETATM   17  C   UNL     1      -9.599   7.756  71.165  1.00  0.00    -0.174 A  
HETATM   18  C   UNL     1      -9.369   6.467  70.682  1.00  0.00    -0.169 A  
HETATM   19  C   UNL     1      -8.619   6.282  69.520  1.00  0.00    -0.132 A  
HETATM   20  C   UNL     1      -8.167   7.391  68.790  1.00  0.00    -0.129 A  
HETATM   21 CL   UNL     1      -8.294   4.652  69.037  1.00  0.00    -0.081 Cl 
HETATM   22 CL   UNL     1      -7.209   7.181  67.356  1.00  0.00    -0.087 Cl 
ENDBRANCH  14  15
ENDBRANCH  11  14
ENDBRANCH   2   3
TORSDOF 3
ENDMDL
MODEL      204
REMARK 921   NORMALIZED FREE ENERGY PREDICTED BY IDOCK:   -3.38 KCAL/MOL
REMARK 922        TOTAL FREE ENERGY PREDICTED BY IDOCK:   -4.53 KCAL/MOL
REMARK 923 INTER-LIGAND FREE ENERGY PREDICTED BY IDOCK:   -4.35 KCAL/MOL
REMARK 924 INTRA-LIGAND FREE ENERGY PREDICTED BY IDOCK:   -0.18 KCAL/MOL
REMARK 927      BINDING AFFINITY PREDICTED BY RF-SCORE:    0.00 PKD
ROOT
HETATM    1  C   UNL     1     -12.335  13.530  63.542  1.00  0.00    -0.274 C  
HETATM    2  S   UNL     1     -11.934  14.294  65.128  1.00  0.00    -0.409 SA 
ENDROOT
BRANCH   2   3
HETATM    3  C   UNL     1     -10.876  13.123  65.815  1.00  0.00    -0.273 A  
HETATM    4  N   UNL     1     -10.994  11.814  65.847  1.00  0.00    -0.302 NA 
HETATM    5  C   UNL     1      -9.925  11.382  66.601  1.00  0.00    -0.208 A  
HETATM    6  H   UNL     1     -11.717  11.244  65.409  1.00  0.00     0.000 HD 
HETATM    7  C   UNL     1      -9.159  12.459  67.033  1.00  0.00    -0.207 A  
HETATM    8  C   UNL     1      -8.077  12.328  67.902  1.00  0.00    -0.155 A  
HETATM    9  N   UNL     1      -9.753  13.548  66.458  1.00  0.00    -0.277 NA 
HETATM   10  C   UNL     1      -7.788  11.038  68.378  1.00  0.00    -0.127 A  
HETATM   11  C   UNL     1      -8.446   9.911  67.862  1.00  0.00    -0.121 A  
HETATM   12 CL   UNL     1      -6.689  10.988  69.718  1.00  0.00    -0.139 Cl 
HETATM   13  C   UNL     1      -9.546  10.088  66.992  1.00  0.00    -0.212 A  
BRANCH  11  14
HETATM   14  O   UNL     1      -8.242   8.583  68.184  1.00  0.00    -0.117 OA 
BRANCH  14  15
HETATM   15  C   UNL     1      -9.066   7.562  67.755  1.00  0.00    -0.129 A  
HETATM   16  C   UNL     1     -10.327   7.293  68.294  1.00  0.00    -0.227 A  
HETATM   17  C   UNL     1     -11.151   6.330  67.708  1.00  0.00    -0.361 A  
HETATM   18  C   UNL     1     -10.683   5.566  66.639  1.00  0.00    -0.332 A  
HETATM   19  C   UNL     1      -9.377   5.736  66.180  1.00  0.00    -0.144 A  
HETATM   20  C   UNL     1      -8.560   6.731  66.737  1.00  0.00    -0.119 A  
HETATM   21 CL   UNL     1      -8.836   4.687  64.915  1.00  0.00    -0.147 Cl 
HETATM   22 CL   UNL     1      -6.921   6.940  66.198  1.00  0.00    -0.067 Cl 
ENDBRANCH  14  15
ENDBRANCH  11  14
ENDBRANCH   2   3
TORSDOF 3
ENDMDL
MODEL      205
REMARK 921   NORMALIZED FREE ENERGY PREDICTED BY IDOCK:   -3.38 KCAL/MOL
REMARK 922        TOTAL FREE ENERGY PREDICTED BY IDOCK:   -4.53 KCAL/MOL
REMARK 923 INTER-LIGAND FREE ENERGY PREDICTED BY IDOCK:   -4.08 KCAL/MOL
REMARK 924 INTRA-LIGAND FREE ENERGY PREDICTED BY IDOCK:   -0.45 KCAL/MOL
REMARK 927      BINDING AFFINITY PREDICTED BY RF-SCORE:    0.00 PKD
ROOT
HETATM    1  C   UNL     1      -9.271  18.547  67.625  1.00  0.00    -0.281 C  
HETATM    2  S   UNL     1     -10.813  17.612  67.676  1.00  0.00    -0.103 SA 
ENDROOT
BRANCH   2   3
HETATM    3  C   UNL     1     -10.239  15.994  67.550  1.00  0.00    -0.275 A  
HETATM    4  N   UNL     1     -10.870  14.920  67.132  1.00  0.00    -0.304 NA 
HETATM    5  C   UNL     1      -9.978  13.888  67.332  1.00  0.00    -0.240 A  
HETATM    6  H   UNL     1     -11.812  14.862  66.745  1.00  0.00     0.000 HD 
HETATM    7  C   UNL     1      -8.794  14.360  67.887  1.00  0.00    -0.179 A  
HETATM    8  C   UNL     1      -7.754  13.526  68.295  1.00  0.00    -0.137 A  
HETATM    9  N   UNL     1      -8.968  15.715  67.949  1.00  0.00    -0.179 NA 
HETATM   10  C   UNL     1      -7.952  12.142  68.160  1.00  0.00    -0.151 A  
HETATM   11  C   UNL     1      -9.069  11.631  67.481  1.00  0.00    -0.172 A  
HETATM   12 CL   UNL     1      -6.803  11.159  69.008  1.00  0.00    -0.082 Cl 
HETATM   13  C   UNL     1     -10.106  12.510  67.094  1.00  0.00    -0.219 A  
BRANCH  11  14
HETATM   14  O   UNL     1      -9.378  10.310  67.220  1.00  0.00    -0.148 OA 
BRANCH  14  15
HETATM   15  C   UNL     1      -9.910   9.455  68.164  1.00  0.00    -0.160 A  
HETATM   16  C   UNL     1     -10.322   9.851  69.439  1.00  0.00    -0.238 A  
HETATM   17  C   UNL     1     -10.976   8.948  70.280  1.00  0.00    -0.266 A  
HETATM   18  C   UNL     1     -11.139   7.620  69.887  1.00  0.00    -0.160 A  
HETATM   19  C   UNL     1     -10.613   7.183  68.671  1.00  0.00    -0.189 A  
HETATM   20  C   UNL     1      -9.993   8.095  67.805  1.00  0.00    -0.181 A  
HETATM   21 CL   UNL     1     -10.770   5.501  68.297  1.00  0.00    -0.213 Cl 
HETATM   22 CL   UNL     1      -9.307   7.565  66.299  1.00  0.00    -0.204 Cl 
ENDBRANCH  14  15
ENDBRANCH  11  14
ENDBRANCH   2   3
TORSDOF 3
ENDMDL
MODEL      206
REMARK 921   NORMALIZED FREE ENERGY PREDICTED BY IDOCK:   -3.36 KCAL/MOL
REMARK 922        TOTAL FREE ENERGY PREDICTED BY IDOCK:   -4.51 KCAL/MOL
REMARK 923 INTER-LIGAND FREE ENERGY PREDICTED BY IDOCK:   -4.08 KCAL/MOL
REMARK 924 INTRA-LIGAND FREE ENERGY PREDICTED BY IDOCK:   -0.42 KCAL/MOL
REMARK 927      BINDING AFFINITY PREDICTED BY RF-SCORE:    0.00 PKD
ROOT
HETATM    1  C   UNL     1     -11.452  14.930  67.561  1.00  0.00    -0.348 C  
HETATM    2  S   UNL     1     -11.945  13.304  66.953  1.00  0.00    -0.345 SA 
ENDROOT
BRANCH   2   3
HETATM    3  C   UNL     1     -10.809  12.282  67.745  1.00  0.00    -0.221 A  
HETATM    4  N   UNL     1     -11.026  11.231  68.503  1.00  0.00    -0.202 NA 
HETATM    5  C   UNL     1      -9.778  10.856  68.951  1.00  0.00    -0.187 A  
HETATM    6  H   UNL     1     -11.921  10.790  68.714  1.00  0.00     0.000 HD 
HETATM    7  C   UNL     1      -8.799  11.708  68.452  1.00  0.00    -0.161 A  
HETATM    8  C   UNL     1      -7.457  11.633  68.824  1.00  0.00    -0.114 A  
HETATM    9  N   UNL     1      -9.482  12.564  67.633  1.00  0.00    -0.182 NA 
HETATM   10  C   UNL     1      -7.110  10.663  69.779  1.00  0.00    -0.139 A  
HETATM   11  C   UNL     1      -8.036   9.697  70.202  1.00  0.00    -0.189 A  
HETATM   12 CL   UNL     1      -5.530  10.855  70.467  1.00  0.00    -0.093 Cl 
HETATM   13  C   UNL     1      -9.389   9.816  69.811  1.00  0.00    -0.249 A  
BRANCH  11  14
HETATM   14  O   UNL     1      -7.837   8.654  71.087  1.00  0.00    -0.094 OA 
BRANCH  14  15
HETATM   15  C   UNL     1      -8.382   7.399  70.914  1.00  0.00    -0.115 A  
HETATM   16  C   UNL     1      -8.061   6.542  69.858  1.00  0.00    -0.121 A  
HETATM   17  C   UNL     1      -8.555   5.236  69.836  1.00  0.00    -0.106 A  
HETATM   18  C   UNL     1      -9.446   4.808  70.821  1.00  0.00    -0.228 A  
HETATM   19  C   UNL     1      -9.876   5.699  71.805  1.00  0.00    -0.168 A  
HETATM   20  C   UNL     1      -9.351   6.998  71.856  1.00  0.00    -0.140 A  
HETATM   21 CL   UNL     1     -11.054   5.125  72.935  1.00  0.00    -0.337 Cl 
HETATM   22 CL   UNL     1      -9.893   8.130  73.057  1.00  0.00    -0.346 Cl 
ENDBRANCH  14  15
ENDBRANCH  11  14
ENDBRANCH   2   3
TORSDOF 3
ENDMDL
MODEL      207
REMARK 921   NORMALIZED FREE ENERGY PREDICTED BY IDOCK:   -3.34 KCAL/MOL
REMARK 922        TOTAL FREE ENERGY PREDICTED BY IDOCK:   -4.49 KCAL/MOL
REMARK 923 INTER-LIGAND FREE ENERGY PREDICTED BY IDOCK:   -4.68 KCAL/MOL
REMARK 924 INTRA-LIGAND FREE ENERGY PREDICTED BY IDOCK:    0.19 KCAL/MOL
REMARK 927      BINDING AFFINITY PREDICTED BY RF-SCORE:    0.00 PKD
ROOT
HETATM    1  C   UNL     1      -5.130  18.695  63.982  1.00  0.00    -0.110 C  
HETATM    2  S   UNL     1      -6.266  19.901  64.698  1.00  0.00    -0.240 SA 
ENDROOT
BRANCH   2   3
HETATM    3  C   UNL     1      -7.318  18.886  65.607  1.00  0.00    -0.092 A  
HETATM    4  N   UNL     1      -8.628  18.917  65.697  1.00  0.00    -0.177 NA 
HETATM    5  C   UNL     1      -8.940  17.951  66.629  1.00  0.00    -0.268 A  
HETATM    6  H   UNL     1      -9.273  19.523  65.190  1.00  0.00     0.000 HD 
HETATM    7  C   UNL     1      -7.788  17.337  67.108  1.00  0.00    -0.198 A  
HETATM    8  C   UNL     1      -7.793  16.397  68.137  1.00  0.00    -0.158 A  
HETATM    9  N   UNL     1      -6.777  17.908  66.385  1.00  0.00    -0.213 NA 
HETATM   10  C   UNL     1      -9.033  16.099  68.727  1.00  0.00    -0.236 A  
HETATM   11  C   UNL     1     -10.231  16.590  68.185  1.00  0.00    -0.271 A  
HETATM   12 CL   UNL     1      -8.934  15.220  70.218  1.00  0.00     0.468 Cl 
HETATM   13  C   UNL     1     -10.181  17.550  67.150  1.00  0.00    -0.323 A  
BRANCH  11  14
HETATM   14  O   UNL     1     -11.522  16.348  68.613  1.00  0.00    -0.349 OA 
BRANCH  14  15
HETATM   15  C   UNL     1     -11.851  15.349  69.506  1.00  0.00    -0.349 A  
HETATM   16  C   UNL     1     -12.091  15.561  70.867  1.00  0.00    -0.433 A  
HETATM   17  C   UNL     1     -12.553  14.516  71.671  1.00  0.00    -0.419 A  
HETATM   18  C   UNL     1     -12.689  13.233  71.141  1.00  0.00    -0.404 A  
HETATM   19  C   UNL     1     -12.325  12.984  69.818  1.00  0.00    -0.078 A  
HETATM   20  C   UNL     1     -11.901  14.037  68.994  1.00  0.00    -0.354 A  
HETATM   21 CL   UNL     1     -12.430  11.349  69.259  1.00  0.00    -0.124 Cl 
HETATM   22 CL   UNL     1     -11.416  13.743  67.352  1.00  0.00    -0.351 Cl 
ENDBRANCH  14  15
ENDBRANCH  11  14
ENDBRANCH   2   3
TORSDOF 3
ENDMDL
MODEL      208
REMARK 921   NORMALIZED FREE ENERGY PREDICTED BY IDOCK:   -3.32 KCAL/MOL
REMARK 922        TOTAL FREE ENERGY PREDICTED BY IDOCK:   -4.47 KCAL/MOL
REMARK 923 INTER-LIGAND FREE ENERGY PREDICTED BY IDOCK:   -4.63 KCAL/MOL
REMARK 924 INTRA-LIGAND FREE ENERGY PREDICTED BY IDOCK:    0.16 KCAL/MOL
REMARK 927      BINDING AFFINITY PREDICTED BY RF-SCORE:    0.00 PKD
ROOT
HETATM    1  C   UNL     1      -6.627   6.890  64.321  1.00  0.00    -0.045 C  
HETATM    2  S   UNL     1      -7.440   8.034  63.186  1.00  0.00    -0.125 SA 
ENDROOT
BRANCH   2   3
HETATM    3  C   UNL     1      -8.208   9.117  64.282  1.00  0.00    -0.161 A  
HETATM    4  N   UNL     1      -8.184   9.124  65.596  1.00  0.00    -0.116 NA 
HETATM    5  C   UNL     1      -9.043  10.139  65.958  1.00  0.00    -0.154 A  
HETATM    6  H   UNL     1      -7.648   8.513  66.212  1.00  0.00     0.000 HD 
HETATM    7  C   UNL     1      -9.594  10.744  64.834  1.00  0.00    -0.256 A  
HETATM    8  C   UNL     1     -10.578  11.729  64.900  1.00  0.00    -0.344 A  
HETATM    9  N   UNL     1      -8.989  10.114  63.782  1.00  0.00    -0.223 NA 
HETATM   10  C   UNL     1     -11.043  12.087  66.177  1.00  0.00    -0.322 A  
HETATM   11  C   UNL     1     -10.419  11.603  67.338  1.00  0.00    -0.210 A  
HETATM   12 CL   UNL     1     -12.498  13.029  66.181  1.00  0.00    -0.326 Cl 
HETATM   13  C   UNL     1      -9.434  10.596  67.227  1.00  0.00    -0.178 A  
BRANCH  11  14
HETATM   14  O   UNL     1     -10.720  11.899  68.653  1.00  0.00    -0.220 OA 
BRANCH  14  15
HETATM   15  C   UNL     1     -11.041  13.167  69.092  1.00  0.00    -0.196 A  
HETATM   16  C   UNL     1     -12.270  13.513  69.663  1.00  0.00    -0.304 A  
HETATM   17  C   UNL     1     -12.460  14.785  70.205  1.00  0.00    -0.393 A  
HETATM   18  C   UNL     1     -11.457  15.749  70.098  1.00  0.00    -0.366 A  
HETATM   19  C   UNL     1     -10.278  15.453  69.413  1.00  0.00    -0.262 A  
HETATM   20  C   UNL     1     -10.064  14.165  68.904  1.00  0.00    -0.150 A  
HETATM   21 CL   UNL     1      -9.120  16.728  69.239  1.00  0.00    -0.111 Cl 
HETATM   22 CL   UNL     1      -8.615  13.785  68.024  1.00  0.00    -0.167 Cl 
ENDBRANCH  14  15
ENDBRANCH  11  14
ENDBRANCH   2   3
TORSDOF 3
ENDMDL
MODEL      209
REMARK 921   NORMALIZED FREE ENERGY PREDICTED BY IDOCK:   -3.27 KCAL/MOL
REMARK 922        TOTAL FREE ENERGY PREDICTED BY IDOCK:   -4.40 KCAL/MOL
REMARK 923 INTER-LIGAND FREE ENERGY PREDICTED BY IDOCK:   -3.87 KCAL/MOL
REMARK 924 INTRA-LIGAND FREE ENERGY PREDICTED BY IDOCK:   -0.54 KCAL/MOL
REMARK 927      BINDING AFFINITY PREDICTED BY RF-SCORE:    0.00 PKD
ROOT
HETATM    1  C   UNL     1      -7.594  13.371  68.172  1.00  0.00    -0.138 C  
HETATM    2  S   UNL     1      -9.219  13.183  67.410  1.00  0.00    -0.223 SA 
ENDROOT
BRANCH   2   3
HETATM    3  C   UNL     1      -9.523  11.507  67.658  1.00  0.00    -0.168 A  
HETATM    4  N   UNL     1      -9.559  10.531  66.779  1.00  0.00    -0.166 NA 
HETATM    5  C   UNL     1      -9.940   9.421  67.500  1.00  0.00    -0.199 A  
HETATM    6  H   UNL     1      -9.351  10.584  65.781  1.00  0.00     0.000 HD 
HETATM    7  C   UNL     1     -10.141   9.747  68.837  1.00  0.00    -0.183 A  
HETATM    8  C   UNL     1     -10.634   8.845  69.778  1.00  0.00    -0.230 A  
HETATM    9  N   UNL     1      -9.801  11.069  68.917  1.00  0.00    -0.194 NA 
HETATM   10  C   UNL     1     -10.969   7.559  69.321  1.00  0.00    -0.038 A  
HETATM   11  C   UNL     1     -10.654   7.148  68.017  1.00  0.00    -0.196 A  
HETATM   12 CL   UNL     1     -11.906   6.615  70.434  1.00  0.00    -0.449 Cl 
HETATM   13  C   UNL     1     -10.167   8.097  67.090  1.00  0.00    -0.366 A  
BRANCH  11  14
HETATM   14  O   UNL     1     -10.868   5.912  67.437  1.00  0.00    -0.276 OA 
BRANCH  14  15
HETATM   15  C   UNL     1      -9.934   4.897  67.448  1.00  0.00    -0.168 A  
HETATM   16  C   UNL     1      -9.044   4.661  68.500  1.00  0.00    -0.157 A  
HETATM   17  C   UNL     1      -8.226   3.528  68.489  1.00  0.00    -0.084 A  
HETATM   18  C   UNL     1      -8.227   2.676  67.385  1.00  0.00    -0.083 A  
HETATM   19  C   UNL     1      -9.015   2.976  66.274  1.00  0.00    -0.150 A  
HETATM   20  C   UNL     1      -9.869   4.088  66.296  1.00  0.00    -0.159 A  
HETATM   21 CL   UNL     1      -8.891   1.925  64.905  1.00  0.00    -0.113 Cl 
HETATM   22 CL   UNL     1     -10.837   4.495  64.912  1.00  0.00    -0.123 Cl 
ENDBRANCH  14  15
ENDBRANCH  11  14
ENDBRANCH   2   3
TORSDOF 3
ENDMDL
MODEL      210
REMARK 921   NORMALIZED FREE ENERGY PREDICTED BY IDOCK:   -3.26 KCAL/MOL
REMARK 922        TOTAL FREE ENERGY PREDICTED BY IDOCK:   -4.40 KCAL/MOL
REMARK 923 INTER-LIGAND FREE ENERGY PREDICTED BY IDOCK:   -4.24 KCAL/MOL
REMARK 924 INTRA-LIGAND FREE ENERGY PREDICTED BY IDOCK:   -0.15 KCAL/MOL
REMARK 927      BINDING AFFINITY PREDICTED BY RF-SCORE:    0.00 PKD
ROOT
HETATM    1  C   UNL     1      -6.349   9.307  64.166  1.00  0.00    -0.086 C  
HETATM    2  S   UNL     1      -7.764  10.194  64.851  1.00  0.00    -0.129 SA 
ENDROOT
BRANCH   2   3
HETATM    3  C   UNL     1      -8.540   8.955  65.758  1.00  0.00    -0.160 A  
HETATM    4  N   UNL     1      -9.165   9.037  66.911  1.00  0.00    -0.137 NA 
HETATM    5  C   UNL     1      -9.505   7.739  67.221  1.00  0.00    -0.148 A  
HETATM    6  H   UNL     1      -9.357   9.878  67.456  1.00  0.00     0.000 HD 
HETATM    7  C   UNL     1      -9.066   6.864  66.234  1.00  0.00    -0.141 A  
HETATM    8  C   UNL     1      -9.177   5.479  66.334  1.00  0.00    -0.155 A  
HETATM    9  N   UNL     1      -8.516   7.679  65.283  1.00  0.00    -0.116 NA 
HETATM   10  C   UNL     1      -9.731   4.963  67.518  1.00  0.00    -0.164 A  
HETATM   11  C   UNL     1     -10.310   5.810  68.476  1.00  0.00    -0.215 A  
HETATM   12 CL   UNL     1      -9.508   3.259  67.741  1.00  0.00    -0.245 Cl 
HETATM   13  C   UNL     1     -10.165   7.209  68.342  1.00  0.00    -0.194 A  
BRANCH  11  14
HETATM   14  O   UNL     1     -10.937   5.459  69.656  1.00  0.00    -0.232 OA 
BRANCH  14  15
HETATM   15  C   UNL     1     -11.168   6.347  70.686  1.00  0.00    -0.339 A  
HETATM   16  C   UNL     1     -12.306   7.153  70.787  1.00  0.00    -0.273 A  
HETATM   17  C   UNL     1     -12.525   7.922  71.932  1.00  0.00    -0.352 A  
HETATM   18  C   UNL     1     -11.564   7.961  72.942  1.00  0.00    -0.303 A  
HETATM   19  C   UNL     1     -10.365   7.264  72.790  1.00  0.00    -0.240 A  
HETATM   20  C   UNL     1     -10.158   6.457  71.662  1.00  0.00    -0.186 A  
HETATM   21 CL   UNL     1      -9.182   7.437  74.041  1.00  0.00    -0.295 Cl 
HETATM   22 CL   UNL     1      -8.661   5.603  71.441  1.00  0.00    -0.131 Cl 
ENDBRANCH  14  15
ENDBRANCH  11  14
ENDBRANCH   2   3
TORSDOF 3
ENDMDL
MODEL      211
REMARK 921   NORMALIZED FREE ENERGY PREDICTED BY IDOCK:   -3.26 KCAL/MOL
REMARK 922        TOTAL FREE ENERGY PREDICTED BY IDOCK:   -4.40 KCAL/MOL
REMARK 923 INTER-LIGAND FREE ENERGY PREDICTED BY IDOCK:   -3.88 KCAL/MOL
REMARK 924 INTRA-LIGAND FREE ENERGY PREDICTED BY IDOCK:   -0.51 KCAL/MOL
REMARK 927      BINDING AFFINITY PREDICTED BY RF-SCORE:    0.00 PKD
ROOT
HETATM    1  C   UNL     1      -9.068  16.049  66.091  1.00  0.00    -0.351 C  
HETATM    2  S   UNL     1     -10.399  15.013  65.446  1.00  0.00    -0.397 SA 
ENDROOT
BRANCH   2   3
HETATM    3  C   UNL     1      -9.955  13.466  66.056  1.00  0.00    -0.293 A  
HETATM    4  N   UNL     1      -8.770  12.900  66.100  1.00  0.00    -0.319 NA 
HETATM    5  C   UNL     1      -9.003  11.634  66.592  1.00  0.00    -0.189 A  
HETATM    6  H   UNL     1      -7.875  13.308  65.831  1.00  0.00     0.000 HD 
HETATM    7  C   UNL     1     -10.358  11.441  66.837  1.00  0.00    -0.227 A  
HETATM    8  C   UNL     1     -10.897  10.220  67.237  1.00  0.00    -0.312 A  
HETATM    9  N   UNL     1     -10.927  12.651  66.550  1.00  0.00    -0.261 NA 
HETATM   10  C   UNL     1     -10.011   9.136  67.356  1.00  0.00    -0.206 A  
HETATM   11  C   UNL     1      -8.623   9.318  67.252  1.00  0.00    -0.125 A  
HETATM   12 CL   UNL     1     -10.775   7.586  67.493  1.00  0.00    -0.319 Cl 
HETATM   13  C   UNL     1      -8.119  10.570  66.833  1.00  0.00    -0.120 A  
BRANCH  11  14
HETATM   14  O   UNL     1      -7.626   8.373  67.396  1.00  0.00    -0.095 OA 
BRANCH  14  15
HETATM   15  C   UNL     1      -7.556   7.222  66.637  1.00  0.00    -0.093 A  
HETATM   16  C   UNL     1      -7.410   7.206  65.247  1.00  0.00    -0.080 A  
HETATM   17  C   UNL     1      -7.209   5.999  64.575  1.00  0.00    -0.063 A  
HETATM   18  C   UNL     1      -7.246   4.793  65.276  1.00  0.00    -0.068 A  
HETATM   19  C   UNL     1      -7.524   4.791  66.643  1.00  0.00    -0.086 A  
HETATM   20  C   UNL     1      -7.685   6.002  67.331  1.00  0.00    -0.097 A  
HETATM   21 CL   UNL     1      -7.649   3.252  67.425  1.00  0.00    -0.073 Cl 
HETATM   22 CL   UNL     1      -8.059   6.019  69.027  1.00  0.00    -0.106 Cl 
ENDBRANCH  14  15
ENDBRANCH  11  14
ENDBRANCH   2   3
TORSDOF 3
ENDMDL
MODEL      212
REMARK 921   NORMALIZED FREE ENERGY PREDICTED BY IDOCK:   -3.25 KCAL/MOL
REMARK 922        TOTAL FREE ENERGY PREDICTED BY IDOCK:   -4.38 KCAL/MOL
REMARK 923 INTER-LIGAND FREE ENERGY PREDICTED BY IDOCK:   -4.51 KCAL/MOL
REMARK 924 INTRA-LIGAND FREE ENERGY PREDICTED BY IDOCK:    0.13 KCAL/MOL
REMARK 927      BINDING AFFINITY PREDICTED BY RF-SCORE:    0.00 PKD
ROOT
HETATM    1  C   UNL     1     -10.524  19.817  66.089  1.00  0.00    -0.509 C  
HETATM    2  S   UNL     1      -9.858  19.522  67.740  1.00  0.00    -0.392 SA 
ENDROOT
BRANCH   2   3
HETATM    3  C   UNL     1      -9.527  17.834  67.680  1.00  0.00    -0.255 A  
HETATM    4  N   UNL     1     -10.339  16.838  67.401  1.00  0.00    -0.297 NA 
HETATM    5  C   UNL     1      -9.582  15.703  67.594  1.00  0.00    -0.220 A  
HETATM    6  H   UNL     1     -11.314  16.894  67.107  1.00  0.00     0.000 HD 
HETATM    7  C   UNL     1      -8.295  16.031  68.003  1.00  0.00    -0.162 A  
HETATM    8  C   UNL     1      -7.344  15.082  68.374  1.00  0.00    -0.112 A  
HETATM    9  N   UNL     1      -8.273  17.398  67.982  1.00  0.00    -0.223 NA 
HETATM   10  C   UNL     1      -7.744  13.735  68.359  1.00  0.00    -0.134 A  
HETATM   11  C   UNL     1      -8.983  13.351  67.824  1.00  0.00    -0.205 A  
HETATM   12 CL   UNL     1      -6.661  12.649  69.169  1.00  0.00    -0.102 Cl 
HETATM   13  C   UNL     1      -9.922  14.346  67.470  1.00  0.00    -0.224 A  
BRANCH  11  14
HETATM   14  O   UNL     1      -9.496  12.075  67.690  1.00  0.00    -0.177 OA 
BRANCH  14  15
HETATM   15  C   UNL     1      -8.999  11.148  66.797  1.00  0.00    -0.165 A  
HETATM   16  C   UNL     1      -8.186  10.069  67.156  1.00  0.00    -0.117 A  
HETATM   17  C   UNL     1      -7.843   9.101  66.210  1.00  0.00    -0.103 A  
HETATM   18  C   UNL     1      -8.232   9.255  64.879  1.00  0.00    -0.146 A  
HETATM   19  C   UNL     1      -8.931  10.396  64.485  1.00  0.00    -0.216 A  
HETATM   20  C   UNL     1      -9.315  11.350  65.439  1.00  0.00    -0.186 A  
HETATM   21 CL   UNL     1      -9.295  10.561  62.802  1.00  0.00    -0.303 Cl 
HETATM   22 CL   UNL     1     -10.161  12.791  64.963  1.00  0.00    -0.267 Cl 
ENDBRANCH  14  15
ENDBRANCH  11  14
ENDBRANCH   2   3
TORSDOF 3
ENDMDL
MODEL      213
REMARK 921   NORMALIZED FREE ENERGY PREDICTED BY IDOCK:   -3.25 KCAL/MOL
REMARK 922        TOTAL FREE ENERGY PREDICTED BY IDOCK:   -4.38 KCAL/MOL
REMARK 923 INTER-LIGAND FREE ENERGY PREDICTED BY IDOCK:   -3.90 KCAL/MOL
REMARK 924 INTRA-LIGAND FREE ENERGY PREDICTED BY IDOCK:   -0.47 KCAL/MOL
REMARK 927      BINDING AFFINITY PREDICTED BY RF-SCORE:    0.00 PKD
ROOT
HETATM    1  C   UNL     1      -9.097  19.729  66.115  1.00  0.00    -0.343 C  
HETATM    2  S   UNL     1     -10.293  18.830  67.124  1.00  0.00    -0.425 SA 
ENDROOT
BRANCH   2   3
HETATM    3  C   UNL     1      -9.535  17.291  67.264  1.00  0.00    -0.250 A  
HETATM    4  N   UNL     1      -9.930  16.126  66.803  1.00  0.00    -0.249 NA 
HETATM    5  C   UNL     1      -9.006  15.224  67.284  1.00  0.00    -0.195 A  
HETATM    6  H   UNL     1     -10.742  15.931  66.217  1.00  0.00     0.000 HD 
HETATM    7  C   UNL     1      -8.044  15.868  68.055  1.00  0.00    -0.141 A  
HETATM    8  C   UNL     1      -7.047  15.192  68.756  1.00  0.00    -0.117 A  
HETATM    9  N   UNL     1      -8.372  17.193  67.965  1.00  0.00    -0.212 NA 
HETATM   10  C   UNL     1      -7.058  13.788  68.693  1.00  0.00    -0.104 A  
HETATM   11  C   UNL     1      -7.922  13.108  67.820  1.00  0.00    -0.162 A  
HETATM   12 CL   UNL     1      -6.044  13.002  69.859  1.00  0.00    -0.136 Cl 
HETATM   13  C   UNL     1      -8.926  13.830  67.137  1.00  0.00    -0.241 A  
BRANCH  11  14
HETATM   14  O   UNL     1      -8.017  11.746  67.605  1.00  0.00    -0.127 OA 
BRANCH  14  15
HETATM   15  C   UNL     1      -8.702  10.891  68.444  1.00  0.00    -0.147 A  
HETATM   16  C   UNL     1     -10.054  11.027  68.769  1.00  0.00    -0.214 A  
HETATM   17  C   UNL     1     -10.702  10.039  69.514  1.00  0.00    -0.269 A  
HETATM   18  C   UNL     1      -9.979   8.957  70.017  1.00  0.00    -0.204 A  
HETATM   19  C   UNL     1      -8.602   8.882  69.809  1.00  0.00    -0.134 A  
HETATM   20  C   UNL     1      -7.955   9.848  69.026  1.00  0.00    -0.101 A  
HETATM   21 CL   UNL     1      -7.759   7.561  70.544  1.00  0.00    -0.093 Cl 
HETATM   22 CL   UNL     1      -6.236   9.787  68.779  1.00  0.00    -0.042 Cl 
ENDBRANCH  14  15
ENDBRANCH  11  14
ENDBRANCH   2   3
TORSDOF 3
ENDMDL
MODEL      214
REMARK 921   NORMALIZED FREE ENERGY PREDICTED BY IDOCK:   -3.22 KCAL/MOL
REMARK 922        TOTAL FREE ENERGY PREDICTED BY IDOCK:   -4.34 KCAL/MOL
REMARK 923 INTER-LIGAND FREE ENERGY PREDICTED BY IDOCK:   -4.24 KCAL/MOL
REMARK 924 INTRA-LIGAND FREE ENERGY PREDICTED BY IDOCK:   -0.11 KCAL/MOL
REMARK 927      BINDING AFFINITY PREDICTED BY RF-SCORE:    0.00 PKD
ROOT
HETATM    1  C   UNL     1      -7.719   9.610  63.960  1.00  0.00    -0.128 C  
HETATM    2  S   UNL     1      -9.033  10.525  64.793  1.00  0.00    -0.213 SA 
ENDROOT
BRANCH   2   3
HETATM    3  C   UNL     1      -9.585   9.366  65.940  1.00  0.00    -0.270 A  
HETATM    4  N   UNL     1     -10.223   9.557  67.072  1.00  0.00    -0.241 NA 
HETATM    5  C   UNL     1     -10.330   8.303  67.632  1.00  0.00    -0.248 A  
HETATM    6  H   UNL     1     -10.563  10.440  67.453  1.00  0.00     0.000 HD 
HETATM    7  C   UNL     1      -9.737   7.346  66.816  1.00  0.00    -0.207 A  
HETATM    8  C   UNL     1      -9.601   6.007  67.181  1.00  0.00    -0.134 A  
HETATM    9  N   UNL     1      -9.332   8.047  65.714  1.00  0.00    -0.021 NA 
HETATM   10  C   UNL     1     -10.064   5.639  68.455  1.00  0.00    -0.182 A  
HETATM   11  C   UNL     1     -10.791   6.539  69.251  1.00  0.00    -0.307 A  
HETATM   12 CL   UNL     1      -9.545   4.074  68.992  1.00  0.00    -0.243 Cl 
HETATM   13  C   UNL     1     -10.894   7.890  68.850  1.00  0.00    -0.008 A  
BRANCH  11  14
HETATM   14  O   UNL     1     -11.354   6.316  70.493  1.00  0.00    -0.337 OA 
BRANCH  14  15
HETATM   15  C   UNL     1     -10.616   5.992  71.613  1.00  0.00    -0.236 A  
HETATM   16  C   UNL     1     -10.410   4.686  72.067  1.00  0.00    -0.234 A  
HETATM   17  C   UNL     1      -9.537   4.440  73.128  1.00  0.00    -0.149 A  
HETATM   18  C   UNL     1      -8.937   5.504  73.802  1.00  0.00    -0.124 A  
HETATM   19  C   UNL     1      -9.241   6.816  73.441  1.00  0.00    -0.138 A  
HETATM   20  C   UNL     1     -10.083   7.069  72.349  1.00  0.00    -0.174 A  
HETATM   21 CL   UNL     1      -8.532   8.083  74.384  1.00  0.00    -0.262 Cl 
HETATM   22 CL   UNL     1     -10.495   8.696  71.901  1.00  0.00    -0.383 Cl 
ENDBRANCH  14  15
ENDBRANCH  11  14
ENDBRANCH   2   3
TORSDOF 3
ENDMDL
MODEL      215
REMARK 921   NORMALIZED FREE ENERGY PREDICTED BY IDOCK:   -3.19 KCAL/MOL
REMARK 922        TOTAL FREE ENERGY PREDICTED BY IDOCK:   -4.31 KCAL/MOL
REMARK 923 INTER-LIGAND FREE ENERGY PREDICTED BY IDOCK:   -3.86 KCAL/MOL
REMARK 924 INTRA-LIGAND FREE ENERGY PREDICTED BY IDOCK:   -0.45 KCAL/MOL
REMARK 927      BINDING AFFINITY PREDICTED BY RF-SCORE:    0.00 PKD
ROOT
HETATM    1  C   UNL     1      -5.480   3.665  68.588  1.00  0.00    -0.013 C  
HETATM    2  S   UNL     1      -5.368   4.160  66.856  1.00  0.00    -0.013 SA 
ENDROOT
BRANCH   2   3
HETATM    3  C   UNL     1      -6.344   5.578  66.840  1.00  0.00    -0.039 A  
HETATM    4  N   UNL     1      -6.058   6.778  66.386  1.00  0.00    -0.032 NA 
HETATM    5  C   UNL     1      -7.153   7.548  66.713  1.00  0.00    -0.083 A  
HETATM    6  H   UNL     1      -5.213   7.074  65.899  1.00  0.00     0.000 HD 
HETATM    7  C   UNL     1      -8.108   6.790  67.382  1.00  0.00    -0.118 A  
HETATM    8  C   UNL     1      -9.271   7.332  67.927  1.00  0.00    -0.131 A  
HETATM    9  N   UNL     1      -7.591   5.524  67.386  1.00  0.00    -0.088 NA 
HETATM   10  C   UNL     1      -9.447   8.721  67.811  1.00  0.00    -0.142 A  
HETATM   11  C   UNL     1      -8.581   9.499  67.027  1.00  0.00    -0.128 A  
HETATM   12 CL   UNL     1     -10.702   9.379  68.809  1.00  0.00    -0.229 Cl 
HETATM   13  C   UNL     1      -7.406   8.913  66.503  1.00  0.00    -0.085 A  
BRANCH  11  14
HETATM   14  O   UNL     1      -8.648  10.855  66.772  1.00  0.00    -0.130 OA 
BRANCH  14  15
HETATM   15  C   UNL     1      -9.433  11.402  65.777  1.00  0.00    -0.233 A  
HETATM   16  C   UNL     1      -9.619  10.825  64.517  1.00  0.00    -0.322 A  
HETATM   17  C   UNL     1     -10.538  11.373  63.621  1.00  0.00    -0.476 A  
HETATM   18  C   UNL     1     -11.208  12.554  63.941  1.00  0.00    -0.496 A  
HETATM   19  C   UNL     1     -10.930  13.209  65.141  1.00  0.00    -0.298 A  
HETATM   20  C   UNL     1     -10.040  12.641  66.063  1.00  0.00    -0.262 A  
HETATM   21 CL   UNL     1     -11.730  14.717  65.425  1.00  0.00    -0.324 Cl 
HETATM   22 CL   UNL     1      -9.660  13.455  67.550  1.00  0.00    -0.215 Cl 
ENDBRANCH  14  15
ENDBRANCH  11  14
ENDBRANCH   2   3
TORSDOF 3
ENDMDL
MODEL      216
REMARK 921   NORMALIZED FREE ENERGY PREDICTED BY IDOCK:   -3.18 KCAL/MOL
REMARK 922        TOTAL FREE ENERGY PREDICTED BY IDOCK:   -4.30 KCAL/MOL
REMARK 923 INTER-LIGAND FREE ENERGY PREDICTED BY IDOCK:   -4.71 KCAL/MOL
REMARK 924 INTRA-LIGAND FREE ENERGY PREDICTED BY IDOCK:    0.40 KCAL/MOL
REMARK 927      BINDING AFFINITY PREDICTED BY RF-SCORE:    0.00 PKD
ROOT
HETATM    1  C   UNL     1     -11.067   9.698  68.866  1.00  0.00    -0.059 C  
HETATM    2  S   UNL     1     -12.189  11.028  69.346  1.00  0.00    -0.139 SA 
ENDROOT
BRANCH   2   3
HETATM    3  C   UNL     1     -11.173  12.409  69.187  1.00  0.00    -0.236 A  
HETATM    4  N   UNL     1     -11.174  13.525  69.881  1.00  0.00    -0.479 NA 
HETATM    5  C   UNL     1     -10.228  14.319  69.272  1.00  0.00    -0.015 A  
HETATM    6  H   UNL     1     -11.749  13.752  70.692  1.00  0.00     0.000 HD 
HETATM    7  C   UNL     1      -9.657  13.663  68.187  1.00  0.00    -0.221 A  
HETATM    8  C   UNL     1      -8.747  14.266  67.321  1.00  0.00    -0.230 A  
HETATM    9  N   UNL     1     -10.233  12.423  68.202  1.00  0.00    -0.219 NA 
HETATM   10  C   UNL     1      -8.434  15.616  67.556  1.00  0.00    -0.167 A  
HETATM   11  C   UNL     1      -8.879  16.272  68.715  1.00  0.00    -0.243 A  
HETATM   12 CL   UNL     1      -7.601  16.404  66.257  1.00  0.00    -0.198 Cl 
HETATM   13  C   UNL     1      -9.810  15.628  69.561  1.00  0.00    -0.289 A  
BRANCH  11  14
HETATM   14  O   UNL     1      -8.616  17.568  69.114  1.00  0.00    -0.087 OA 
BRANCH  14  15
HETATM   15  C   UNL     1      -8.465  18.618  68.231  1.00  0.00    -0.324 A  
HETATM   16  C   UNL     1      -7.350  19.460  68.198  1.00  0.00    -0.330 A  
HETATM   17  C   UNL     1      -7.217  20.410  67.183  1.00  0.00    -0.347 A  
HETATM   18  C   UNL     1      -8.240  20.586  66.251  1.00  0.00     0.014 A  
HETATM   19  C   UNL     1      -9.414  19.841  66.356  1.00  0.00    -0.403 A  
HETATM   20  C   UNL     1      -9.536  18.856  67.347  1.00  0.00    -0.297 A  
HETATM   21 CL   UNL     1     -10.675  20.182  65.222  1.00  0.00    -0.209 Cl 
HETATM   22 CL   UNL     1     -11.001  17.937  67.512  1.00  0.00    -0.227 Cl 
ENDBRANCH  14  15
ENDBRANCH  11  14
ENDBRANCH   2   3
TORSDOF 3
ENDMDL
MODEL      217
REMARK 921   NORMALIZED FREE ENERGY PREDICTED BY IDOCK:   -3.18 KCAL/MOL
REMARK 922        TOTAL FREE ENERGY PREDICTED BY IDOCK:   -4.30 KCAL/MOL
REMARK 923 INTER-LIGAND FREE ENERGY PREDICTED BY IDOCK:   -3.81 KCAL/MOL
REMARK 924 INTRA-LIGAND FREE ENERGY PREDICTED BY IDOCK:   -0.49 KCAL/MOL
REMARK 927      BINDING AFFINITY PREDICTED BY RF-SCORE:    0.00 PKD
ROOT
HETATM    1  C   UNL     1     -10.642  18.578  67.426  1.00  0.00    -0.424 C  
HETATM    2  S   UNL     1      -9.033  19.034  68.104  1.00  0.00    -0.326 SA 
ENDROOT
BRANCH   2   3
HETATM    3  C   UNL     1      -8.261  17.500  68.218  1.00  0.00    -0.263 A  
HETATM    4  N   UNL     1      -8.448  16.420  67.493  1.00  0.00    -0.167 NA 
HETATM    5  C   UNL     1      -7.646  15.462  68.074  1.00  0.00    -0.127 A  
HETATM    6  H   UNL     1      -9.055  16.314  66.680  1.00  0.00     0.000 HD 
HETATM    7  C   UNL     1      -6.972  15.983  69.173  1.00  0.00    -0.189 A  
HETATM    8  C   UNL     1      -6.173  15.213  70.016  1.00  0.00    -0.152 A  
HETATM    9  N   UNL     1      -7.333  17.302  69.195  1.00  0.00    -0.207 NA 
HETATM   10  C   UNL     1      -6.089  13.838  69.741  1.00  0.00    -0.127 A  
HETATM   11  C   UNL     1      -6.639  13.298  68.568  1.00  0.00    -0.089 A  
HETATM   12 CL   UNL     1      -5.395  12.885  71.013  1.00  0.00    -0.173 Cl 
HETATM   13  C   UNL     1      -7.452  14.111  67.746  1.00  0.00    -0.174 A  
BRANCH  11  14
HETATM   14  O   UNL     1      -6.596  11.988  68.131  1.00  0.00    -0.050 OA 
BRANCH  14  15
HETATM   15  C   UNL     1      -7.453  11.007  68.588  1.00  0.00    -0.112 A  
HETATM   16  C   UNL     1      -7.342  10.387  69.836  1.00  0.00    -0.149 A  
HETATM   17  C   UNL     1      -8.332   9.505  70.274  1.00  0.00    -0.221 A  
HETATM   18  C   UNL     1      -9.390   9.167  69.430  1.00  0.00    -0.160 A  
HETATM   19  C   UNL     1      -9.438   9.679  68.133  1.00  0.00    -0.132 A  
HETATM   20  C   UNL     1      -8.469  10.598  67.703  1.00  0.00    -0.118 A  
HETATM   21 CL   UNL     1     -10.728   9.139  67.113  1.00  0.00    -0.286 Cl 
HETATM   22 CL   UNL     1      -8.496  11.225  66.083  1.00  0.00    -0.164 Cl 
ENDBRANCH  14  15
ENDBRANCH  11  14
ENDBRANCH   2   3
TORSDOF 3
ENDMDL
MODEL      218
REMARK 921   NORMALIZED FREE ENERGY PREDICTED BY IDOCK:   -3.16 KCAL/MOL
REMARK 922        TOTAL FREE ENERGY PREDICTED BY IDOCK:   -4.28 KCAL/MOL
REMARK 923 INTER-LIGAND FREE ENERGY PREDICTED BY IDOCK:   -3.87 KCAL/MOL
REMARK 924 INTRA-LIGAND FREE ENERGY PREDICTED BY IDOCK:   -0.41 KCAL/MOL
REMARK 927      BINDING AFFINITY PREDICTED BY RF-SCORE:    0.00 PKD
ROOT
HETATM    1  C   UNL     1      -5.813   8.212  62.701  1.00  0.00    -0.074 C  
HETATM    2  S   UNL     1      -6.718   6.696  63.074  1.00  0.00    -0.043 SA 
ENDROOT
BRANCH   2   3
HETATM    3  C   UNL     1      -7.465   7.100  64.571  1.00  0.00    -0.099 A  
HETATM    4  N   UNL     1      -7.367   8.205  65.276  1.00  0.00    -0.071 NA 
HETATM    5  C   UNL     1      -8.087   7.955  66.424  1.00  0.00    -0.108 A  
HETATM    6  H   UNL     1      -6.867   9.059  65.028  1.00  0.00     0.000 HD 
HETATM    7  C   UNL     1      -8.620   6.671  66.403  1.00  0.00    -0.130 A  
HETATM    8  C   UNL     1      -9.304   6.109  67.479  1.00  0.00    -0.113 A  
HETATM    9  N   UNL     1      -8.262   6.178  65.178  1.00  0.00    -0.139 NA 
HETATM   10  C   UNL     1      -9.418   6.886  68.644  1.00  0.00    -0.134 A  
HETATM   11  C   UNL     1      -9.018   8.231  68.660  1.00  0.00    -0.137 A  
HETATM   12 CL   UNL     1      -9.943   6.015  70.048  1.00  0.00    -0.213 Cl 
HETATM   13  C   UNL     1      -8.316   8.758  67.552  1.00  0.00    -0.109 A  
BRANCH  11  14
HETATM   14  O   UNL     1      -9.111   9.135  69.700  1.00  0.00    -0.145 OA 
BRANCH  14  15
HETATM   15  C   UNL     1     -10.304   9.683  70.125  1.00  0.00    -0.266 A  
HETATM   16  C   UNL     1     -11.279   8.982  70.841  1.00  0.00    -0.348 A  
HETATM   17  C   UNL     1     -12.394   9.651  71.351  1.00  0.00    -0.468 A  
HETATM   18  C   UNL     1     -12.587  11.003  71.070  1.00  0.00    -0.512 A  
HETATM   19  C   UNL     1     -11.687  11.679  70.245  1.00  0.00    -0.266 A  
HETATM   20  C   UNL     1     -10.544  11.024  69.765  1.00  0.00    -0.001 A  
HETATM   21 CL   UNL     1     -12.045  13.329  69.864  1.00  0.00    -0.390 Cl 
HETATM   22 CL   UNL     1      -9.426  11.840  68.715  1.00  0.00    -0.100 Cl 
ENDBRANCH  14  15
ENDBRANCH  11  14
ENDBRANCH   2   3
TORSDOF 3
ENDMDL
MODEL      219
REMARK 921   NORMALIZED FREE ENERGY PREDICTED BY IDOCK:   -3.16 KCAL/MOL
REMARK 922        TOTAL FREE ENERGY PREDICTED BY IDOCK:   -4.27 KCAL/MOL
REMARK 923 INTER-LIGAND FREE ENERGY PREDICTED BY IDOCK:   -3.64 KCAL/MOL
REMARK 924 INTRA-LIGAND FREE ENERGY PREDICTED BY IDOCK:   -0.63 KCAL/MOL
REMARK 927      BINDING AFFINITY PREDICTED BY RF-SCORE:    0.00 PKD
ROOT
HETATM    1  C   UNL     1     -12.425  12.436  63.464  1.00  0.00    -0.500 C  
HETATM    2  S   UNL     1     -11.495  12.957  64.921  1.00  0.00    -0.331 SA 
ENDROOT
BRANCH   2   3
HETATM    3  C   UNL     1     -10.327  11.699  65.051  1.00  0.00    -0.281 A  
HETATM    4  N   UNL     1     -10.246  10.569  64.385  1.00  0.00    -0.330 NA 
HETATM    5  C   UNL     1      -9.184   9.900  64.954  1.00  0.00    -0.246 A  
HETATM    6  H   UNL     1     -10.839  10.256  63.616  1.00  0.00     0.000 HD 
HETATM    7  C   UNL     1      -8.626  10.647  65.985  1.00  0.00    -0.173 A  
HETATM    8  C   UNL     1      -7.606  10.172  66.808  1.00  0.00    -0.105 A  
HETATM    9  N   UNL     1      -9.334  11.817  65.975  1.00  0.00    -0.229 NA 
HETATM   10  C   UNL     1      -7.162   8.858  66.586  1.00  0.00    -0.085 A  
HETATM   11  C   UNL     1      -7.600   8.122  65.474  1.00  0.00    -0.087 A  
HETATM   12 CL   UNL     1      -6.172   8.204  67.850  1.00  0.00    -0.050 Cl 
HETATM   13  C   UNL     1      -8.644   8.635  64.671  1.00  0.00    -0.116 A  
BRANCH  11  14
HETATM   14  O   UNL     1      -7.221   6.850  65.090  1.00  0.00    -0.068 OA 
BRANCH  14  15
HETATM   15  C   UNL     1      -7.902   5.710  65.464  1.00  0.00    -0.100 A  
HETATM   16  C   UNL     1      -7.940   5.211  66.769  1.00  0.00    -0.104 A  
HETATM   17  C   UNL     1      -8.766   4.131  67.086  1.00  0.00    -0.115 A  
HETATM   18  C   UNL     1      -9.489   3.485  66.082  1.00  0.00    -0.149 A  
HETATM   19  C   UNL     1      -9.355   3.894  64.755  1.00  0.00    -0.157 A  
HETATM   20  C   UNL     1      -8.560   5.004  64.437  1.00  0.00    -0.135 A  
HETATM   21 CL   UNL     1     -10.208   2.985  63.555  1.00  0.00    -0.167 Cl 
HETATM   22 CL   UNL     1      -8.358   5.511  62.788  1.00  0.00    -0.112 Cl 
ENDBRANCH  14  15
ENDBRANCH  11  14
ENDBRANCH   2   3
TORSDOF 3
ENDMDL
MODEL      220
REMARK 921   NORMALIZED FREE ENERGY PREDICTED BY IDOCK:   -3.15 KCAL/MOL
REMARK 922        TOTAL FREE ENERGY PREDICTED BY IDOCK:   -4.26 KCAL/MOL
REMARK 923 INTER-LIGAND FREE ENERGY PREDICTED BY IDOCK:   -3.67 KCAL/MOL
REMARK 924 INTRA-LIGAND FREE ENERGY PREDICTED BY IDOCK:   -0.59 KCAL/MOL
REMARK 927      BINDING AFFINITY PREDICTED BY RF-SCORE:    0.00 PKD
ROOT
HETATM    1  C   UNL     1      -6.490   9.108  63.313  1.00  0.00    -0.090 C  
HETATM    2  S   UNL     1      -8.076   9.710  63.929  1.00  0.00    -0.165 SA 
ENDROOT
BRANCH   2   3
HETATM    3  C   UNL     1      -8.589   8.388  64.904  1.00  0.00    -0.080 A  
HETATM    4  N   UNL     1      -9.402   8.385  65.937  1.00  0.00    -0.387 NA 
HETATM    5  C   UNL     1      -9.384   7.086  66.395  1.00  0.00    -0.138 A  
HETATM    6  H   UNL     1      -9.931   9.171  66.315  1.00  0.00     0.000 HD 
HETATM    7  C   UNL     1      -8.536   6.302  65.621  1.00  0.00    -0.139 A  
HETATM    8  C   UNL     1      -8.240   4.972  65.918  1.00  0.00    -0.114 A  
HETATM    9  N   UNL     1      -8.099   7.146  64.639  1.00  0.00    -0.115 NA 
HETATM   10  C   UNL     1      -8.812   4.432  67.083  1.00  0.00    -0.114 A  
HETATM   11  C   UNL     1      -9.778   5.142  67.813  1.00  0.00    -0.148 A  
HETATM   12 CL   UNL     1      -8.129   2.923  67.594  1.00  0.00    -0.074 Cl 
HETATM   13  C   UNL     1     -10.040   6.492  67.485  1.00  0.00    -0.193 A  
BRANCH  11  14
HETATM   14  O   UNL     1     -10.467   4.733  68.938  1.00  0.00    -0.027 OA 
BRANCH  14  15
HETATM   15  C   UNL     1      -9.998   4.915  70.223  1.00  0.00    -0.251 A  
HETATM   16  C   UNL     1      -8.947   4.184  70.786  1.00  0.00    -0.152 A  
HETATM   17  C   UNL     1      -8.446   4.527  72.043  1.00  0.00    -0.116 A  
HETATM   18  C   UNL     1      -9.051   5.543  72.784  1.00  0.00    -0.134 A  
HETATM   19  C   UNL     1     -10.183   6.188  72.286  1.00  0.00    -0.185 A  
HETATM   20  C   UNL     1     -10.665   5.877  71.007  1.00  0.00    -0.267 A  
HETATM   21 CL   UNL     1     -10.935   7.369  73.303  1.00  0.00    -0.413 Cl 
HETATM   22 CL   UNL     1     -12.089   6.650  70.381  1.00  0.00    -0.368 Cl 
ENDBRANCH  14  15
ENDBRANCH  11  14
ENDBRANCH   2   3
TORSDOF 3
ENDMDL
MODEL      221
REMARK 921   NORMALIZED FREE ENERGY PREDICTED BY IDOCK:   -3.13 KCAL/MOL
REMARK 922        TOTAL FREE ENERGY PREDICTED BY IDOCK:   -4.24 KCAL/MOL
REMARK 923 INTER-LIGAND FREE ENERGY PREDICTED BY IDOCK:   -3.79 KCAL/MOL
REMARK 924 INTRA-LIGAND FREE ENERGY PREDICTED BY IDOCK:   -0.45 KCAL/MOL
REMARK 927      BINDING AFFINITY PREDICTED BY RF-SCORE:    0.00 PKD
ROOT
HETATM    1  C   UNL     1      -7.461   2.850  74.367  1.00  0.00    -0.047 C  
HETATM    2  S   UNL     1      -7.948   1.857  72.941  1.00  0.00    -0.053 SA 
ENDROOT
BRANCH   2   3
HETATM    3  C   UNL     1      -8.906   2.978  72.053  1.00  0.00    -0.082 A  
HETATM    4  N   UNL     1      -8.884   3.254  70.769  1.00  0.00    -0.076 NA 
HETATM    5  C   UNL     1      -9.782   4.288  70.615  1.00  0.00    -0.204 A  
HETATM    6  H   UNL     1      -8.325   2.802  70.045  1.00  0.00     0.000 HD 
HETATM    7  C   UNL     1     -10.345   4.638  71.837  1.00  0.00    -0.150 A  
HETATM    8  C   UNL     1     -11.206   5.721  72.000  1.00  0.00    -0.307 A  
HETATM    9  N   UNL     1      -9.816   3.738  72.721  1.00  0.00    -0.139 NA 
HETATM   10  C   UNL     1     -11.475   6.504  70.865  1.00  0.00    -0.351 A  
HETATM   11  C   UNL     1     -11.040   6.107  69.591  1.00  0.00    -0.419 A  
HETATM   12 CL   UNL     1     -12.239   8.024  71.196  1.00  0.00    -0.291 Cl 
HETATM   13  C   UNL     1     -10.158   5.009  69.471  1.00  0.00    -0.301 A  
BRANCH  11  14
HETATM   14  O   UNL     1     -11.265   6.733  68.380  1.00  0.00    -0.174 OA 
BRANCH  14  15
HETATM   15  C   UNL     1     -10.551   7.832  67.949  1.00  0.00    -0.156 A  
HETATM   16  C   UNL     1     -10.777   9.138  68.394  1.00  0.00    -0.163 A  
HETATM   17  C   UNL     1      -9.918  10.170  68.011  1.00  0.00    -0.173 A  
HETATM   18  C   UNL     1      -8.884   9.921  67.108  1.00  0.00    -0.146 A  
HETATM   19  C   UNL     1      -8.733   8.648  66.556  1.00  0.00    -0.126 A  
HETATM   20  C   UNL     1      -9.566   7.599  66.969  1.00  0.00    -0.175 A  
HETATM   21 CL   UNL     1      -7.488   8.439  65.372  1.00  0.00    -0.083 Cl 
HETATM   22 CL   UNL     1      -9.411   6.014  66.274  1.00  0.00    -0.171 Cl 
ENDBRANCH  14  15
ENDBRANCH  11  14
ENDBRANCH   2   3
TORSDOF 3
ENDMDL
MODEL      222
REMARK 921   NORMALIZED FREE ENERGY PREDICTED BY IDOCK:   -3.08 KCAL/MOL
REMARK 922        TOTAL FREE ENERGY PREDICTED BY IDOCK:   -4.18 KCAL/MOL
REMARK 923 INTER-LIGAND FREE ENERGY PREDICTED BY IDOCK:   -3.66 KCAL/MOL
REMARK 924 INTRA-LIGAND FREE ENERGY PREDICTED BY IDOCK:   -0.52 KCAL/MOL
REMARK 927      BINDING AFFINITY PREDICTED BY RF-SCORE:    0.00 PKD
ROOT
HETATM    1  C   UNL     1      -7.588   5.333  73.905  1.00  0.00    -0.094 C  
HETATM    2  S   UNL     1      -7.471   4.734  72.206  1.00  0.00    -0.086 SA 
ENDROOT
BRANCH   2   3
HETATM    3  C   UNL     1      -7.976   6.118  71.317  1.00  0.00    -0.113 A  
HETATM    4  N   UNL     1      -8.270   7.323  71.753  1.00  0.00    -0.103 NA 
HETATM    5  C   UNL     1      -8.705   8.005  70.637  1.00  0.00    -0.131 A  
HETATM    6  H   UNL     1      -8.194   7.675  72.707  1.00  0.00     0.000 HD 
HETATM    7  C   UNL     1      -8.674   7.184  69.515  1.00  0.00    -0.134 A  
HETATM    8  C   UNL     1      -9.158   7.575  68.268  1.00  0.00    -0.132 A  
HETATM    9  N   UNL     1      -8.140   6.010  69.970  1.00  0.00    -0.112 NA 
HETATM   10  C   UNL     1      -9.733   8.854  68.175  1.00  0.00    -0.160 A  
HETATM   11  C   UNL     1      -9.660   9.761  69.244  1.00  0.00    -0.197 A  
HETATM   12 CL   UNL     1     -10.636   9.140  66.723  1.00  0.00    -0.261 Cl 
HETATM   13  C   UNL     1      -9.172   9.321  70.495  1.00  0.00    -0.311 A  
BRANCH  11  14
HETATM   14  O   UNL     1     -10.126  11.061  69.291  1.00  0.00    -0.189 OA 
BRANCH  14  15
HETATM   15  C   UNL     1      -9.607  12.082  68.521  1.00  0.00    -0.143 A  
HETATM   16  C   UNL     1      -8.259  12.192  68.168  1.00  0.00    -0.164 A  
HETATM   17  C   UNL     1      -7.844  13.179  67.272  1.00  0.00    -0.125 A  
HETATM   18  C   UNL     1      -8.758  14.118  66.794  1.00  0.00    -0.148 A  
HETATM   19  C   UNL     1     -10.079  14.096  67.244  1.00  0.00    -0.256 A  
HETATM   20  C   UNL     1     -10.510  13.082  68.111  1.00  0.00    -0.245 A  
HETATM   21 CL   UNL     1     -11.130  15.351  66.680  1.00  0.00    -0.283 Cl 
HETATM   22 CL   UNL     1     -12.143  13.054  68.703  1.00  0.00    -0.277 Cl 
ENDBRANCH  14  15
ENDBRANCH  11  14
ENDBRANCH   2   3
TORSDOF 3
ENDMDL
MODEL      223
REMARK 921   NORMALIZED FREE ENERGY PREDICTED BY IDOCK:   -3.08 KCAL/MOL
REMARK 922        TOTAL FREE ENERGY PREDICTED BY IDOCK:   -4.18 KCAL/MOL
REMARK 923 INTER-LIGAND FREE ENERGY PREDICTED BY IDOCK:   -3.92 KCAL/MOL
REMARK 924 INTRA-LIGAND FREE ENERGY PREDICTED BY IDOCK:   -0.26 KCAL/MOL
REMARK 927      BINDING AFFINITY PREDICTED BY RF-SCORE:    0.00 PKD
ROOT
HETATM    1  C   UNL     1     -13.195  10.503  71.905  1.00  0.00    -0.420 C  
HETATM    2  S   UNL     1     -12.223  11.081  70.498  1.00  0.00    -0.400 SA 
ENDROOT
BRANCH   2   3
HETATM    3  C   UNL     1     -11.224   9.715  70.185  1.00  0.00    -0.256 A  
HETATM    4  N   UNL     1     -10.395   9.503  69.188  1.00  0.00    -0.199 NA 
HETATM    5  C   UNL     1      -9.935   8.218  69.379  1.00  0.00    -0.188 A  
HETATM    6  H   UNL     1     -10.146  10.149  68.438  1.00  0.00     0.000 HD 
HETATM    7  C   UNL     1     -10.510   7.652  70.511  1.00  0.00    -0.220 A  
HETATM    8  C   UNL     1     -10.310   6.325  70.887  1.00  0.00    -0.253 A  
HETATM    9  N   UNL     1     -11.273   8.655  71.040  1.00  0.00    -0.261 NA 
HETATM   10  C   UNL     1      -9.513   5.531  70.044  1.00  0.00    -0.159 A  
HETATM   11  C   UNL     1      -8.806   6.097  68.972  1.00  0.00    -0.123 A  
HETATM   12 CL   UNL     1      -9.601   3.828  70.355  1.00  0.00    -0.258 Cl 
HETATM   13  C   UNL     1      -9.046   7.444  68.617  1.00  0.00    -0.134 A  
BRANCH  11  14
HETATM   14  O   UNL     1      -7.947   5.468  68.091  1.00  0.00    -0.095 OA 
BRANCH  14  15
HETATM   15  C   UNL     1      -8.042   5.591  66.720  1.00  0.00    -0.105 A  
HETATM   16  C   UNL     1      -7.428   6.604  65.979  1.00  0.00    -0.081 A  
HETATM   17  C   UNL     1      -7.462   6.574  64.583  1.00  0.00    -0.089 A  
HETATM   18  C   UNL     1      -8.187   5.582  63.922  1.00  0.00    -0.110 A  
HETATM   19  C   UNL     1      -8.913   4.644  64.657  1.00  0.00    -0.151 A  
HETATM   20  C   UNL     1      -8.848   4.644  66.058  1.00  0.00    -0.121 A  
HETATM   21 CL   UNL     1      -9.865   3.505  63.768  1.00  0.00    -0.152 Cl 
HETATM   22 CL   UNL     1      -9.766   3.502  66.990  1.00  0.00    -0.147 Cl 
ENDBRANCH  14  15
ENDBRANCH  11  14
ENDBRANCH   2   3
TORSDOF 3
ENDMDL
MODEL      224
REMARK 921   NORMALIZED FREE ENERGY PREDICTED BY IDOCK:   -3.06 KCAL/MOL
REMARK 922        TOTAL FREE ENERGY PREDICTED BY IDOCK:   -4.16 KCAL/MOL
REMARK 923 INTER-LIGAND FREE ENERGY PREDICTED BY IDOCK:   -3.62 KCAL/MOL
REMARK 924 INTRA-LIGAND FREE ENERGY PREDICTED BY IDOCK:   -0.53 KCAL/MOL
REMARK 927      BINDING AFFINITY PREDICTED BY RF-SCORE:    0.00 PKD
ROOT
HETATM    1  C   UNL     1      -7.974   2.765  73.905  1.00  0.00    -0.060 C  
HETATM    2  S   UNL     1      -7.542   2.535  72.168  1.00  0.00    -0.049 SA 
ENDROOT
BRANCH   2   3
HETATM    3  C   UNL     1      -8.039   4.037  71.489  1.00  0.00    -0.077 A  
HETATM    4  N   UNL     1      -8.303   5.174  72.092  1.00  0.00    -0.123 NA 
HETATM    5  C   UNL     1      -8.746   6.010  71.091  1.00  0.00    -0.132 A  
HETATM    6  H   UNL     1      -8.201   5.390  73.084  1.00  0.00     0.000 HD 
HETATM    7  C   UNL     1      -8.752   5.352  69.866  1.00  0.00    -0.121 A  
HETATM    8  C   UNL     1      -9.254   5.918  68.695  1.00  0.00    -0.120 A  
HETATM    9  N   UNL     1      -8.231   4.118  70.143  1.00  0.00    -0.057 NA 
HETATM   10  C   UNL     1      -9.808   7.206  68.792  1.00  0.00    -0.158 A  
HETATM   11  C   UNL     1      -9.697   7.956  69.973  1.00  0.00    -0.179 A  
HETATM   12 CL   UNL     1     -10.733   7.703  67.413  1.00  0.00    -0.344 Cl 
HETATM   13  C   UNL     1      -9.193   7.340  71.140  1.00  0.00    -0.156 A  
BRANCH  11  14
HETATM   14  O   UNL     1     -10.138   9.244  70.209  1.00  0.00    -0.189 OA 
BRANCH  14  15
HETATM   15  C   UNL     1      -9.790  10.322  69.420  1.00  0.00    -0.227 A  
HETATM   16  C   UNL     1      -8.481  10.620  69.031  1.00  0.00    -0.148 A  
HETATM   17  C   UNL     1      -8.235  11.649  68.119  1.00  0.00    -0.151 A  
HETATM   18  C   UNL     1      -9.286  12.444  67.661  1.00  0.00    -0.188 A  
HETATM   19  C   UNL     1     -10.578  12.237  68.146  1.00  0.00    -0.214 A  
HETATM   20  C   UNL     1     -10.837  11.180  69.030  1.00  0.00    -0.231 A  
HETATM   21 CL   UNL     1     -11.812  13.324  67.606  1.00  0.00    -0.400 Cl 
HETATM   22 CL   UNL     1     -12.434  10.923  69.666  1.00  0.00    -0.300 Cl 
ENDBRANCH  14  15
ENDBRANCH  11  14
ENDBRANCH   2   3
TORSDOF 3
ENDMDL
MODEL      225
REMARK 921   NORMALIZED FREE ENERGY PREDICTED BY IDOCK:   -3.05 KCAL/MOL
REMARK 922        TOTAL FREE ENERGY PREDICTED BY IDOCK:   -4.14 KCAL/MOL
REMARK 923 INTER-LIGAND FREE ENERGY PREDICTED BY IDOCK:   -4.37 KCAL/MOL
REMARK 924 INTRA-LIGAND FREE ENERGY PREDICTED BY IDOCK:    0.22 KCAL/MOL
REMARK 927      BINDING AFFINITY PREDICTED BY RF-SCORE:    0.00 PKD
ROOT
HETATM    1  C   UNL     1     -12.211  13.358  63.353  1.00  0.00    -0.349 C  
HETATM    2  S   UNL     1     -11.613  11.761  63.944  1.00  0.00    -0.334 SA 
ENDROOT
BRANCH   2   3
HETATM    3  C   UNL     1     -10.593  12.237  65.246  1.00  0.00    -0.287 A  
HETATM    4  N   UNL     1     -10.154  13.435  65.562  1.00  0.00    -0.390 NA 
HETATM    5  C   UNL     1      -9.301  13.229  66.625  1.00  0.00    -0.242 A  
HETATM    6  H   UNL     1     -10.393  14.322  65.119  1.00  0.00     0.000 HD 
HETATM    7  C   UNL     1      -9.227  11.877  66.942  1.00  0.00    -0.193 A  
HETATM    8  C   UNL     1      -8.359  11.364  67.905  1.00  0.00    -0.137 A  
HETATM    9  N   UNL     1     -10.114  11.281  66.089  1.00  0.00    -0.228 NA 
HETATM   10  C   UNL     1      -7.503  12.275  68.548  1.00  0.00    -0.113 A  
HETATM   11  C   UNL     1      -7.642  13.659  68.358  1.00  0.00    -0.132 A  
HETATM   12 CL   UNL     1      -6.214  11.546  69.450  1.00  0.00    -0.083 Cl 
HETATM   13  C   UNL     1      -8.525  14.136  67.363  1.00  0.00    -0.214 A  
BRANCH  11  14
HETATM   14  O   UNL     1      -6.920  14.677  68.950  1.00  0.00    -0.098 OA 
BRANCH  14  15
HETATM   15  C   UNL     1      -6.971  15.989  68.528  1.00  0.00    -0.131 A  
HETATM   16  C   UNL     1      -5.951  16.624  67.814  1.00  0.00    -0.154 A  
HETATM   17  C   UNL     1      -6.143  17.911  67.306  1.00  0.00    -0.166 A  
HETATM   18  C   UNL     1      -7.320  18.605  67.587  1.00  0.00    -0.235 A  
HETATM   19  C   UNL     1      -8.289  18.029  68.409  1.00  0.00    -0.298 A  
HETATM   20  C   UNL     1      -8.120  16.722  68.887  1.00  0.00    -0.230 A  
HETATM   21 CL   UNL     1      -9.678  18.988  68.790  1.00  0.00    -0.458 Cl 
HETATM   22 CL   UNL     1      -9.302  15.998  69.935  1.00  0.00     0.104 Cl 
ENDBRANCH  14  15
ENDBRANCH  11  14
ENDBRANCH   2   3
TORSDOF 3
ENDMDL
MODEL      226
REMARK 921   NORMALIZED FREE ENERGY PREDICTED BY IDOCK:   -3.04 KCAL/MOL
REMARK 922        TOTAL FREE ENERGY PREDICTED BY IDOCK:   -4.14 KCAL/MOL
REMARK 923 INTER-LIGAND FREE ENERGY PREDICTED BY IDOCK:   -4.01 KCAL/MOL
REMARK 924 INTRA-LIGAND FREE ENERGY PREDICTED BY IDOCK:   -0.13 KCAL/MOL
REMARK 927      BINDING AFFINITY PREDICTED BY RF-SCORE:    0.00 PKD
ROOT
HETATM    1  C   UNL     1     -12.836  12.576  71.206  1.00  0.00    -0.241 C  
HETATM    2  S   UNL     1     -12.036  11.997  69.695  1.00  0.00    -0.180 SA 
ENDROOT
BRANCH   2   3
HETATM    3  C   UNL     1     -11.339  10.514  70.222  1.00  0.00    -0.327 A  
HETATM    4  N   UNL     1     -10.337   9.839  69.706  1.00  0.00    -0.227 NA 
HETATM    5  C   UNL     1     -10.264   8.687  70.459  1.00  0.00    -0.197 A  
HETATM    6  H   UNL     1      -9.744  10.108  68.921  1.00  0.00     0.000 HD 
HETATM    7  C   UNL     1     -11.249   8.676  71.440  1.00  0.00    -0.277 A  
HETATM    8  C   UNL     1     -11.481   7.587  72.280  1.00  0.00    -0.348 A  
HETATM    9  N   UNL     1     -11.873   9.885  71.305  1.00  0.00    -0.373 NA 
HETATM   10  C   UNL     1     -10.689   6.444  72.081  1.00  0.00    -0.227 A  
HETATM   11  C   UNL     1      -9.597   6.462  71.199  1.00  0.00    -0.174 A  
HETATM   12 CL   UNL     1     -11.258   5.019  72.888  1.00  0.00    -0.345 Cl 
HETATM   13  C   UNL     1      -9.405   7.582  70.358  1.00  0.00    -0.161 A  
BRANCH  11  14
HETATM   14  O   UNL     1      -8.698   5.447  70.935  1.00  0.00    -0.129 OA 
BRANCH  14  15
HETATM   15  C   UNL     1      -8.502   4.917  69.676  1.00  0.00    -0.083 A  
HETATM   16  C   UNL     1      -9.252   3.865  69.141  1.00  0.00    -0.222 A  
HETATM   17  C   UNL     1      -9.078   3.483  67.810  1.00  0.00    -0.197 A  
HETATM   18  C   UNL     1      -8.090   4.087  67.032  1.00  0.00    -0.096 A  
HETATM   19  C   UNL     1      -7.248   5.045  67.597  1.00  0.00    -0.070 A  
HETATM   20  C   UNL     1      -7.445   5.462  68.921  1.00  0.00    -0.075 A  
HETATM   21 CL   UNL     1      -5.985   5.679  66.598  1.00  0.00    -0.018 Cl 
HETATM   22 CL   UNL     1      -6.390   6.634  69.650  1.00  0.00    -0.041 Cl 
ENDBRANCH  14  15
ENDBRANCH  11  14
ENDBRANCH   2   3
TORSDOF 3
ENDMDL
MODEL      227
REMARK 921   NORMALIZED FREE ENERGY PREDICTED BY IDOCK:   -3.03 KCAL/MOL
REMARK 922        TOTAL FREE ENERGY PREDICTED BY IDOCK:   -4.13 KCAL/MOL
REMARK 923 INTER-LIGAND FREE ENERGY PREDICTED BY IDOCK:   -3.55 KCAL/MOL
REMARK 924 INTRA-LIGAND FREE ENERGY PREDICTED BY IDOCK:   -0.57 KCAL/MOL
REMARK 927      BINDING AFFINITY PREDICTED BY RF-SCORE:    0.00 PKD
ROOT
HETATM    1  C   UNL     1     -10.496  16.706  65.655  1.00  0.00    -0.297 C  
HETATM    2  S   UNL     1      -8.825  17.037  66.252  1.00  0.00    -0.224 SA 
ENDROOT
BRANCH   2   3
HETATM    3  C   UNL     1      -8.362  15.493  66.855  1.00  0.00    -0.255 A  
HETATM    4  N   UNL     1      -9.050  14.374  66.886  1.00  0.00    -0.241 NA 
HETATM    5  C   UNL     1      -8.243  13.483  67.559  1.00  0.00    -0.183 A  
HETATM    6  H   UNL     1      -9.977  14.202  66.497  1.00  0.00     0.000 HD 
HETATM    7  C   UNL     1      -7.052  14.089  67.943  1.00  0.00    -0.160 A  
HETATM    8  C   UNL     1      -6.092  13.458  68.732  1.00  0.00    -0.086 A  
HETATM    9  N   UNL     1      -7.131  15.349  67.419  1.00  0.00    -0.193 NA 
HETATM   10  C   UNL     1      -6.382  12.157  69.178  1.00  0.00    -0.094 A  
HETATM   11  C   UNL     1      -7.504  11.461  68.703  1.00  0.00    -0.119 A  
HETATM   12 CL   UNL     1      -5.341  11.573  70.435  1.00  0.00    -0.103 Cl 
HETATM   13  C   UNL     1      -8.459  12.142  67.914  1.00  0.00    -0.163 A  
BRANCH  11  14
HETATM   14  O   UNL     1      -7.895  10.170  69.001  1.00  0.00    -0.090 OA 
BRANCH  14  15
HETATM   15  C   UNL     1      -8.010   9.173  68.053  1.00  0.00    -0.101 A  
HETATM   16  C   UNL     1      -6.983   8.798  67.181  1.00  0.00    -0.071 A  
HETATM   17  C   UNL     1      -7.139   7.688  66.349  1.00  0.00    -0.071 A  
HETATM   18  C   UNL     1      -8.353   7.002  66.316  1.00  0.00    -0.129 A  
HETATM   19  C   UNL     1      -9.427   7.451  67.086  1.00  0.00    -0.149 A  
HETATM   20  C   UNL     1      -9.264   8.539  67.955  1.00  0.00    -0.139 A  
HETATM   21 CL   UNL     1     -10.929   6.607  66.920  1.00  0.00    -0.451 Cl 
HETATM   22 CL   UNL     1     -10.596   9.129  68.901  1.00  0.00    -0.235 Cl 
ENDBRANCH  14  15
ENDBRANCH  11  14
ENDBRANCH   2   3
TORSDOF 3
ENDMDL
MODEL      228
REMARK 921   NORMALIZED FREE ENERGY PREDICTED BY IDOCK:   -3.03 KCAL/MOL
REMARK 922        TOTAL FREE ENERGY PREDICTED BY IDOCK:   -4.12 KCAL/MOL
REMARK 923 INTER-LIGAND FREE ENERGY PREDICTED BY IDOCK:   -4.10 KCAL/MOL
REMARK 924 INTRA-LIGAND FREE ENERGY PREDICTED BY IDOCK:   -0.02 KCAL/MOL
REMARK 927      BINDING AFFINITY PREDICTED BY RF-SCORE:    0.00 PKD
ROOT
HETATM    1  C   UNL     1     -11.479  14.893  67.734  1.00  0.00    -0.338 C  
HETATM    2  S   UNL     1     -10.166  14.370  68.857  1.00  0.00    -0.177 SA 
ENDROOT
BRANCH   2   3
HETATM    3  C   UNL     1     -10.009  12.705  68.449  1.00  0.00    -0.210 A  
HETATM    4  N   UNL     1     -10.945  11.825  68.176  1.00  0.00    -0.213 NA 
HETATM    5  C   UNL     1     -10.274  10.632  68.019  1.00  0.00    -0.175 A  
HETATM    6  H   UNL     1     -11.949  11.989  68.098  1.00  0.00     0.000 HD 
HETATM    7  C   UNL     1      -8.907  10.807  68.210  1.00  0.00    -0.139 A  
HETATM    8  C   UNL     1      -7.995   9.754  68.217  1.00  0.00    -0.096 A  
HETATM    9  N   UNL     1      -8.765  12.152  68.414  1.00  0.00    -0.168 NA 
HETATM   10  C   UNL     1      -8.511   8.457  68.057  1.00  0.00    -0.132 A  
HETATM   11  C   UNL     1      -9.859   8.248  67.726  1.00  0.00    -0.170 A  
HETATM   12 CL   UNL     1      -7.400   7.182  68.438  1.00  0.00    -0.097 Cl 
HETATM   13  C   UNL     1     -10.753   9.343  67.740  1.00  0.00    -0.290 A  
BRANCH  11  14
HETATM   14  O   UNL     1     -10.502   7.050  67.485  1.00  0.00    -0.196 OA 
BRANCH  14  15
HETATM   15  C   UNL     1     -10.030   5.832  67.931  1.00  0.00    -0.137 A  
HETATM   16  C   UNL     1      -9.378   4.898  67.121  1.00  0.00    -0.139 A  
HETATM   17  C   UNL     1      -8.811   3.753  67.683  1.00  0.00    -0.138 A  
HETATM   18  C   UNL     1      -8.971   3.489  69.044  1.00  0.00    -0.182 A  
HETATM   19  C   UNL     1      -9.733   4.349  69.835  1.00  0.00    -0.221 A  
HETATM   20  C   UNL     1     -10.270   5.522  69.284  1.00  0.00    -0.245 A  
HETATM   21 CL   UNL     1      -9.967   3.905  71.491  1.00  0.00    -0.241 Cl 
HETATM   22 CL   UNL     1     -11.245   6.590  70.247  1.00  0.00    -0.398 Cl 
ENDBRANCH  14  15
ENDBRANCH  11  14
ENDBRANCH   2   3
TORSDOF 3
ENDMDL
MODEL      229
REMARK 921   NORMALIZED FREE ENERGY PREDICTED BY IDOCK:   -2.99 KCAL/MOL
REMARK 922        TOTAL FREE ENERGY PREDICTED BY IDOCK:   -4.08 KCAL/MOL
REMARK 923 INTER-LIGAND FREE ENERGY PREDICTED BY IDOCK:   -4.04 KCAL/MOL
REMARK 924 INTRA-LIGAND FREE ENERGY PREDICTED BY IDOCK:   -0.04 KCAL/MOL
REMARK 927      BINDING AFFINITY PREDICTED BY RF-SCORE:    0.00 PKD
ROOT
HETATM    1  C   UNL     1     -12.890  12.296  71.026  1.00  0.00    -0.160 C  
HETATM    2  S   UNL     1     -11.820  11.611  69.744  1.00  0.00    -0.359 SA 
ENDROOT
BRANCH   2   3
HETATM    3  C   UNL     1     -11.096  10.287  70.571  1.00  0.00    -0.306 A  
HETATM    4  N   UNL     1      -9.904   9.758  70.409  1.00  0.00    -0.334 NA 
HETATM    5  C   UNL     1      -9.883   8.671  71.255  1.00  0.00    -0.238 A  
HETATM    6  H   UNL     1      -9.159  10.081  69.792  1.00  0.00     0.000 HD 
HETATM    7  C   UNL     1     -11.092   8.548  71.930  1.00  0.00    -0.325 A  
HETATM    8  C   UNL     1     -11.394   7.478  72.771  1.00  0.00    -0.388 A  
HETATM    9  N   UNL     1     -11.818   9.633  71.523  1.00  0.00    -0.390 NA 
HETATM   10  C   UNL     1     -10.424   6.469  72.898  1.00  0.00    -0.222 A  
HETATM   11  C   UNL     1      -9.142   6.621  72.347  1.00  0.00    -0.135 A  
HETATM   12 CL   UNL     1     -10.988   5.011  73.648  1.00  0.00    -0.373 Cl 
HETATM   13  C   UNL     1      -8.882   7.715  71.490  1.00  0.00    -0.138 A  
BRANCH  11  14
HETATM   14  O   UNL     1      -8.071   5.753  72.428  1.00  0.00    -0.106 OA 
BRANCH  14  15
HETATM   15  C   UNL     1      -8.171   4.399  72.181  1.00  0.00    -0.107 A  
HETATM   16  C   UNL     1      -8.332   3.430  73.176  1.00  0.00    -0.078 A  
HETATM   17  C   UNL     1      -8.563   2.097  72.829  1.00  0.00    -0.063 A  
HETATM   18  C   UNL     1      -8.544   1.710  71.489  1.00  0.00    -0.076 A  
HETATM   19  C   UNL     1      -8.253   2.646  70.498  1.00  0.00    -0.045 A  
HETATM   20  C   UNL     1      -8.061   3.994  70.837  1.00  0.00    -0.067 A  
HETATM   21 CL   UNL     1      -8.153   2.072  68.868  1.00  0.00    -0.059 Cl 
HETATM   22 CL   UNL     1      -7.671   5.170  69.619  1.00  0.00    -0.068 Cl 
ENDBRANCH  14  15
ENDBRANCH  11  14
ENDBRANCH   2   3
TORSDOF 3
ENDMDL
MODEL      230
REMARK 921   NORMALIZED FREE ENERGY PREDICTED BY IDOCK:   -2.97 KCAL/MOL
REMARK 922        TOTAL FREE ENERGY PREDICTED BY IDOCK:   -4.06 KCAL/MOL
REMARK 923 INTER-LIGAND FREE ENERGY PREDICTED BY IDOCK:   -3.48 KCAL/MOL
REMARK 924 INTRA-LIGAND FREE ENERGY PREDICTED BY IDOCK:   -0.57 KCAL/MOL
REMARK 927      BINDING AFFINITY PREDICTED BY RF-SCORE:    0.00 PKD
ROOT
HETATM    1  C   UNL     1      -8.265  14.426  68.225  1.00  0.00    -0.149 C  
HETATM    2  S   UNL     1      -7.943  13.159  66.981  1.00  0.00     0.116 SA 
ENDROOT
BRANCH   2   3
HETATM    3  C   UNL     1      -8.371  11.725  67.832  1.00  0.00    -0.149 A  
HETATM    4  N   UNL     1      -7.610  10.924  68.543  1.00  0.00    -0.103 NA 
HETATM    5  C   UNL     1      -8.440   9.887  68.913  1.00  0.00    -0.127 A  
HETATM    6  H   UNL     1      -6.623  11.042  68.771  1.00  0.00     0.000 HD 
HETATM    7  C   UNL     1      -9.720  10.075  68.404  1.00  0.00    -0.146 A  
HETATM    8  C   UNL     1     -10.739   9.132  68.529  1.00  0.00    -0.160 A  
HETATM    9  N   UNL     1      -9.660  11.289  67.778  1.00  0.00    -0.171 NA 
HETATM   10  C   UNL     1     -10.420   7.925  69.176  1.00  0.00    -0.209 A  
HETATM   11  C   UNL     1      -9.187   7.753  69.822  1.00  0.00    -0.150 A  
HETATM   12 CL   UNL     1     -11.595   6.666  68.980  1.00  0.00    -0.148 Cl 
HETATM   13  C   UNL     1      -8.177   8.728  69.660  1.00  0.00    -0.113 A  
BRANCH  11  14
HETATM   14  O   UNL     1      -8.747   6.657  70.540  1.00  0.00    -0.141 OA 
BRANCH  14  15
HETATM   15  C   UNL     1      -9.146   6.386  71.832  1.00  0.00    -0.145 A  
HETATM   16  C   UNL     1      -8.915   7.235  72.919  1.00  0.00    -0.168 A  
HETATM   17  C   UNL     1      -9.474   6.948  74.166  1.00  0.00    -0.283 A  
HETATM   18  C   UNL     1     -10.189   5.766  74.357  1.00  0.00    -0.296 A  
HETATM   19  C   UNL     1     -10.312   4.850  73.313  1.00  0.00    -0.186 A  
HETATM   20  C   UNL     1      -9.789   5.151  72.047  1.00  0.00    -0.171 A  
HETATM   21 CL   UNL     1     -11.130   3.363  73.653  1.00  0.00    -0.324 Cl 
HETATM   22 CL   UNL     1      -9.907   4.011  70.741  1.00  0.00    -0.261 Cl 
ENDBRANCH  14  15
ENDBRANCH  11  14
ENDBRANCH   2   3
TORSDOF 3
ENDMDL
MODEL      231
REMARK 921   NORMALIZED FREE ENERGY PREDICTED BY IDOCK:   -2.89 KCAL/MOL
REMARK 922        TOTAL FREE ENERGY PREDICTED BY IDOCK:   -3.96 KCAL/MOL
REMARK 923 INTER-LIGAND FREE ENERGY PREDICTED BY IDOCK:   -3.90 KCAL/MOL
REMARK 924 INTRA-LIGAND FREE ENERGY PREDICTED BY IDOCK:   -0.06 KCAL/MOL
REMARK 927      BINDING AFFINITY PREDICTED BY RF-SCORE:    0.00 PKD
ROOT
HETATM    1  C   UNL     1      -5.638   3.299  68.884  1.00  0.00    -0.021 C  
HETATM    2  S   UNL     1      -5.405   4.376  67.454  1.00  0.00    -0.013 SA 
ENDROOT
BRANCH   2   3
HETATM    3  C   UNL     1      -6.288   5.775  67.930  1.00  0.00    -0.041 A  
HETATM    4  N   UNL     1      -7.583   5.992  67.891  1.00  0.00    -0.095 NA 
HETATM    5  C   UNL     1      -7.733   7.301  68.294  1.00  0.00    -0.120 A  
HETATM    6  H   UNL     1      -8.316   5.336  67.622  1.00  0.00     0.000 HD 
HETATM    7  C   UNL     1      -6.498   7.876  68.572  1.00  0.00    -0.053 A  
HETATM    8  C   UNL     1      -6.337   9.222  68.898  1.00  0.00    -0.044 A  
HETATM    9  N   UNL     1      -5.604   6.856  68.396  1.00  0.00    -0.016 NA 
HETATM   10  C   UNL     1      -7.491  10.023  68.905  1.00  0.00    -0.083 A  
HETATM   11  C   UNL     1      -8.768   9.457  68.767  1.00  0.00    -0.131 A  
HETATM   12 CL   UNL     1      -7.188  11.730  68.952  1.00  0.00    -0.113 Cl 
HETATM   13  C   UNL     1      -8.887   8.091  68.425  1.00  0.00    -0.134 A  
BRANCH  11  14
HETATM   14  O   UNL     1      -9.992  10.097  68.804  1.00  0.00    -0.165 OA 
BRANCH  14  15
HETATM   15  C   UNL     1     -10.915   9.910  69.812  1.00  0.00    -0.268 A  
HETATM   16  C   UNL     1     -11.222   8.668  70.375  1.00  0.00    -0.236 A  
HETATM   17  C   UNL     1     -12.067   8.587  71.484  1.00  0.00    -0.351 A  
HETATM   18  C   UNL     1     -12.681   9.737  71.980  1.00  0.00    -0.463 A  
HETATM   19  C   UNL     1     -12.484  10.962  71.342  1.00  0.00    -0.355 A  
HETATM   20  C   UNL     1     -11.605  11.056  70.254  1.00  0.00    -0.322 A  
HETATM   21 CL   UNL     1     -13.355  12.326  71.957  1.00  0.00    -0.578 Cl 
HETATM   22 CL   UNL     1     -11.368  12.567  69.430  1.00  0.00    -0.300 Cl 
ENDBRANCH  14  15
ENDBRANCH  11  14
ENDBRANCH   2   3
TORSDOF 3
ENDMDL
MODEL      232
REMARK 921   NORMALIZED FREE ENERGY PREDICTED BY IDOCK:   -2.88 KCAL/MOL
REMARK 922        TOTAL FREE ENERGY PREDICTED BY IDOCK:   -3.95 KCAL/MOL
REMARK 923 INTER-LIGAND FREE ENERGY PREDICTED BY IDOCK:   -3.46 KCAL/MOL
REMARK 924 INTRA-LIGAND FREE ENERGY PREDICTED BY IDOCK:   -0.49 KCAL/MOL
REMARK 927      BINDING AFFINITY PREDICTED BY RF-SCORE:    0.00 PKD
ROOT
HETATM    1  C   UNL     1     -10.880   5.798  73.545  1.00  0.00    -0.237 C  
HETATM    2  S   UNL     1     -10.356   4.273  72.735  1.00  0.00    -0.176 SA 
ENDROOT
BRANCH   2   3
HETATM    3  C   UNL     1      -9.995   4.834  71.148  1.00  0.00    -0.202 A  
HETATM    4  N   UNL     1      -9.935   6.066  70.697  1.00  0.00    -0.180 NA 
HETATM    5  C   UNL     1      -9.705   5.935  69.344  1.00  0.00    -0.152 A  
HETATM    6  H   UNL     1     -10.036   6.930  71.230  1.00  0.00     0.000 HD 
HETATM    7  C   UNL     1      -9.634   4.595  68.984  1.00  0.00    -0.172 A  
HETATM    8  C   UNL     1      -9.516   4.163  67.664  1.00  0.00    -0.225 A  
HETATM    9  N   UNL     1      -9.754   3.920  70.167  1.00  0.00    -0.199 NA 
HETATM   10  C   UNL     1      -9.507   5.150  66.664  1.00  0.00    -0.144 A  
HETATM   11  C   UNL     1      -9.438   6.513  66.991  1.00  0.00    -0.138 A  
HETATM   12 CL   UNL     1      -9.728   4.552  65.052  1.00  0.00    -0.161 Cl 
HETATM   13  C   UNL     1      -9.573   6.909  68.341  1.00  0.00    -0.126 A  
BRANCH  11  14
HETATM   14  O   UNL     1      -9.369   7.593  66.133  1.00  0.00    -0.159 OA 
BRANCH  14  15
HETATM   15  C   UNL     1      -8.429   8.597  66.250  1.00  0.00    -0.125 A  
HETATM   16  C   UNL     1      -7.053   8.404  66.105  1.00  0.00    -0.076 A  
HETATM   17  C   UNL     1      -6.185   9.498  66.102  1.00  0.00    -0.068 A  
HETATM   18  C   UNL     1      -6.678  10.782  66.336  1.00  0.00    -0.131 A  
HETATM   19  C   UNL     1      -8.033  10.968  66.614  1.00  0.00    -0.156 A  
HETATM   20  C   UNL     1      -8.915   9.879  66.576  1.00  0.00    -0.146 A  
HETATM   21 CL   UNL     1      -8.552  12.576  66.988  1.00  0.00    -0.197 Cl 
HETATM   22 CL   UNL     1     -10.600  10.086  66.946  1.00  0.00    -0.286 Cl 
ENDBRANCH  14  15
ENDBRANCH  11  14
ENDBRANCH   2   3
TORSDOF 3
ENDMDL
MODEL      233
REMARK 921   NORMALIZED FREE ENERGY PREDICTED BY IDOCK:   -2.87 KCAL/MOL
REMARK 922        TOTAL FREE ENERGY PREDICTED BY IDOCK:   -3.94 KCAL/MOL
REMARK 923 INTER-LIGAND FREE ENERGY PREDICTED BY IDOCK:   -3.57 KCAL/MOL
REMARK 924 INTRA-LIGAND FREE ENERGY PREDICTED BY IDOCK:   -0.36 KCAL/MOL
REMARK 927      BINDING AFFINITY PREDICTED BY RF-SCORE:    0.00 PKD
ROOT
HETATM    1  C   UNL     1      -6.422  16.232  68.599  1.00  0.00    -0.126 C  
HETATM    2  S   UNL     1      -5.227  14.886  68.459  1.00  0.00    -0.109 SA 
ENDROOT
BRANCH   2   3
HETATM    3  C   UNL     1      -6.264  13.526  68.257  1.00  0.00    -0.105 A  
HETATM    4  N   UNL     1      -6.817  12.761  69.171  1.00  0.00    -0.211 NA 
HETATM    5  C   UNL     1      -7.462  11.773  68.460  1.00  0.00    -0.110 A  
HETATM    6  H   UNL     1      -6.778  12.874  70.184  1.00  0.00     0.000 HD 
HETATM    7  C   UNL     1      -7.281  11.951  67.093  1.00  0.00    -0.144 A  
HETATM    8  C   UNL     1      -7.731  11.042  66.136  1.00  0.00    -0.102 A  
HETATM    9  N   UNL     1      -6.571  13.116  66.996  1.00  0.00    -0.009 NA 
HETATM   10  C   UNL     1      -8.364   9.879  66.605  1.00  0.00    -0.125 A  
HETATM   11  C   UNL     1      -8.688   9.726  67.962  1.00  0.00    -0.118 A  
HETATM   12 CL   UNL     1      -8.567   8.634  65.415  1.00  0.00    -0.193 Cl 
HETATM   13  C   UNL     1      -8.202  10.664  68.900  1.00  0.00    -0.145 A  
BRANCH  11  14
HETATM   14  O   UNL     1      -9.350   8.675  68.566  1.00  0.00    -0.138 OA 
BRANCH  14  15
HETATM   15  C   UNL     1     -10.193   8.831  69.648  1.00  0.00    -0.210 A  
HETATM   16  C   UNL     1     -11.407   9.523  69.603  1.00  0.00    -0.069 A  
HETATM   17  C   UNL     1     -12.263   9.513  70.707  1.00  0.00    -0.269 A  
HETATM   18  C   UNL     1     -11.869   8.891  71.892  1.00  0.00    -0.440 A  
HETATM   19  C   UNL     1     -10.604   8.312  71.988  1.00  0.00    -0.296 A  
HETATM   20  C   UNL     1      -9.758   8.281  70.870  1.00  0.00    -0.172 A  
HETATM   21 CL   UNL     1     -10.150   7.644  73.518  1.00  0.00    -0.378 Cl 
HETATM   22 CL   UNL     1      -8.167   7.590  70.977  1.00  0.00    -0.107 Cl 
ENDBRANCH  14  15
ENDBRANCH  11  14
ENDBRANCH   2   3
TORSDOF 3
ENDMDL
MODEL      234
REMARK 921   NORMALIZED FREE ENERGY PREDICTED BY IDOCK:   -2.87 KCAL/MOL
REMARK 922        TOTAL FREE ENERGY PREDICTED BY IDOCK:   -3.93 KCAL/MOL
REMARK 923 INTER-LIGAND FREE ENERGY PREDICTED BY IDOCK:   -3.73 KCAL/MOL
REMARK 924 INTRA-LIGAND FREE ENERGY PREDICTED BY IDOCK:   -0.20 KCAL/MOL
REMARK 927      BINDING AFFINITY PREDICTED BY RF-SCORE:    0.00 PKD
ROOT
HETATM    1  C   UNL     1      -8.048  16.207  66.809  1.00  0.00    -0.270 C  
HETATM    2  S   UNL     1      -9.569  15.451  67.418  1.00  0.00    -0.210 SA 
ENDROOT
BRANCH   2   3
HETATM    3  C   UNL     1      -8.993  13.934  67.992  1.00  0.00    -0.184 A  
HETATM    4  N   UNL     1      -9.660  12.825  68.217  1.00  0.00    -0.231 NA 
HETATM    5  C   UNL     1      -8.733  11.960  68.757  1.00  0.00     0.061 A  
HETATM    6  H   UNL     1     -10.646  12.643  68.033  1.00  0.00     0.000 HD 
HETATM    7  C   UNL     1      -7.489  12.573  68.861  1.00  0.00     0.011 A  
HETATM    8  C   UNL     1      -6.388  11.972  69.470  1.00  0.00    -0.123 A  
HETATM    9  N   UNL     1      -7.673  13.807  68.301  1.00  0.00    -0.128 NA 
HETATM   10  C   UNL     1      -6.581  10.698  70.030  1.00  0.00    -0.149 A  
HETATM   11  C   UNL     1      -7.776   9.990  69.828  1.00  0.00    -0.168 A  
HETATM   12 CL   UNL     1      -5.307  10.166  71.078  1.00  0.00    -0.072 Cl 
HETATM   13  C   UNL     1      -8.871  10.640  69.216  1.00  0.00    -0.092 A  
BRANCH  11  14
HETATM   14  O   UNL     1      -8.098   8.719  70.263  1.00  0.00    -0.098 OA 
BRANCH  14  15
HETATM   15  C   UNL     1      -9.226   8.039  69.852  1.00  0.00    -0.152 A  
HETATM   16  C   UNL     1      -9.378   7.464  68.587  1.00  0.00    -0.139 A  
HETATM   17  C   UNL     1     -10.495   6.676  68.303  1.00  0.00    -0.249 A  
HETATM   18  C   UNL     1     -11.510   6.533  69.249  1.00  0.00    -0.307 A  
HETATM   19  C   UNL     1     -11.428   7.211  70.465  1.00  0.00    -0.295 A  
HETATM   20  C   UNL     1     -10.290   7.970  70.773  1.00  0.00    -0.199 A  
HETATM   21 CL   UNL     1     -12.769   7.061  71.549  1.00  0.00    -0.422 Cl 
HETATM   22 CL   UNL     1     -10.182   8.843  72.271  1.00  0.00    -0.316 Cl 
ENDBRANCH  14  15
ENDBRANCH  11  14
ENDBRANCH   2   3
TORSDOF 3
ENDMDL
MODEL      235
REMARK 921   NORMALIZED FREE ENERGY PREDICTED BY IDOCK:   -2.83 KCAL/MOL
REMARK 922        TOTAL FREE ENERGY PREDICTED BY IDOCK:   -3.89 KCAL/MOL
REMARK 923 INTER-LIGAND FREE ENERGY PREDICTED BY IDOCK:   -4.02 KCAL/MOL
REMARK 924 INTRA-LIGAND FREE ENERGY PREDICTED BY IDOCK:    0.14 KCAL/MOL
REMARK 927      BINDING AFFINITY PREDICTED BY RF-SCORE:    0.00 PKD
ROOT
HETATM    1  C   UNL     1      -6.049  20.094  72.525  1.00  0.00     0.994 C  
HETATM    2  S   UNL     1      -5.150  20.992  71.243  1.00  0.00     0.030 SA 
ENDROOT
BRANCH   2   3
HETATM    3  C   UNL     1      -5.827  20.317  69.812  1.00  0.00    -0.348 A  
HETATM    4  N   UNL     1      -6.580  19.249  69.673  1.00  0.00    -0.280 NA 
HETATM    5  C   UNL     1      -6.753  19.114  68.313  1.00  0.00    -0.250 A  
HETATM    6  H   UNL     1      -6.954  18.652  70.410  1.00  0.00     0.000 HD 
HETATM    7  C   UNL     1      -6.082  20.121  67.628  1.00  0.00    -0.213 A  
HETATM    8  C   UNL     1      -5.994  20.173  66.238  1.00  0.00    -0.193 A  
HETATM    9  N   UNL     1      -5.559  20.909  68.615  1.00  0.00    -0.338 NA 
HETATM   10  C   UNL     1      -6.591  19.125  65.517  1.00  0.00    -0.272 A  
HETATM   11  C   UNL     1      -7.393  18.168  66.159  1.00  0.00    -0.274 A  
HETATM   12 CL   UNL     1      -6.141  19.046  63.845  1.00  0.00     0.083 Cl 
HETATM   13  C   UNL     1      -7.446  18.144  67.571  1.00  0.00    -0.217 A  
BRANCH  11  14
HETATM   14  O   UNL     1      -8.086  17.117  65.590  1.00  0.00    -0.407 OA 
BRANCH  14  15
HETATM   15  C   UNL     1      -8.608  16.069  66.320  1.00  0.00    -0.328 A  
HETATM   16  C   UNL     1      -7.877  15.312  67.240  1.00  0.00    -0.240 A  
HETATM   17  C   UNL     1      -8.518  14.360  68.036  1.00  0.00    -0.164 A  
HETATM   18  C   UNL     1      -9.875  14.095  67.852  1.00  0.00    -0.224 A  
HETATM   19  C   UNL     1     -10.583  14.752  66.845  1.00  0.00    -0.294 A  
HETATM   20  C   UNL     1      -9.955  15.738  66.072  1.00  0.00    -0.332 A  
HETATM   21 CL   UNL     1     -12.238  14.301  66.615  1.00  0.00    -0.467 Cl 
HETATM   22 CL   UNL     1     -10.812  16.548  64.796  1.00  0.00    -0.289 Cl 
ENDBRANCH  14  15
ENDBRANCH  11  14
ENDBRANCH   2   3
TORSDOF 3
ENDMDL
MODEL      236
REMARK 921   NORMALIZED FREE ENERGY PREDICTED BY IDOCK:   -2.81 KCAL/MOL
REMARK 922        TOTAL FREE ENERGY PREDICTED BY IDOCK:   -3.86 KCAL/MOL
REMARK 923 INTER-LIGAND FREE ENERGY PREDICTED BY IDOCK:   -3.30 KCAL/MOL
REMARK 924 INTRA-LIGAND FREE ENERGY PREDICTED BY IDOCK:   -0.56 KCAL/MOL
REMARK 927      BINDING AFFINITY PREDICTED BY RF-SCORE:    0.00 PKD
ROOT
HETATM    1  C   UNL     1     -10.834  15.021  67.242  1.00  0.00    -0.310 C  
HETATM    2  S   UNL     1     -11.555  14.420  68.784  1.00  0.00    -0.335 SA 
ENDROOT
BRANCH   2   3
HETATM    3  C   UNL     1     -11.012  12.786  68.803  1.00  0.00    -0.250 A  
HETATM    4  N   UNL     1     -10.082  12.212  68.073  1.00  0.00    -0.198 NA 
HETATM    5  C   UNL     1     -10.127  10.882  68.428  1.00  0.00    -0.183 A  
HETATM    6  H   UNL     1      -9.463  12.654  67.393  1.00  0.00     0.000 HD 
HETATM    7  C   UNL     1     -11.110  10.660  69.386  1.00  0.00    -0.260 A  
HETATM    8  C   UNL     1     -11.452   9.392  69.852  1.00  0.00    -0.054 A  
HETATM    9  N   UNL     1     -11.609  11.905  69.652  1.00  0.00    -0.316 NA 
HETATM   10  C   UNL     1     -10.779   8.296  69.285  1.00  0.00    -0.128 A  
HETATM   11  C   UNL     1      -9.689   8.484  68.420  1.00  0.00    -0.155 A  
HETATM   12 CL   UNL     1     -11.489   6.752  69.626  1.00  0.00    -0.319 Cl 
HETATM   13  C   UNL     1      -9.383   9.786  67.963  1.00  0.00    -0.138 A  
BRANCH  11  14
HETATM   14  O   UNL     1      -8.896   7.520  67.827  1.00  0.00    -0.132 OA 
BRANCH  14  15
HETATM   15  C   UNL     1      -7.920   6.818  68.503  1.00  0.00    -0.119 A  
HETATM   16  C   UNL     1      -6.902   7.415  69.253  1.00  0.00    -0.053 A  
HETATM   17  C   UNL     1      -6.038   6.628  70.018  1.00  0.00    -0.027 A  
HETATM   18  C   UNL     1      -6.128   5.237  69.965  1.00  0.00    -0.018 A  
HETATM   19  C   UNL     1      -7.055   4.630  69.116  1.00  0.00    -0.052 A  
HETATM   20  C   UNL     1      -7.952   5.416  68.378  1.00  0.00    -0.088 A  
HETATM   21 CL   UNL     1      -7.042   2.902  69.033  1.00  0.00    -0.044 Cl 
HETATM   22 CL   UNL     1      -9.094   4.680  67.296  1.00  0.00    -0.124 Cl 
ENDBRANCH  14  15
ENDBRANCH  11  14
ENDBRANCH   2   3
TORSDOF 3
ENDMDL
MODEL      237
REMARK 921   NORMALIZED FREE ENERGY PREDICTED BY IDOCK:   -2.80 KCAL/MOL
REMARK 922        TOTAL FREE ENERGY PREDICTED BY IDOCK:   -3.85 KCAL/MOL
REMARK 923 INTER-LIGAND FREE ENERGY PREDICTED BY IDOCK:   -3.55 KCAL/MOL
REMARK 924 INTRA-LIGAND FREE ENERGY PREDICTED BY IDOCK:   -0.30 KCAL/MOL
REMARK 927      BINDING AFFINITY PREDICTED BY RF-SCORE:    0.00 PKD
ROOT
HETATM    1  C   UNL     1      -7.840  15.526  67.695  1.00  0.00    -0.155 C  
HETATM    2  S   UNL     1      -9.440  14.992  67.052  1.00  0.00    -0.239 SA 
ENDROOT
BRANCH   2   3
HETATM    3  C   UNL     1      -9.381  13.297  67.349  1.00  0.00    -0.217 A  
HETATM    4  N   UNL     1      -8.942  12.655  68.407  1.00  0.00    -0.320 NA 
HETATM    5  C   UNL     1      -9.036  11.321  68.074  1.00  0.00    -0.156 A  
HETATM    6  H   UNL     1      -8.607  13.055  69.283  1.00  0.00     0.000 HD 
HETATM    7  C   UNL     1      -9.535  11.169  66.785  1.00  0.00    -0.184 A  
HETATM    8  C   UNL     1      -9.636   9.935  66.144  1.00  0.00    -0.275 A  
HETATM    9  N   UNL     1      -9.809  12.445  66.377  1.00  0.00    -0.235 NA 
HETATM   10  C   UNL     1      -9.171   8.809  66.844  1.00  0.00    -0.156 A  
HETATM   11  C   UNL     1      -8.790   8.899  68.192  1.00  0.00    -0.134 A  
HETATM   12 CL   UNL     1      -8.981   7.382  65.877  1.00  0.00    -0.154 Cl 
HETATM   13  C   UNL     1      -8.690  10.170  68.800  1.00  0.00    -0.138 A  
BRANCH  11  14
HETATM   14  O   UNL     1      -8.364   7.884  69.026  1.00  0.00    -0.127 OA 
BRANCH  14  15
HETATM   15  C   UNL     1      -8.474   7.935  70.401  1.00  0.00    -0.131 A  
HETATM   16  C   UNL     1      -9.687   7.891  71.094  1.00  0.00    -0.182 A  
HETATM   17  C   UNL     1      -9.698   7.809  72.488  1.00  0.00    -0.262 A  
HETATM   18  C   UNL     1      -8.501   7.864  73.202  1.00  0.00    -0.242 A  
HETATM   19  C   UNL     1      -7.294   8.041  72.525  1.00  0.00    -0.102 A  
HETATM   20  C   UNL     1      -7.273   8.082  71.123  1.00  0.00    -0.056 A  
HETATM   21 CL   UNL     1      -5.862   8.195  73.483  1.00  0.00    -0.067 Cl 
HETATM   22 CL   UNL     1      -5.784   8.329  70.263  1.00  0.00    -0.022 Cl 
ENDBRANCH  14  15
ENDBRANCH  11  14
ENDBRANCH   2   3
TORSDOF 3
ENDMDL
MODEL      238
REMARK 921   NORMALIZED FREE ENERGY PREDICTED BY IDOCK:   -2.78 KCAL/MOL
REMARK 922        TOTAL FREE ENERGY PREDICTED BY IDOCK:   -3.83 KCAL/MOL
REMARK 923 INTER-LIGAND FREE ENERGY PREDICTED BY IDOCK:   -4.86 KCAL/MOL
REMARK 924 INTRA-LIGAND FREE ENERGY PREDICTED BY IDOCK:    1.03 KCAL/MOL
REMARK 927      BINDING AFFINITY PREDICTED BY RF-SCORE:    0.00 PKD
ROOT
HETATM    1  C   UNL     1      -6.046   3.518  68.125  1.00  0.00    -0.031 C  
HETATM    2  S   UNL     1      -5.944   5.244  67.607  1.00  0.00    -0.023 SA 
ENDROOT
BRANCH   2   3
HETATM    3  C   UNL     1      -7.397   5.888  68.269  1.00  0.00    -0.081 A  
HETATM    4  N   UNL     1      -7.851   7.120  68.233  1.00  0.00    -0.120 NA 
HETATM    5  C   UNL     1      -8.998   7.096  68.997  1.00  0.00    -0.134 A  
HETATM    6  H   UNL     1      -7.444   7.919  67.747  1.00  0.00     0.000 HD 
HETATM    7  C   UNL     1      -9.226   5.821  69.503  1.00  0.00    -0.130 A  
HETATM    8  C   UNL     1     -10.254   5.525  70.396  1.00  0.00    -0.321 A  
HETATM    9  N   UNL     1      -8.225   5.060  68.964  1.00  0.00    -0.086 NA 
HETATM   10  C   UNL     1     -11.065   6.593  70.817  1.00  0.00    -0.286 A  
HETATM   11  C   UNL     1     -10.956   7.862  70.228  1.00  0.00    -0.248 A  
HETATM   12 CL   UNL     1     -12.072   6.243  72.184  1.00  0.00    -0.360 Cl 
HETATM   13  C   UNL     1      -9.892   8.123  69.336  1.00  0.00    -0.182 A  
BRANCH  11  14
HETATM   14  O   UNL     1     -11.708   8.991  70.492  1.00  0.00    -0.234 OA 
BRANCH  14  15
HETATM   15  C   UNL     1     -11.377  10.248  70.029  1.00  0.00    -0.301 A  
HETATM   16  C   UNL     1     -10.353  10.503  69.113  1.00  0.00    -0.240 A  
HETATM   17  C   UNL     1     -10.177  11.787  68.594  1.00  0.00    -0.211 A  
HETATM   18  C   UNL     1     -10.963  12.842  69.056  1.00  0.00    -0.244 A  
HETATM   19  C   UNL     1     -11.899  12.623  70.067  1.00  0.00    -0.285 A  
HETATM   20  C   UNL     1     -12.109  11.328  70.562  1.00  0.00    -0.387 A  
HETATM   21 CL   UNL     1     -12.769  13.998  70.656  1.00  0.00    -0.390 Cl 
HETATM   22 CL   UNL     1     -13.250  11.038  71.840  1.00  0.00    -0.568 Cl 
ENDBRANCH  14  15
ENDBRANCH  11  14
ENDBRANCH   2   3
TORSDOF 3
ENDMDL
MODEL      239
REMARK 921   NORMALIZED FREE ENERGY PREDICTED BY IDOCK:   -2.78 KCAL/MOL
REMARK 922        TOTAL FREE ENERGY PREDICTED BY IDOCK:   -3.83 KCAL/MOL
REMARK 923 INTER-LIGAND FREE ENERGY PREDICTED BY IDOCK:   -3.39 KCAL/MOL
REMARK 924 INTRA-LIGAND FREE ENERGY PREDICTED BY IDOCK:   -0.44 KCAL/MOL
REMARK 927      BINDING AFFINITY PREDICTED BY RF-SCORE:    0.00 PKD
ROOT
HETATM    1  C   UNL     1     -12.617  12.177  63.512  1.00  0.00    -0.506 C  
HETATM    2  S   UNL     1     -11.794  13.170  64.774  1.00  0.00    -0.394 SA 
ENDROOT
BRANCH   2   3
HETATM    3  C   UNL     1     -11.014  11.956  65.713  1.00  0.00    -0.311 A  
HETATM    4  N   UNL     1     -11.020  11.782  67.015  1.00  0.00    -0.269 NA 
HETATM    5  C   UNL     1     -10.160  10.728  67.234  1.00  0.00    -0.196 A  
HETATM    6  H   UNL     1     -11.546  12.311  67.711  1.00  0.00     0.000 HD 
HETATM    7  C   UNL     1      -9.627  10.270  66.035  1.00  0.00    -0.206 A  
HETATM    8  C   UNL     1      -8.646   9.283  65.961  1.00  0.00    -0.158 A  
HETATM    9  N   UNL     1     -10.244  11.029  65.079  1.00  0.00    -0.280 NA 
HETATM   10  C   UNL     1      -8.164   8.765  67.176  1.00  0.00    -0.104 A  
HETATM   11  C   UNL     1      -8.770   9.099  68.397  1.00  0.00    -0.129 A  
HETATM   12 CL   UNL     1      -6.712   7.827  67.040  1.00  0.00    -0.066 Cl 
HETATM   13  C   UNL     1      -9.753  10.113  68.429  1.00  0.00    -0.157 A  
BRANCH  11  14
HETATM   14  O   UNL     1      -8.451   8.638  69.660  1.00  0.00    -0.124 OA 
BRANCH  14  15
HETATM   15  C   UNL     1      -7.377   9.106  70.390  1.00  0.00    -0.100 A  
HETATM   16  C   UNL     1      -6.467  10.058  69.923  1.00  0.00    -0.077 A  
HETATM   17  C   UNL     1      -5.491  10.576  70.777  1.00  0.00    -0.093 A  
HETATM   18  C   UNL     1      -5.361  10.079  72.074  1.00  0.00     0.030 A  
HETATM   19  C   UNL     1      -6.181   9.035  72.505  1.00  0.00     0.060 A  
HETATM   20  C   UNL     1      -7.189   8.540  71.666  1.00  0.00    -0.097 A  
HETATM   21 CL   UNL     1      -5.897   8.407  74.092  1.00  0.00    -0.106 Cl 
HETATM   22 CL   UNL     1      -8.201   7.223  72.174  1.00  0.00    -0.105 Cl 
ENDBRANCH  14  15
ENDBRANCH  11  14
ENDBRANCH   2   3
TORSDOF 3
ENDMDL
MODEL      240
REMARK 921   NORMALIZED FREE ENERGY PREDICTED BY IDOCK:   -2.74 KCAL/MOL
REMARK 922        TOTAL FREE ENERGY PREDICTED BY IDOCK:   -3.79 KCAL/MOL
REMARK 923 INTER-LIGAND FREE ENERGY PREDICTED BY IDOCK:   -3.39 KCAL/MOL
REMARK 924 INTRA-LIGAND FREE ENERGY PREDICTED BY IDOCK:   -0.39 KCAL/MOL
REMARK 927      BINDING AFFINITY PREDICTED BY RF-SCORE:    0.00 PKD
ROOT
HETATM    1  C   UNL     1      -6.372   7.769  63.619  1.00  0.00    -0.062 C  
HETATM    2  S   UNL     1      -6.747   7.514  65.366  1.00  0.00    -0.045 SA 
ENDROOT
BRANCH   2   3
HETATM    3  C   UNL     1      -7.120   9.116  65.875  1.00  0.00    -0.089 A  
HETATM    4  N   UNL     1      -6.341  10.010  66.441  1.00  0.00    -0.070 NA 
HETATM    5  C   UNL     1      -7.171  11.073  66.723  1.00  0.00    -0.139 A  
HETATM    6  H   UNL     1      -5.341   9.934  66.630  1.00  0.00     0.000 HD 
HETATM    7  C   UNL     1      -8.474  10.801  66.321  1.00  0.00    -0.161 A  
HETATM    8  C   UNL     1      -9.547  11.653  66.577  1.00  0.00    -0.226 A  
HETATM    9  N   UNL     1      -8.393   9.574  65.722  1.00  0.00    -0.125 NA 
HETATM   10  C   UNL     1      -9.278  12.821  67.310  1.00  0.00    -0.203 A  
HETATM   11  C   UNL     1      -7.961  13.200  67.614  1.00  0.00    -0.174 A  
HETATM   12 CL   UNL     1     -10.683  13.641  67.908  1.00  0.00    -0.250 Cl 
HETATM   13  C   UNL     1      -6.903  12.301  67.347  1.00  0.00    -0.145 A  
BRANCH  11  14
HETATM   14  O   UNL     1      -7.531  14.334  68.275  1.00  0.00    -0.106 OA 
BRANCH  14  15
HETATM   15  C   UNL     1      -7.501  15.585  67.694  1.00  0.00    -0.167 A  
HETATM   16  C   UNL     1      -8.317  15.976  66.629  1.00  0.00    -0.331 A  
HETATM   17  C   UNL     1      -8.319  17.303  66.193  1.00  0.00    -0.238 A  
HETATM   18  C   UNL     1      -7.439  18.226  66.759  1.00  0.00    -0.243 A  
HETATM   19  C   UNL     1      -6.529  17.813  67.732  1.00  0.00    -0.183 A  
HETATM   20  C   UNL     1      -6.551  16.493  68.203  1.00  0.00    -0.139 A  
HETATM   21 CL   UNL     1      -5.405  18.993  68.318  1.00  0.00    -0.186 Cl 
HETATM   22 CL   UNL     1      -5.407  15.954  69.394  1.00  0.00    -0.110 Cl 
ENDBRANCH  14  15
ENDBRANCH  11  14
ENDBRANCH   2   3
TORSDOF 3
ENDMDL
MODEL      241
REMARK 921   NORMALIZED FREE ENERGY PREDICTED BY IDOCK:   -2.72 KCAL/MOL
REMARK 922        TOTAL FREE ENERGY PREDICTED BY IDOCK:   -3.76 KCAL/MOL
REMARK 923 INTER-LIGAND FREE ENERGY PREDICTED BY IDOCK:   -3.82 KCAL/MOL
REMARK 924 INTRA-LIGAND FREE ENERGY PREDICTED BY IDOCK:    0.06 KCAL/MOL
REMARK 927      BINDING AFFINITY PREDICTED BY RF-SCORE:    0.00 PKD
ROOT
HETATM    1  C   UNL     1      -7.164   2.547  74.511  1.00  0.00    -0.040 C  
HETATM    2  S   UNL     1      -6.545   2.118  72.871  1.00  0.00    -0.018 SA 
ENDROOT
BRANCH   2   3
HETATM    3  C   UNL     1      -7.149   3.423  71.924  1.00  0.00    -0.038 A  
HETATM    4  N   UNL     1      -8.083   4.299  72.218  1.00  0.00    -0.090 NA 
HETATM    5  C   UNL     1      -8.235   5.050  71.073  1.00  0.00    -0.109 A  
HETATM    6  H   UNL     1      -8.584   4.402  73.100  1.00  0.00     0.000 HD 
HETATM    7  C   UNL     1      -7.377   4.604  70.073  1.00  0.00    -0.054 A  
HETATM    8  C   UNL     1      -7.389   5.108  68.774  1.00  0.00    -0.062 A  
HETATM    9  N   UNL     1      -6.651   3.611  70.671  1.00  0.00    -0.031 NA 
HETATM   10  C   UNL     1      -8.349   6.090  68.475  1.00  0.00    -0.113 A  
HETATM   11  C   UNL     1      -9.138   6.664  69.484  1.00  0.00    -0.144 A  
HETATM   12 CL   UNL     1      -8.560   6.407  66.784  1.00  0.00    -0.111 Cl 
HETATM   13  C   UNL     1      -9.104   6.115  70.786  1.00  0.00    -0.156 A  
BRANCH  11  14
HETATM   14  O   UNL     1     -10.080   7.666  69.363  1.00  0.00    -0.186 OA 
BRANCH  14  15
HETATM   15  C   UNL     1     -11.160   7.800  70.211  1.00  0.00    -0.234 A  
HETATM   16  C   UNL     1     -11.967   6.738  70.628  1.00  0.00    -0.418 A  
HETATM   17  C   UNL     1     -12.953   6.940  71.595  1.00  0.00    -0.359 A  
HETATM   18  C   UNL     1     -13.200   8.223  72.084  1.00  0.00    -0.297 A  
HETATM   19  C   UNL     1     -12.488   9.311  71.577  1.00  0.00    -0.355 A  
HETATM   20  C   UNL     1     -11.469   9.107  70.636  1.00  0.00    -0.262 A  
HETATM   21 CL   UNL     1     -12.917  10.882  72.162  1.00  0.00    -0.428 Cl 
HETATM   22 CL   UNL     1     -10.591  10.451  69.972  1.00  0.00    -0.311 Cl 
ENDBRANCH  14  15
ENDBRANCH  11  14
ENDBRANCH   2   3
TORSDOF 3
ENDMDL
MODEL      242
REMARK 921   NORMALIZED FREE ENERGY PREDICTED BY IDOCK:   -2.70 KCAL/MOL
REMARK 922        TOTAL FREE ENERGY PREDICTED BY IDOCK:   -3.74 KCAL/MOL
REMARK 923 INTER-LIGAND FREE ENERGY PREDICTED BY IDOCK:   -3.16 KCAL/MOL
REMARK 924 INTRA-LIGAND FREE ENERGY PREDICTED BY IDOCK:   -0.58 KCAL/MOL
REMARK 927      BINDING AFFINITY PREDICTED BY RF-SCORE:    0.00 PKD
ROOT
HETATM    1  C   UNL     1     -11.522   8.057  72.317  1.00  0.00    -0.360 C  
HETATM    2  S   UNL     1      -9.739   8.324  72.229  1.00  0.00    -0.316 SA 
ENDROOT
BRANCH   2   3
HETATM    3  C   UNL     1      -9.257   7.070  71.152  1.00  0.00    -0.157 A  
HETATM    4  N   UNL     1      -8.584   7.156  70.026  1.00  0.00    -0.140 NA 
HETATM    5  C   UNL     1      -8.564   5.871  69.529  1.00  0.00    -0.117 A  
HETATM    6  H   UNL     1      -8.169   7.991  69.611  1.00  0.00     0.000 HD 
HETATM    7  C   UNL     1      -9.245   5.004  70.376  1.00  0.00    -0.148 A  
HETATM    8  C   UNL     1      -9.477   3.664  70.073  1.00  0.00    -0.260 A  
HETATM    9  N   UNL     1      -9.615   5.787  71.434  1.00  0.00    -0.157 NA 
HETATM   10  C   UNL     1      -9.020   3.199  68.828  1.00  0.00    -0.133 A  
HETATM   11  C   UNL     1      -8.211   4.000  68.007  1.00  0.00    -0.092 A  
HETATM   12 CL   UNL     1      -9.648   1.654  68.355  1.00  0.00    -0.238 Cl 
HETATM   13  C   UNL     1      -8.010   5.358  68.345  1.00  0.00    -0.088 A  
BRANCH  11  14
HETATM   14  O   UNL     1      -7.643   3.674  66.791  1.00  0.00    -0.078 OA 
BRANCH  14  15
HETATM   15  C   UNL     1      -8.301   3.808  65.585  1.00  0.00    -0.105 A  
HETATM   16  C   UNL     1      -9.361   2.994  65.175  1.00  0.00    -0.133 A  
HETATM   17  C   UNL     1     -10.060   3.286  64.002  1.00  0.00    -0.188 A  
HETATM   18  C   UNL     1      -9.646   4.339  63.185  1.00  0.00    -0.098 A  
HETATM   19  C   UNL     1      -8.509   5.074  63.520  1.00  0.00    -0.127 A  
HETATM   20  C   UNL     1      -7.828   4.812  64.718  1.00  0.00    -0.092 A  
HETATM   21 CL   UNL     1      -8.002   6.301  62.410  1.00  0.00    -0.099 Cl 
HETATM   22 CL   UNL     1      -6.394   5.698  65.138  1.00  0.00    -0.037 Cl 
ENDBRANCH  14  15
ENDBRANCH  11  14
ENDBRANCH   2   3
TORSDOF 3
ENDMDL
MODEL      243
REMARK 921   NORMALIZED FREE ENERGY PREDICTED BY IDOCK:   -2.65 KCAL/MOL
REMARK 922        TOTAL FREE ENERGY PREDICTED BY IDOCK:   -3.68 KCAL/MOL
REMARK 923 INTER-LIGAND FREE ENERGY PREDICTED BY IDOCK:   -3.62 KCAL/MOL
REMARK 924 INTRA-LIGAND FREE ENERGY PREDICTED BY IDOCK:   -0.06 KCAL/MOL
REMARK 927      BINDING AFFINITY PREDICTED BY RF-SCORE:    0.00 PKD
ROOT
HETATM    1  C   UNL     1     -12.815  12.010  63.487  1.00  0.00    -0.341 C  
HETATM    2  S   UNL     1     -11.843  13.361  64.185  1.00  0.00    -0.448 SA 
ENDROOT
BRANCH   2   3
HETATM    3  C   UNL     1     -10.699  12.502  65.143  1.00  0.00    -0.292 A  
HETATM    4  N   UNL     1      -9.777  11.645  64.766  1.00  0.00    -0.338 NA 
HETATM    5  C   UNL     1      -9.217  11.191  65.940  1.00  0.00    -0.206 A  
HETATM    6  H   UNL     1      -9.531  11.376  63.814  1.00  0.00     0.000 HD 
HETATM    7  C   UNL     1      -9.825  11.787  67.039  1.00  0.00    -0.197 A  
HETATM    8  C   UNL     1      -9.534  11.437  68.357  1.00  0.00    -0.194 A  
HETATM    9  N   UNL     1     -10.718  12.667  66.495  1.00  0.00    -0.248 NA 
HETATM   10  C   UNL     1      -8.602  10.404  68.556  1.00  0.00    -0.134 A  
HETATM   11  C   UNL     1      -7.867   9.874  67.484  1.00  0.00    -0.098 A  
HETATM   12 CL   UNL     1      -8.556   9.771  70.169  1.00  0.00    -0.234 Cl 
HETATM   13  C   UNL     1      -8.202  10.247  66.163  1.00  0.00    -0.138 A  
BRANCH  11  14
HETATM   14  O   UNL     1      -6.886   8.902  67.522  1.00  0.00    -0.069 OA 
BRANCH  14  15
HETATM   15  C   UNL     1      -6.973   7.766  68.301  1.00  0.00    -0.079 A  
HETATM   16  C   UNL     1      -6.273   7.579  69.497  1.00  0.00    -0.031 A  
HETATM   17  C   UNL     1      -6.525   6.460  70.292  1.00  0.00    -0.040 A  
HETATM   18  C   UNL     1      -7.410   5.474  69.852  1.00  0.00    -0.069 A  
HETATM   19  C   UNL     1      -8.012   5.589  68.599  1.00  0.00    -0.092 A  
HETATM   20  C   UNL     1      -7.795   6.731  67.816  1.00  0.00    -0.113 A  
HETATM   21 CL   UNL     1      -9.022   4.282  68.082  1.00  0.00    -0.137 Cl 
HETATM   22 CL   UNL     1      -8.515   6.879  66.241  1.00  0.00    -0.125 Cl 
ENDBRANCH  14  15
ENDBRANCH  11  14
ENDBRANCH   2   3
TORSDOF 3
ENDMDL
MODEL      244
REMARK 921   NORMALIZED FREE ENERGY PREDICTED BY IDOCK:   -2.65 KCAL/MOL
REMARK 922        TOTAL FREE ENERGY PREDICTED BY IDOCK:   -3.68 KCAL/MOL
REMARK 923 INTER-LIGAND FREE ENERGY PREDICTED BY IDOCK:   -3.14 KCAL/MOL
REMARK 924 INTRA-LIGAND FREE ENERGY PREDICTED BY IDOCK:   -0.54 KCAL/MOL
REMARK 927      BINDING AFFINITY PREDICTED BY RF-SCORE:    0.00 PKD
ROOT
HETATM    1  C   UNL     1     -10.381  13.057  64.437  1.00  0.00    -0.374 C  
HETATM    2  S   UNL     1     -10.157  13.276  66.214  1.00  0.00    -0.298 SA 
ENDROOT
BRANCH   2   3
HETATM    3  C   UNL     1      -9.723  11.685  66.705  1.00  0.00    -0.201 A  
HETATM    4  N   UNL     1      -8.531  11.183  66.934  1.00  0.00    -0.142 NA 
HETATM    5  C   UNL     1      -8.755   9.849  67.200  1.00  0.00    -0.131 A  
HETATM    6  H   UNL     1      -7.636  11.672  66.919  1.00  0.00     0.000 HD 
HETATM    7  C   UNL     1     -10.111   9.552  67.120  1.00  0.00    -0.229 A  
HETATM    8  C   UNL     1     -10.618   8.259  67.237  1.00  0.00    -0.335 A  
HETATM    9  N   UNL     1     -10.706  10.757  66.871  1.00  0.00    -0.262 NA 
HETATM   10  C   UNL     1      -9.690   7.218  67.407  1.00  0.00    -0.150 A  
HETATM   11  C   UNL     1      -8.330   7.488  67.630  1.00  0.00    -0.118 A  
HETATM   12 CL   UNL     1     -10.335   5.625  67.179  1.00  0.00    -0.259 Cl 
HETATM   13  C   UNL     1      -7.855   8.812  67.492  1.00  0.00    -0.102 A  
BRANCH  11  14
HETATM   14  O   UNL     1      -7.310   6.587  67.866  1.00  0.00    -0.088 OA 
BRANCH  14  15
HETATM   15  C   UNL     1      -7.230   5.811  69.004  1.00  0.00    -0.078 A  
HETATM   16  C   UNL     1      -7.542   6.268  70.289  1.00  0.00    -0.096 A  
HETATM   17  C   UNL     1      -7.567   5.378  71.365  1.00  0.00    -0.102 A  
HETATM   18  C   UNL     1      -7.191   4.047  71.181  1.00  0.00    -0.033 A  
HETATM   19  C   UNL     1      -6.751   3.614  69.930  1.00  0.00    -0.034 A  
HETATM   20  C   UNL     1      -6.765   4.492  68.837  1.00  0.00    -0.046 A  
HETATM   21 CL   UNL     1      -6.211   1.975  69.802  1.00  0.00    -0.024 Cl 
HETATM   22 CL   UNL     1      -6.195   3.980  67.277  1.00  0.00    -0.035 Cl 
ENDBRANCH  14  15
ENDBRANCH  11  14
ENDBRANCH   2   3
TORSDOF 3
ENDMDL
MODEL      245
REMARK 921   NORMALIZED FREE ENERGY PREDICTED BY IDOCK:   -2.61 KCAL/MOL
REMARK 922        TOTAL FREE ENERGY PREDICTED BY IDOCK:   -3.63 KCAL/MOL
REMARK 923 INTER-LIGAND FREE ENERGY PREDICTED BY IDOCK:   -3.31 KCAL/MOL
REMARK 924 INTRA-LIGAND FREE ENERGY PREDICTED BY IDOCK:   -0.31 KCAL/MOL
REMARK 927      BINDING AFFINITY PREDICTED BY RF-SCORE:    0.00 PKD
ROOT
HETATM    1  C   UNL     1      -5.929  19.027  69.873  1.00  0.00    -0.249 C  
HETATM    2  S   UNL     1      -6.352  19.356  68.150  1.00  0.00    -0.231 SA 
ENDROOT
BRANCH   2   3
HETATM    3  C   UNL     1      -7.357  18.008  67.779  1.00  0.00    -0.213 A  
HETATM    4  N   UNL     1      -7.194  16.741  68.091  1.00  0.00    -0.159 NA 
HETATM    5  C   UNL     1      -8.234  16.089  67.464  1.00  0.00    -0.152 A  
HETATM    6  H   UNL     1      -6.461  16.332  68.669  1.00  0.00     0.000 HD 
HETATM    7  C   UNL     1      -9.027  16.987  66.759  1.00  0.00    -0.244 A  
HETATM    8  C   UNL     1     -10.087  16.595  65.943  1.00  0.00    -0.341 A  
HETATM    9  N   UNL     1      -8.480  18.210  67.037  1.00  0.00    -0.239 NA 
HETATM   10  C   UNL     1     -10.323  15.216  65.816  1.00  0.00    -0.339 A  
HETATM   11  C   UNL     1      -9.637  14.286  66.614  1.00  0.00    -0.289 A  
HETATM   12 CL   UNL     1     -11.394  14.780  64.525  1.00  0.00    -0.342 Cl 
HETATM   13  C   UNL     1      -8.562  14.724  67.419  1.00  0.00    -0.210 A  
BRANCH  11  14
HETATM   14  O   UNL     1      -9.791  12.914  66.646  1.00  0.00    -0.237 OA 
BRANCH  14  15
HETATM   15  C   UNL     1      -8.993  12.044  65.931  1.00  0.00     0.038 A  
HETATM   16  C   UNL     1      -9.211  11.698  64.594  1.00  0.00     0.119 A  
HETATM   17  C   UNL     1      -8.277  10.920  63.908  1.00  0.00     0.218 A  
HETATM   18  C   UNL     1      -7.166  10.406  64.578  1.00  0.00    -0.008 A  
HETATM   19  C   UNL     1      -7.010  10.637  65.945  1.00  0.00    -0.116 A  
HETATM   20  C   UNL     1      -7.923  11.453  66.630  1.00  0.00    -0.148 A  
HETATM   21 CL   UNL     1      -5.660   9.889  66.727  1.00  0.00    -0.045 Cl 
HETATM   22 CL   UNL     1      -7.761  11.729  68.337  1.00  0.00    -0.124 Cl 
ENDBRANCH  14  15
ENDBRANCH  11  14
ENDBRANCH   2   3
TORSDOF 3
ENDMDL
MODEL      246
REMARK 921   NORMALIZED FREE ENERGY PREDICTED BY IDOCK:   -2.56 KCAL/MOL
REMARK 922        TOTAL FREE ENERGY PREDICTED BY IDOCK:   -3.57 KCAL/MOL
REMARK 923 INTER-LIGAND FREE ENERGY PREDICTED BY IDOCK:   -3.12 KCAL/MOL
REMARK 924 INTRA-LIGAND FREE ENERGY PREDICTED BY IDOCK:   -0.44 KCAL/MOL
REMARK 927      BINDING AFFINITY PREDICTED BY RF-SCORE:    0.00 PKD
ROOT
HETATM    1  C   UNL     1     -10.396  13.124  64.327  1.00  0.00    -0.339 C  
HETATM    2  S   UNL     1     -10.520  13.804  65.994  1.00  0.00    -0.304 SA 
ENDROOT
BRANCH   2   3
HETATM    3  C   UNL     1     -10.048  12.454  66.952  1.00  0.00    -0.219 A  
HETATM    4  N   UNL     1      -8.896  12.214  67.537  1.00  0.00    -0.167 NA 
HETATM    5  C   UNL     1      -9.034  10.956  68.083  1.00  0.00    -0.144 A  
HETATM    6  H   UNL     1      -8.080  12.824  67.578  1.00  0.00     0.000 HD 
HETATM    7  C   UNL     1     -10.294  10.435  67.809  1.00  0.00    -0.206 A  
HETATM    8  C   UNL     1     -10.675   9.138  68.147  1.00  0.00    -0.186 A  
HETATM    9  N   UNL     1     -10.939  11.443  67.146  1.00  0.00    -0.271 NA 
HETATM   10  C   UNL     1      -9.708   8.324  68.761  1.00  0.00    -0.157 A  
HETATM   11  C   UNL     1      -8.475   8.851  69.177  1.00  0.00    -0.132 A  
HETATM   12 CL   UNL     1     -10.110   6.639  68.820  1.00  0.00    -0.156 Cl 
HETATM   13  C   UNL     1      -8.124  10.168  68.804  1.00  0.00    -0.111 A  
BRANCH  11  14
HETATM   14  O   UNL     1      -7.449   8.201  69.835  1.00  0.00    -0.067 OA 
BRANCH  14  15
HETATM   15  C   UNL     1      -7.636   7.452  70.979  1.00  0.00    -0.086 A  
HETATM   16  C   UNL     1      -8.490   7.816  72.025  1.00  0.00    -0.146 A  
HETATM   17  C   UNL     1      -8.724   6.933  73.081  1.00  0.00    -0.140 A  
HETATM   18  C   UNL     1      -8.036   5.721  73.146  1.00  0.00    -0.110 A  
HETATM   19  C   UNL     1      -7.083   5.409  72.176  1.00  0.00    -0.086 A  
HETATM   20  C   UNL     1      -6.875   6.272  71.091  1.00  0.00    -0.067 A  
HETATM   21 CL   UNL     1      -6.202   3.933  72.375  1.00  0.00    -0.013 Cl 
HETATM   22 CL   UNL     1      -5.674   5.914  69.888  1.00  0.00    -0.016 Cl 
ENDBRANCH  14  15
ENDBRANCH  11  14
ENDBRANCH   2   3
TORSDOF 3
ENDMDL
MODEL      247
REMARK 921   NORMALIZED FREE ENERGY PREDICTED BY IDOCK:   -2.54 KCAL/MOL
REMARK 922        TOTAL FREE ENERGY PREDICTED BY IDOCK:   -3.54 KCAL/MOL
REMARK 923 INTER-LIGAND FREE ENERGY PREDICTED BY IDOCK:   -3.53 KCAL/MOL
REMARK 924 INTRA-LIGAND FREE ENERGY PREDICTED BY IDOCK:   -0.01 KCAL/MOL
REMARK 927      BINDING AFFINITY PREDICTED BY RF-SCORE:    0.00 PKD
ROOT
HETATM    1  C   UNL     1      -5.125  10.234  72.912  1.00  0.00     0.106 C  
HETATM    2  S   UNL     1      -5.528  10.596  71.190  1.00  0.00    -0.015 SA 
ENDROOT
BRANCH   2   3
HETATM    3  C   UNL     1      -6.814   9.490  70.899  1.00  0.00    -0.078 A  
HETATM    4  N   UNL     1      -7.195   8.939  69.768  1.00  0.00    -0.053 NA 
HETATM    5  C   UNL     1      -8.326   8.220  70.090  1.00  0.00    -0.124 A  
HETATM    6  H   UNL     1      -6.751   9.023  68.854  1.00  0.00     0.000 HD 
HETATM    7  C   UNL     1      -8.627   8.354  71.440  1.00  0.00    -0.164 A  
HETATM    8  C   UNL     1      -9.777   7.824  72.024  1.00  0.00    -0.224 A  
HETATM    9  N   UNL     1      -7.606   9.113  71.940  1.00  0.00    -0.316 NA 
HETATM   10  C   UNL     1     -10.678   7.157  71.176  1.00  0.00    -0.232 A  
HETATM   11  C   UNL     1     -10.347   6.881  69.840  1.00  0.00    -0.205 A  
HETATM   12 CL   UNL     1     -12.235   6.848  71.872  1.00  0.00    -0.369 Cl 
HETATM   13  C   UNL     1      -9.177   7.447  69.285  1.00  0.00    -0.147 A  
BRANCH  11  14
HETATM   14  O   UNL     1     -11.094   6.195  68.902  1.00  0.00    -0.349 OA 
BRANCH  14  15
HETATM   15  C   UNL     1     -10.538   5.380  67.938  1.00  0.00    -0.090 A  
HETATM   16  C   UNL     1     -10.735   5.542  66.563  1.00  0.00    -0.309 A  
HETATM   17  C   UNL     1     -10.024   4.757  65.653  1.00  0.00    -0.195 A  
HETATM   18  C   UNL     1      -9.181   3.744  66.112  1.00  0.00    -0.166 A  
HETATM   19  C   UNL     1      -9.080   3.489  67.479  1.00  0.00    -0.167 A  
HETATM   20  C   UNL     1      -9.759   4.300  68.399  1.00  0.00    -0.097 A  
HETATM   21 CL   UNL     1      -8.090   2.155  67.966  1.00  0.00    -0.063 Cl 
HETATM   22 CL   UNL     1      -9.667   3.981  70.104  1.00  0.00    -0.277 Cl 
ENDBRANCH  14  15
ENDBRANCH  11  14
ENDBRANCH   2   3
TORSDOF 3
ENDMDL
MODEL      248
REMARK 921   NORMALIZED FREE ENERGY PREDICTED BY IDOCK:   -2.39 KCAL/MOL
REMARK 922        TOTAL FREE ENERGY PREDICTED BY IDOCK:   -3.38 KCAL/MOL
REMARK 923 INTER-LIGAND FREE ENERGY PREDICTED BY IDOCK:   -2.83 KCAL/MOL
REMARK 924 INTRA-LIGAND FREE ENERGY PREDICTED BY IDOCK:   -0.54 KCAL/MOL
REMARK 927      BINDING AFFINITY PREDICTED BY RF-SCORE:    0.00 PKD
ROOT
HETATM    1  C   UNL     1      -7.461   2.420  73.963  1.00  0.00    -0.037 C  
HETATM    2  S   UNL     1      -6.845   2.241  72.276  1.00  0.00    -0.019 SA 
ENDROOT
BRANCH   2   3
HETATM    3  C   UNL     1      -7.334   3.733  71.571  1.00  0.00    -0.040 A  
HETATM    4  N   UNL     1      -6.792   4.399  70.577  1.00  0.00    -0.036 NA 
HETATM    5  C   UNL     1      -7.523   5.564  70.492  1.00  0.00    -0.080 A  
HETATM    6  H   UNL     1      -6.003   4.116  69.996  1.00  0.00     0.000 HD 
HETATM    7  C   UNL     1      -8.518   5.593  71.463  1.00  0.00    -0.128 A  
HETATM    8  C   UNL     1      -9.341   6.696  71.682  1.00  0.00    -0.149 A  
HETATM    9  N   UNL     1      -8.414   4.381  72.088  1.00  0.00    -0.110 NA 
HETATM   10  C   UNL     1      -9.110   7.835  70.893  1.00  0.00    -0.148 A  
HETATM   11  C   UNL     1      -8.213   7.801  69.814  1.00  0.00    -0.129 A  
HETATM   12 CL   UNL     1      -9.900   9.275  71.449  1.00  0.00    -0.345 Cl 
HETATM   13  C   UNL     1      -7.389   6.667  69.635  1.00  0.00    -0.083 A  
BRANCH  11  14
HETATM   14  O   UNL     1      -7.916   8.811  68.920  1.00  0.00    -0.102 OA 
BRANCH  14  15
HETATM   15  C   UNL     1      -8.877   9.504  68.212  1.00  0.00    -0.124 A  
HETATM   16  C   UNL     1      -9.889   8.899  67.461  1.00  0.00    -0.237 A  
HETATM   17  C   UNL     1     -10.901   9.673  66.890  1.00  0.00    -0.106 A  
HETATM   18  C   UNL     1     -10.857  11.064  66.988  1.00  0.00    -0.334 A  
HETATM   19  C   UNL     1      -9.780  11.684  67.622  1.00  0.00    -0.180 A  
HETATM   20  C   UNL     1      -8.783  10.910  68.234  1.00  0.00    -0.140 A  
HETATM   21 CL   UNL     1      -9.746  13.414  67.620  1.00  0.00    -0.217 Cl 
HETATM   22 CL   UNL     1      -7.420  11.663  69.004  1.00  0.00    -0.089 Cl 
ENDBRANCH  14  15
ENDBRANCH  11  14
ENDBRANCH   2   3
TORSDOF 3
ENDMDL
MODEL      249
REMARK 921   NORMALIZED FREE ENERGY PREDICTED BY IDOCK:   -2.36 KCAL/MOL
REMARK 922        TOTAL FREE ENERGY PREDICTED BY IDOCK:   -3.33 KCAL/MOL
REMARK 923 INTER-LIGAND FREE ENERGY PREDICTED BY IDOCK:   -3.11 KCAL/MOL
REMARK 924 INTRA-LIGAND FREE ENERGY PREDICTED BY IDOCK:   -0.22 KCAL/MOL
REMARK 927      BINDING AFFINITY PREDICTED BY RF-SCORE:    0.00 PKD
ROOT
HETATM    1  C   UNL     1     -10.828  16.839  67.478  1.00  0.00    -0.216 C  
HETATM    2  S   UNL     1      -9.087  17.217  67.766  1.00  0.00    -0.236 SA 
ENDROOT
BRANCH   2   3
HETATM    3  C   UNL     1      -8.449  15.655  68.109  1.00  0.00    -0.147 A  
HETATM    4  N   UNL     1      -8.967  14.474  67.861  1.00  0.00    -0.181 NA 
HETATM    5  C   UNL     1      -8.088  13.577  68.429  1.00  0.00    -0.145 A  
HETATM    6  H   UNL     1      -9.829  14.266  67.358  1.00  0.00     0.000 HD 
HETATM    7  C   UNL     1      -7.028  14.242  69.034  1.00  0.00    -0.112 A  
HETATM    8  C   UNL     1      -6.044  13.595  69.780  1.00  0.00    -0.126 A  
HETATM    9  N   UNL     1      -7.252  15.561  68.753  1.00  0.00    -0.126 NA 
HETATM   10  C   UNL     1      -6.172  12.205  69.941  1.00  0.00    -0.120 A  
HETATM   11  C   UNL     1      -7.145  11.479  69.236  1.00  0.00    -0.077 A  
HETATM   12 CL   UNL     1      -5.149  11.519  71.161  1.00  0.00    -0.120 Cl 
HETATM   13  C   UNL     1      -8.131  12.176  68.501  1.00  0.00    -0.112 A  
BRANCH  11  14
HETATM   14  O   UNL     1      -7.365  10.115  69.245  1.00  0.00    -0.078 OA 
BRANCH  14  15
HETATM   15  C   UNL     1      -8.294   9.490  68.439  1.00  0.00    -0.118 A  
HETATM   16  C   UNL     1      -9.610   9.218  68.823  1.00  0.00    -0.157 A  
HETATM   17  C   UNL     1     -10.522   8.708  67.897  1.00  0.00    -0.269 A  
HETATM   18  C   UNL     1     -10.101   8.381  66.608  1.00  0.00    -0.358 A  
HETATM   19  C   UNL     1      -8.758   8.525  66.256  1.00  0.00    -0.142 A  
HETATM   20  C   UNL     1      -7.847   9.076  67.168  1.00  0.00    -0.099 A  
HETATM   21 CL   UNL     1      -8.293   8.008  64.671  1.00  0.00    -0.110 Cl 
HETATM   22 CL   UNL     1      -6.167   9.238  66.759  1.00  0.00    -0.064 Cl 
ENDBRANCH  14  15
ENDBRANCH  11  14
ENDBRANCH   2   3
TORSDOF 3
ENDMDL
MODEL      250
REMARK 921   NORMALIZED FREE ENERGY PREDICTED BY IDOCK:   -2.34 KCAL/MOL
REMARK 922        TOTAL FREE ENERGY PREDICTED BY IDOCK:   -3.31 KCAL/MOL
REMARK 923 INTER-LIGAND FREE ENERGY PREDICTED BY IDOCK:   -4.30 KCAL/MOL
REMARK 924 INTRA-LIGAND FREE ENERGY PREDICTED BY IDOCK:    0.99 KCAL/MOL
REMARK 927      BINDING AFFINITY PREDICTED BY RF-SCORE:    0.00 PKD
ROOT
HETATM    1  C   UNL     1     -10.222  20.826  67.397  1.00  0.00     0.057 C  
HETATM    2  S   UNL     1      -9.669  20.210  69.000  1.00  0.00     0.137 SA 
ENDROOT
BRANCH   2   3
HETATM    3  C   UNL     1      -9.569  18.517  68.702  1.00  0.00    -0.352 A  
HETATM    4  N   UNL     1      -8.818  17.869  67.841  1.00  0.00    -0.255 NA 
HETATM    5  C   UNL     1      -9.208  16.552  67.954  1.00  0.00    -0.211 A  
HETATM    6  H   UNL     1      -8.103  18.255  67.225  1.00  0.00     0.000 HD 
HETATM    7  C   UNL     1     -10.219  16.417  68.900  1.00  0.00    -0.258 A  
HETATM    8  C   UNL     1     -10.880  15.215  69.146  1.00  0.00    -0.251 A  
HETATM    9  N   UNL     1     -10.377  17.678  69.406  1.00  0.00    -0.165 NA 
HETATM   10  C   UNL     1     -10.512  14.108  68.362  1.00  0.00    -0.254 A  
HETATM   11  C   UNL     1      -9.408  14.166  67.498  1.00  0.00    -0.204 A  
HETATM   12 CL   UNL     1     -11.601  12.762  68.452  1.00  0.00    -0.339 Cl 
HETATM   13  C   UNL     1      -8.773  15.408  67.268  1.00  0.00    -0.215 A  
BRANCH  11  14
HETATM   14  O   UNL     1      -8.891  13.159  66.707  1.00  0.00    -0.207 OA 
BRANCH  14  15
HETATM   15  C   UNL     1      -9.628  12.493  65.749  1.00  0.00    -0.129 A  
HETATM   16  C   UNL     1      -9.586  11.110  65.547  1.00  0.00    -0.263 A  
HETATM   17  C   UNL     1     -10.466  10.503  64.649  1.00  0.00    -0.181 A  
HETATM   18  C   UNL     1     -11.330  11.284  63.880  1.00  0.00    -0.147 A  
HETATM   19  C   UNL     1     -11.286  12.675  63.980  1.00  0.00    -0.406 A  
HETATM   20  C   UNL     1     -10.434  13.287  64.910  1.00  0.00    -0.371 A  
HETATM   21 CL   UNL     1     -12.320  13.578  62.926  1.00  0.00     0.132 Cl 
HETATM   22 CL   UNL     1     -10.345  15.018  65.028  1.00  0.00    -0.414 Cl 
ENDBRANCH  14  15
ENDBRANCH  11  14
ENDBRANCH   2   3
TORSDOF 3
ENDMDL
MODEL      251
REMARK 921   NORMALIZED FREE ENERGY PREDICTED BY IDOCK:   -2.31 KCAL/MOL
REMARK 922        TOTAL FREE ENERGY PREDICTED BY IDOCK:   -3.27 KCAL/MOL
REMARK 923 INTER-LIGAND FREE ENERGY PREDICTED BY IDOCK:   -3.25 KCAL/MOL
REMARK 924 INTRA-LIGAND FREE ENERGY PREDICTED BY IDOCK:   -0.02 KCAL/MOL
REMARK 927      BINDING AFFINITY PREDICTED BY RF-SCORE:    0.00 PKD
ROOT
HETATM    1  C   UNL     1      -6.160  13.362  69.202  1.00  0.00    -0.093 C  
HETATM    2  S   UNL     1      -7.660  13.012  68.261  1.00  0.00    -0.143 SA 
ENDROOT
BRANCH   2   3
HETATM    3  C   UNL     1      -7.967  11.376  68.700  1.00  0.00    -0.141 A  
HETATM    4  N   UNL     1      -7.190  10.527  69.333  1.00  0.00    -0.102 NA 
HETATM    5  C   UNL     1      -7.891   9.340  69.331  1.00  0.00    -0.083 A  
HETATM    6  H   UNL     1      -6.271  10.706  69.737  1.00  0.00     0.000 HD 
HETATM    7  C   UNL     1      -9.108   9.487  68.675  1.00  0.00    -0.132 A  
HETATM    8  C   UNL     1      -9.976   8.425  68.427  1.00  0.00    -0.208 A  
HETATM    9  N   UNL     1      -9.155  10.813  68.346  1.00  0.00    -0.156 NA 
HETATM   10  C   UNL     1      -9.562   7.147  68.839  1.00  0.00    -0.142 A  
HETATM   11  C   UNL     1      -8.410   6.976  69.623  1.00  0.00    -0.133 A  
HETATM   12 CL   UNL     1     -10.493   5.838  68.188  1.00  0.00    -0.262 Cl 
HETATM   13  C   UNL     1      -7.551   8.077  69.841  1.00  0.00    -0.087 A  
BRANCH  11  14
HETATM   14  O   UNL     1      -7.902   5.803  70.147  1.00  0.00    -0.094 OA 
BRANCH  14  15
HETATM   15  C   UNL     1      -8.682   4.851  70.770  1.00  0.00    -0.121 A  
HETATM   16  C   UNL     1      -8.968   3.594  70.229  1.00  0.00    -0.170 A  
HETATM   17  C   UNL     1      -9.649   2.640  70.988  1.00  0.00    -0.210 A  
HETATM   18  C   UNL     1     -10.129   2.968  72.256  1.00  0.00    -0.219 A  
HETATM   19  C   UNL     1      -9.964   4.262  72.750  1.00  0.00    -0.153 A  
HETATM   20  C   UNL     1      -9.244   5.211  72.011  1.00  0.00    -0.137 A  
HETATM   21 CL   UNL     1     -10.670   4.620  74.290  1.00  0.00    -0.327 Cl 
HETATM   22 CL   UNL     1      -9.050   6.835  72.597  1.00  0.00    -0.141 Cl 
ENDBRANCH  14  15
ENDBRANCH  11  14
ENDBRANCH   2   3
TORSDOF 3
ENDMDL
MODEL      252
REMARK 921   NORMALIZED FREE ENERGY PREDICTED BY IDOCK:   -2.30 KCAL/MOL
REMARK 922        TOTAL FREE ENERGY PREDICTED BY IDOCK:   -3.27 KCAL/MOL
REMARK 923 INTER-LIGAND FREE ENERGY PREDICTED BY IDOCK:   -2.77 KCAL/MOL
REMARK 924 INTRA-LIGAND FREE ENERGY PREDICTED BY IDOCK:   -0.50 KCAL/MOL
REMARK 927      BINDING AFFINITY PREDICTED BY RF-SCORE:    0.00 PKD
ROOT
HETATM    1  C   UNL     1     -10.965  12.137  63.963  1.00  0.00    -0.380 C  
HETATM    2  S   UNL     1     -11.466  12.468  65.665  1.00  0.00    -0.377 SA 
ENDROOT
BRANCH   2   3
HETATM    3  C   UNL     1     -10.682  11.189  66.509  1.00  0.00    -0.260 A  
HETATM    4  N   UNL     1     -11.097   9.961  66.728  1.00  0.00     0.072 NA 
HETATM    5  C   UNL     1     -10.129   9.400  67.532  1.00  0.00    -0.215 A  
HETATM    6  H   UNL     1     -11.949   9.521  66.381  1.00  0.00     0.000 HD 
HETATM    7  C   UNL     1      -9.119  10.317  67.801  1.00  0.00    -0.134 A  
HETATM    8  C   UNL     1      -8.063  10.059  68.674  1.00  0.00    -0.102 A  
HETATM    9  N   UNL     1      -9.468  11.424  67.078  1.00  0.00    -0.172 NA 
HETATM   10  C   UNL     1      -8.062   8.816  69.329  1.00  0.00    -0.110 A  
HETATM   11  C   UNL     1      -8.982   7.813  68.984  1.00  0.00    -0.145 A  
HETATM   12 CL   UNL     1      -6.953   8.696  70.656  1.00  0.00    -0.042 Cl 
HETATM   13  C   UNL     1     -10.043   8.120  68.103  1.00  0.00    -0.237 A  
BRANCH  11  14
HETATM   14  O   UNL     1      -9.077   6.532  69.493  1.00  0.00    -0.139 OA 
BRANCH  14  15
HETATM   15  C   UNL     1      -8.340   5.469  69.014  1.00  0.00    -0.102 A  
HETATM   16  C   UNL     1      -8.347   5.045  67.682  1.00  0.00    -0.105 A  
HETATM   17  C   UNL     1      -7.466   4.049  67.256  1.00  0.00    -0.072 A  
HETATM   18  C   UNL     1      -6.638   3.406  68.177  1.00  0.00    -0.037 A  
HETATM   19  C   UNL     1      -6.720   3.731  69.531  1.00  0.00    -0.037 A  
HETATM   20  C   UNL     1      -7.572   4.760  69.958  1.00  0.00    -0.055 A  
HETATM   21 CL   UNL     1      -5.731   2.825  70.625  1.00  0.00    -0.016 Cl 
HETATM   22 CL   UNL     1      -7.707   5.160  71.643  1.00  0.00    -0.104 Cl 
ENDBRANCH  14  15
ENDBRANCH  11  14
ENDBRANCH   2   3
TORSDOF 3
ENDMDL
MODEL      253
REMARK 921   NORMALIZED FREE ENERGY PREDICTED BY IDOCK:   -2.28 KCAL/MOL
REMARK 922        TOTAL FREE ENERGY PREDICTED BY IDOCK:   -3.24 KCAL/MOL
REMARK 923 INTER-LIGAND FREE ENERGY PREDICTED BY IDOCK:   -3.05 KCAL/MOL
REMARK 924 INTRA-LIGAND FREE ENERGY PREDICTED BY IDOCK:   -0.19 KCAL/MOL
REMARK 927      BINDING AFFINITY PREDICTED BY RF-SCORE:    0.00 PKD
ROOT
HETATM    1  C   UNL     1      -6.234  14.894  69.130  1.00  0.00    -0.105 C  
HETATM    2  S   UNL     1      -7.724  14.556  68.169  1.00  0.00    -0.142 SA 
ENDROOT
BRANCH   2   3
HETATM    3  C   UNL     1      -7.807  12.839  68.257  1.00  0.00    -0.141 A  
HETATM    4  N   UNL     1      -7.445  12.039  69.234  1.00  0.00    -0.336 NA 
HETATM    5  C   UNL     1      -7.638  10.768  68.739  1.00  0.00    -0.113 A  
HETATM    6  H   UNL     1      -7.097  12.302  70.157  1.00  0.00     0.000 HD 
HETATM    7  C   UNL     1      -8.120  10.814  67.436  1.00  0.00    -0.112 A  
HETATM    8  C   UNL     1      -8.306   9.679  66.648  1.00  0.00    -0.123 A  
HETATM    9  N   UNL     1      -8.281  12.148  67.183  1.00  0.00    -0.178 NA 
HETATM   10  C   UNL     1      -7.948   8.442  67.211  1.00  0.00    -0.105 A  
HETATM   11  C   UNL     1      -7.590   8.337  68.564  1.00  0.00    -0.100 A  
HETATM   12 CL   UNL     1      -7.852   7.131  66.080  1.00  0.00    -0.102 Cl 
HETATM   13  C   UNL     1      -7.401   9.513  69.324  1.00  0.00    -0.072 A  
BRANCH  11  14
HETATM   14  O   UNL     1      -7.266   7.197  69.274  1.00  0.00    -0.080 OA 
BRANCH  14  15
HETATM   15  C   UNL     1      -8.121   6.124  69.419  1.00  0.00    -0.112 A  
HETATM   16  C   UNL     1      -8.268   5.104  68.474  1.00  0.00    -0.089 A  
HETATM   17  C   UNL     1      -9.052   3.985  68.763  1.00  0.00    -0.190 A  
HETATM   18  C   UNL     1      -9.767   3.922  69.958  1.00  0.00    -0.242 A  
HETATM   19  C   UNL     1      -9.731   4.995  70.849  1.00  0.00    -0.190 A  
HETATM   20  C   UNL     1      -8.913   6.103  70.584  1.00  0.00    -0.147 A  
HETATM   21 CL   UNL     1     -10.719   4.885  72.265  1.00  0.00    -0.251 Cl 
HETATM   22 CL   UNL     1      -8.876   7.461  71.667  1.00  0.00    -0.122 Cl 
ENDBRANCH  14  15
ENDBRANCH  11  14
ENDBRANCH   2   3
TORSDOF 3
ENDMDL
MODEL      254
REMARK 921   NORMALIZED FREE ENERGY PREDICTED BY IDOCK:   -2.23 KCAL/MOL
REMARK 922        TOTAL FREE ENERGY PREDICTED BY IDOCK:   -3.19 KCAL/MOL
REMARK 923 INTER-LIGAND FREE ENERGY PREDICTED BY IDOCK:   -2.66 KCAL/MOL
REMARK 924 INTRA-LIGAND FREE ENERGY PREDICTED BY IDOCK:   -0.53 KCAL/MOL
REMARK 927      BINDING AFFINITY PREDICTED BY RF-SCORE:    0.00 PKD
ROOT
HETATM    1  C   UNL     1      -5.147  10.466  71.777  1.00  0.00    -0.052 C  
HETATM    2  S   UNL     1      -6.223  10.636  70.338  1.00  0.00    -0.101 SA 
ENDROOT
BRANCH   2   3
HETATM    3  C   UNL     1      -6.994   9.098  70.301  1.00  0.00    -0.059 A  
HETATM    4  N   UNL     1      -7.362   8.379  69.265  1.00  0.00    -0.070 NA 
HETATM    5  C   UNL     1      -8.015   7.292  69.805  1.00  0.00    -0.123 A  
HETATM    6  H   UNL     1      -7.201   8.580  68.279  1.00  0.00     0.000 HD 
HETATM    7  C   UNL     1      -8.041   7.371  71.193  1.00  0.00    -0.101 A  
HETATM    8  C   UNL     1      -8.727   6.465  71.999  1.00  0.00    -0.133 A  
HETATM    9  N   UNL     1      -7.322   8.499  71.479  1.00  0.00    -0.091 NA 
HETATM   10  C   UNL     1      -9.450   5.449  71.350  1.00  0.00    -0.149 A  
HETATM   11  C   UNL     1      -9.339   5.252  69.965  1.00  0.00    -0.152 A  
HETATM   12 CL   UNL     1     -10.564   4.591  72.364  1.00  0.00    -0.240 Cl 
HETATM   13  C   UNL     1      -8.643   6.201  69.183  1.00  0.00    -0.119 A  
BRANCH  11  14
HETATM   14  O   UNL     1      -9.938   4.275  69.193  1.00  0.00    -0.145 OA 
BRANCH  14  15
HETATM   15  C   UNL     1      -9.232   3.406  68.386  1.00  0.00    -0.173 A  
HETATM   16  C   UNL     1      -8.290   2.488  68.858  1.00  0.00    -0.083 A  
HETATM   17  C   UNL     1      -7.724   1.552  67.989  1.00  0.00    -0.053 A  
HETATM   18  C   UNL     1      -8.027   1.589  66.628  1.00  0.00    -0.071 A  
HETATM   19  C   UNL     1      -8.864   2.586  66.127  1.00  0.00    -0.132 A  
HETATM   20  C   UNL     1      -9.468   3.501  67.000  1.00  0.00    -0.176 A  
HETATM   21 CL   UNL     1      -9.117   2.624  64.415  1.00  0.00    -0.118 Cl 
HETATM   22 CL   UNL     1     -10.492   4.767  66.393  1.00  0.00    -0.317 Cl 
ENDBRANCH  14  15
ENDBRANCH  11  14
ENDBRANCH   2   3
TORSDOF 3
ENDMDL
MODEL      255
REMARK 921   NORMALIZED FREE ENERGY PREDICTED BY IDOCK:   -2.17 KCAL/MOL
REMARK 922        TOTAL FREE ENERGY PREDICTED BY IDOCK:   -3.11 KCAL/MOL
REMARK 923 INTER-LIGAND FREE ENERGY PREDICTED BY IDOCK:   -3.25 KCAL/MOL
REMARK 924 INTRA-LIGAND FREE ENERGY PREDICTED BY IDOCK:    0.14 KCAL/MOL
REMARK 927      BINDING AFFINITY PREDICTED BY RF-SCORE:    0.00 PKD
ROOT
HETATM    1  C   UNL     1      -6.439  16.195  68.879  1.00  0.00    -0.133 C  
HETATM    2  S   UNL     1      -5.297  14.995  69.595  1.00  0.00    -0.092 SA 
ENDROOT
BRANCH   2   3
HETATM    3  C   UNL     1      -6.030  13.507  69.138  1.00  0.00    -0.089 A  
HETATM    4  N   UNL     1      -6.923  12.789  69.781  1.00  0.00    -0.317 NA 
HETATM    5  C   UNL     1      -7.084  11.656  69.013  1.00  0.00    -0.108 A  
HETATM    6  H   UNL     1      -7.395  13.021  70.655  1.00  0.00     0.000 HD 
HETATM    7  C   UNL     1      -6.261  11.699  67.893  1.00  0.00    -0.050 A  
HETATM    8  C   UNL     1      -6.135  10.639  66.996  1.00  0.00    -0.064 A  
HETATM    9  N   UNL     1      -5.654  12.922  67.967  1.00  0.00    -0.090 NA 
HETATM   10  C   UNL     1      -6.859   9.469  67.279  1.00  0.00    -0.084 A  
HETATM   11  C   UNL     1      -7.802   9.433  68.318  1.00  0.00    -0.090 A  
HETATM   12 CL   UNL     1      -6.387   8.082  66.352  1.00  0.00    -0.046 Cl 
HETATM   13  C   UNL     1      -7.890  10.524  69.212  1.00  0.00    -0.144 A  
BRANCH  11  14
HETATM   14  O   UNL     1      -8.624   8.385  68.687  1.00  0.00    -0.130 OA 
BRANCH  14  15
HETATM   15  C   UNL     1      -9.572   8.480  69.685  1.00  0.00    -0.170 A  
HETATM   16  C   UNL     1      -9.483   7.826  70.917  1.00  0.00    -0.165 A  
HETATM   17  C   UNL     1     -10.418   8.087  71.921  1.00  0.00    -0.296 A  
HETATM   18  C   UNL     1     -11.499   8.932  71.669  1.00  0.00    -0.409 A  
HETATM   19  C   UNL     1     -11.668   9.485  70.399  1.00  0.00    -0.170 A  
HETATM   20  C   UNL     1     -10.710   9.260  69.400  1.00  0.00    -0.208 A  
HETATM   21 CL   UNL     1     -13.083  10.445  70.134  1.00  0.00    -0.068 Cl 
HETATM   22 CL   UNL     1     -10.918   9.918  67.805  1.00  0.00    -0.325 Cl 
ENDBRANCH  14  15
ENDBRANCH  11  14
ENDBRANCH   2   3
TORSDOF 3
ENDMDL
MODEL      256
REMARK 921   NORMALIZED FREE ENERGY PREDICTED BY IDOCK:   -2.10 KCAL/MOL
REMARK 922        TOTAL FREE ENERGY PREDICTED BY IDOCK:   -3.03 KCAL/MOL
REMARK 923 INTER-LIGAND FREE ENERGY PREDICTED BY IDOCK:   -2.60 KCAL/MOL
REMARK 924 INTRA-LIGAND FREE ENERGY PREDICTED BY IDOCK:   -0.43 KCAL/MOL
REMARK 927      BINDING AFFINITY PREDICTED BY RF-SCORE:    0.00 PKD
ROOT
HETATM    1  C   UNL     1      -5.689   9.226  74.564  1.00  0.00    -0.092 C  
HETATM    2  S   UNL     1      -5.163   9.085  72.844  1.00  0.00    -0.077 SA 
ENDROOT
BRANCH   2   3
HETATM    3  C   UNL     1      -6.073   7.722  72.316  1.00  0.00    -0.040 A  
HETATM    4  N   UNL     1      -6.262   7.271  71.097  1.00  0.00    -0.036 NA 
HETATM    5  C   UNL     1      -7.145   6.223  71.241  1.00  0.00    -0.077 A  
HETATM    6  H   UNL     1      -5.847   7.621  70.233  1.00  0.00     0.000 HD 
HETATM    7  C   UNL     1      -7.493   6.052  72.577  1.00  0.00    -0.098 A  
HETATM    8  C   UNL     1      -8.451   5.136  73.006  1.00  0.00    -0.111 A  
HETATM    9  N   UNL     1      -6.740   6.979  73.243  1.00  0.00    -0.066 NA 
HETATM   10  C   UNL     1      -9.109   4.384  72.017  1.00  0.00    -0.125 A  
HETATM   11  C   UNL     1      -8.693   4.427  70.678  1.00  0.00    -0.090 A  
HETATM   12 CL   UNL     1     -10.523   3.545  72.566  1.00  0.00    -0.191 Cl 
HETATM   13  C   UNL     1      -7.726   5.379  70.282  1.00  0.00    -0.077 A  
BRANCH  11  14
HETATM   14  O   UNL     1      -9.197   3.715  69.606  1.00  0.00    -0.119 OA 
BRANCH  14  15
HETATM   15  C   UNL     1      -9.731   4.312  68.482  1.00  0.00    -0.094 A  
HETATM   16  C   UNL     1     -10.580   5.423  68.512  1.00  0.00    -0.153 A  
HETATM   17  C   UNL     1     -10.963   6.047  67.324  1.00  0.00    -0.356 A  
HETATM   18  C   UNL     1     -10.576   5.511  66.095  1.00  0.00    -0.136 A  
HETATM   19  C   UNL     1      -9.839   4.327  66.054  1.00  0.00    -0.222 A  
HETATM   20  C   UNL     1      -9.416   3.719  67.244  1.00  0.00    -0.200 A  
HETATM   21 CL   UNL     1      -9.478   3.672  64.493  1.00  0.00    -0.146 Cl 
HETATM   22 CL   UNL     1      -8.521   2.230  67.213  1.00  0.00    -0.093 Cl 
ENDBRANCH  14  15
ENDBRANCH  11  14
ENDBRANCH   2   3
TORSDOF 3
ENDMDL
MODEL      257
REMARK 921   NORMALIZED FREE ENERGY PREDICTED BY IDOCK:   -1.81 KCAL/MOL
REMARK 922        TOTAL FREE ENERGY PREDICTED BY IDOCK:   -2.69 KCAL/MOL
REMARK 923 INTER-LIGAND FREE ENERGY PREDICTED BY IDOCK:   -2.69 KCAL/MOL
REMARK 924 INTRA-LIGAND FREE ENERGY PREDICTED BY IDOCK:    0.00 KCAL/MOL
REMARK 927      BINDING AFFINITY PREDICTED BY RF-SCORE:    0.00 PKD
ROOT
HETATM    1  C   UNL     1      -5.343  12.854  68.456  1.00  0.00    -0.061 C  
HETATM    2  S   UNL     1      -6.959  12.804  67.655  1.00  0.00    -0.156 SA 
ENDROOT
BRANCH   2   3
HETATM    3  C   UNL     1      -7.368  11.139  67.809  1.00  0.00    -0.093 A  
HETATM    4  N   UNL     1      -6.597  10.081  67.697  1.00  0.00    -0.067 NA 
HETATM    5  C   UNL     1      -7.453   9.007  67.816  1.00  0.00    -0.085 A  
HETATM    6  H   UNL     1      -5.587  10.059  67.555  1.00  0.00     0.000 HD 
HETATM    7  C   UNL     1      -8.763   9.438  67.995  1.00  0.00    -0.124 A  
HETATM    8  C   UNL     1      -9.854   8.572  68.037  1.00  0.00    -0.202 A  
HETATM    9  N   UNL     1      -8.664  10.801  68.055  1.00  0.00    -0.129 NA 
HETATM   10  C   UNL     1      -9.595   7.204  67.852  1.00  0.00    -0.133 A  
HETATM   11  C   UNL     1      -8.280   6.715  67.806  1.00  0.00    -0.119 A  
HETATM   12 CL   UNL     1     -10.999   6.234  67.549  1.00  0.00    -0.434 Cl 
HETATM   13  C   UNL     1      -7.202   7.627  67.753  1.00  0.00    -0.087 A  
BRANCH  11  14
HETATM   14  O   UNL     1      -7.862   5.403  67.682  1.00  0.00    -0.098 OA 
BRANCH  14  15
HETATM   15  C   UNL     1      -8.422   4.359  68.389  1.00  0.00    -0.093 A  
HETATM   16  C   UNL     1      -9.196   3.347  67.814  1.00  0.00    -0.235 A  
HETATM   17  C   UNL     1      -9.607   2.254  68.580  1.00  0.00    -0.116 A  
HETATM   18  C   UNL     1      -9.325   2.211  69.946  1.00  0.00    -0.168 A  
HETATM   19  C   UNL     1      -8.668   3.281  70.555  1.00  0.00    -0.075 A  
HETATM   20  C   UNL     1      -8.216   4.361  69.783  1.00  0.00    -0.062 A  
HETATM   21 CL   UNL     1      -8.439   3.199  72.268  1.00  0.00    -0.076 Cl 
HETATM   22 CL   UNL     1      -7.420   5.714  70.527  1.00  0.00    -0.082 Cl 
ENDBRANCH  14  15
ENDBRANCH  11  14
ENDBRANCH   2   3
TORSDOF 3
ENDMDL
MODEL      258
REMARK 921   NORMALIZED FREE ENERGY PREDICTED BY IDOCK:   -1.81 KCAL/MOL
REMARK 922        TOTAL FREE ENERGY PREDICTED BY IDOCK:   -2.69 KCAL/MOL
REMARK 923 INTER-LIGAND FREE ENERGY PREDICTED BY IDOCK:   -2.55 KCAL/MOL
REMARK 924 INTRA-LIGAND FREE ENERGY PREDICTED BY IDOCK:   -0.14 KCAL/MOL
REMARK 927      BINDING AFFINITY PREDICTED BY RF-SCORE:    0.00 PKD
ROOT
HETATM    1  C   UNL     1      -5.169  12.815  68.539  1.00  0.00    -0.060 C  
HETATM    2  S   UNL     1      -6.720  13.192  67.696  1.00  0.00    -0.153 SA 
ENDROOT
BRANCH   2   3
HETATM    3  C   UNL     1      -7.312  11.615  67.344  1.00  0.00    -0.128 A  
HETATM    4  N   UNL     1      -6.978  10.802  66.367  1.00  0.00    -0.128 NA 
HETATM    5  C   UNL     1      -7.824   9.723  66.502  1.00  0.00    -0.109 A  
HETATM    6  H   UNL     1      -6.252  10.939  65.663  1.00  0.00     0.000 HD 
HETATM    7  C   UNL     1      -8.684   9.902  67.579  1.00  0.00    -0.121 A  
HETATM    8  C   UNL     1      -9.719   9.021  67.888  1.00  0.00    -0.185 A  
HETATM    9  N   UNL     1      -8.285  11.086  68.135  1.00  0.00    -0.119 NA 
HETATM   10  C   UNL     1      -9.902   7.922  67.032  1.00  0.00    -0.225 A  
HETATM   11  C   UNL     1      -8.976   7.629  66.019  1.00  0.00    -0.139 A  
HETATM   12 CL   UNL     1     -11.402   7.079  67.244  1.00  0.00    -0.150 Cl 
HETATM   13  C   UNL     1      -7.948   8.556  65.731  1.00  0.00    -0.107 A  
BRANCH  11  14
HETATM   14  O   UNL     1      -8.985   6.567  65.136  1.00  0.00     0.100 OA 
BRANCH  14  15
HETATM   15  C   UNL     1      -8.946   5.247  65.536  1.00  0.00    -0.155 A  
HETATM   16  C   UNL     1      -8.932   4.832  66.871  1.00  0.00    -0.111 A  
HETATM   17  C   UNL     1      -9.031   3.475  67.187  1.00  0.00    -0.168 A  
HETATM   18  C   UNL     1      -9.052   2.520  66.170  1.00  0.00    -0.102 A  
HETATM   19  C   UNL     1      -8.932   2.918  64.839  1.00  0.00    -0.133 A  
HETATM   20  C   UNL     1      -8.874   4.280  64.514  1.00  0.00    -0.143 A  
HETATM   21 CL   UNL     1      -8.868   1.670  63.641  1.00  0.00    -0.087 Cl 
HETATM   22 CL   UNL     1      -8.697   4.794  62.864  1.00  0.00    -0.126 Cl 
ENDBRANCH  14  15
ENDBRANCH  11  14
ENDBRANCH   2   3
TORSDOF 3
ENDMDL
MODEL      259
REMARK 921   NORMALIZED FREE ENERGY PREDICTED BY IDOCK:   -1.69 KCAL/MOL
REMARK 922        TOTAL FREE ENERGY PREDICTED BY IDOCK:   -2.55 KCAL/MOL
REMARK 923 INTER-LIGAND FREE ENERGY PREDICTED BY IDOCK:   -2.49 KCAL/MOL
REMARK 924 INTRA-LIGAND FREE ENERGY PREDICTED BY IDOCK:   -0.06 KCAL/MOL
REMARK 927      BINDING AFFINITY PREDICTED BY RF-SCORE:    0.00 PKD
ROOT
HETATM    1  C   UNL     1      -8.125   2.529  74.503  1.00  0.00    -0.065 C  
HETATM    2  S   UNL     1      -7.547   1.649  73.037  1.00  0.00    -0.033 SA 
ENDROOT
BRANCH   2   3
HETATM    3  C   UNL     1      -7.933   2.771  71.789  1.00  0.00    -0.057 A  
HETATM    4  N   UNL     1      -8.744   3.803  71.822  1.00  0.00    -0.093 NA 
HETATM    5  C   UNL     1      -8.752   4.287  70.532  1.00  0.00    -0.079 A  
HETATM    6  H   UNL     1      -9.255   4.167  72.626  1.00  0.00     0.000 HD 
HETATM    7  C   UNL     1      -7.932   3.519  69.713  1.00  0.00    -0.049 A  
HETATM    8  C   UNL     1      -7.831   3.712  68.336  1.00  0.00    -0.063 A  
HETATM    9  N   UNL     1      -7.372   2.603  70.559  1.00  0.00    -0.033 NA 
HETATM   10  C   UNL     1      -8.634   4.715  67.767  1.00  0.00    -0.103 A  
HETATM   11  C   UNL     1      -9.368   5.599  68.572  1.00  0.00    -0.123 A  
HETATM   12 CL   UNL     1      -8.743   4.663  66.038  1.00  0.00    -0.115 Cl 
HETATM   13  C   UNL     1      -9.454   5.361  69.963  1.00  0.00    -0.212 A  
BRANCH  11  14
HETATM   14  O   UNL     1     -10.157   6.660  68.173  1.00  0.00    -0.145 OA 
BRANCH  14  15
HETATM   15  C   UNL     1      -9.928   7.965  68.560  1.00  0.00    -0.187 A  
HETATM   16  C   UNL     1      -9.877   8.391  69.891  1.00  0.00    -0.186 A  
HETATM   17  C   UNL     1      -9.502   9.701  70.196  1.00  0.00    -0.298 A  
HETATM   18  C   UNL     1      -9.267  10.618  69.171  1.00  0.00    -0.162 A  
HETATM   19  C   UNL     1      -9.445  10.237  67.841  1.00  0.00    -0.141 A  
HETATM   20  C   UNL     1      -9.779   8.912  67.528  1.00  0.00    -0.170 A  
HETATM   21 CL   UNL     1      -9.228  11.455  66.631  1.00  0.00    -0.182 Cl 
HETATM   22 CL   UNL     1     -10.032   8.425  65.879  1.00  0.00     0.002 Cl 
ENDBRANCH  14  15
ENDBRANCH  11  14
ENDBRANCH   2   3
TORSDOF 3
ENDMDL
MODEL      260
REMARK 921   NORMALIZED FREE ENERGY PREDICTED BY IDOCK:   -1.68 KCAL/MOL
REMARK 922        TOTAL FREE ENERGY PREDICTED BY IDOCK:   -2.53 KCAL/MOL
REMARK 923 INTER-LIGAND FREE ENERGY PREDICTED BY IDOCK:   -2.51 KCAL/MOL
REMARK 924 INTRA-LIGAND FREE ENERGY PREDICTED BY IDOCK:   -0.03 KCAL/MOL
REMARK 927      BINDING AFFINITY PREDICTED BY RF-SCORE:    0.00 PKD
ROOT
HETATM    1  C   UNL     1     -10.450   6.393  73.660  1.00  0.00    -0.295 C  
HETATM    2  S   UNL     1      -9.343   7.802  73.447  1.00  0.00    -0.285 SA 
ENDROOT
BRANCH   2   3
HETATM    3  C   UNL     1      -8.656   7.469  71.904  1.00  0.00    -0.107 A  
HETATM    4  N   UNL     1      -8.827   8.102  70.765  1.00  0.00    -0.137 NA 
HETATM    5  C   UNL     1      -8.125   7.360  69.841  1.00  0.00    -0.126 A  
HETATM    6  H   UNL     1      -9.361   8.956  70.602  1.00  0.00     0.000 HD 
HETATM    7  C   UNL     1      -7.530   6.257  70.443  1.00  0.00    -0.091 A  
HETATM    8  C   UNL     1      -6.848   5.272  69.731  1.00  0.00    -0.056 A  
HETATM    9  N   UNL     1      -7.831   6.394  71.770  1.00  0.00    -0.100 NA 
HETATM   10  C   UNL     1      -6.803   5.405  68.333  1.00  0.00    -0.056 A  
HETATM   11  C   UNL     1      -7.269   6.568  67.700  1.00  0.00    -0.090 A  
HETATM   12 CL   UNL     1      -6.273   3.988  67.486  1.00  0.00    -0.035 Cl 
HETATM   13  C   UNL     1      -7.965   7.537  68.457  1.00  0.00    -0.123 A  
BRANCH  11  14
HETATM   14  O   UNL     1      -7.247   6.872  66.353  1.00  0.00    -0.072 OA 
BRANCH  14  15
HETATM   15  C   UNL     1      -7.447   5.935  65.360  1.00  0.00    -0.082 A  
HETATM   16  C   UNL     1      -6.464   5.532  64.451  1.00  0.00    -0.033 A  
HETATM   17  C   UNL     1      -6.711   4.478  63.569  1.00  0.00    -0.042 A  
HETATM   18  C   UNL     1      -7.972   3.883  63.526  1.00  0.00    -0.087 A  
HETATM   19  C   UNL     1      -8.999   4.367  64.337  1.00  0.00    -0.151 A  
HETATM   20  C   UNL     1      -8.745   5.396  65.255  1.00  0.00    -0.145 A  
HETATM   21 CL   UNL     1     -10.560   3.641  64.160  1.00  0.00    -0.262 Cl 
HETATM   22 CL   UNL     1     -10.016   6.031  66.254  1.00  0.00    -0.134 Cl 
ENDBRANCH  14  15
ENDBRANCH  11  14
ENDBRANCH   2   3
TORSDOF 3
ENDMDL
MODEL      261
REMARK 921   NORMALIZED FREE ENERGY PREDICTED BY IDOCK:   -1.51 KCAL/MOL
REMARK 922        TOTAL FREE ENERGY PREDICTED BY IDOCK:   -2.33 KCAL/MOL
REMARK 923 INTER-LIGAND FREE ENERGY PREDICTED BY IDOCK:   -2.92 KCAL/MOL
REMARK 924 INTRA-LIGAND FREE ENERGY PREDICTED BY IDOCK:    0.59 KCAL/MOL
REMARK 927      BINDING AFFINITY PREDICTED BY RF-SCORE:    0.00 PKD
ROOT
HETATM    1  C   UNL     1      -5.201  10.023  74.469  1.00  0.00    -0.059 C  
HETATM    2  S   UNL     1      -5.136   9.703  72.694  1.00  0.00    -0.025 SA 
ENDROOT
BRANCH   2   3
HETATM    3  C   UNL     1      -6.028   8.236  72.576  1.00  0.00    -0.060 A  
HETATM    4  N   UNL     1      -6.532   7.654  71.511  1.00  0.00    -0.038 NA 
HETATM    5  C   UNL     1      -7.225   6.567  71.998  1.00  0.00    -0.086 A  
HETATM    6  H   UNL     1      -6.431   7.943  70.538  1.00  0.00     0.000 HD 
HETATM    7  C   UNL     1      -7.136   6.506  73.384  1.00  0.00    -0.078 A  
HETATM    8  C   UNL     1      -7.828   5.574  74.155  1.00  0.00    -0.099 A  
HETATM    9  N   UNL     1      -6.309   7.545  73.715  1.00  0.00    -0.071 NA 
HETATM   10  C   UNL     1      -8.678   4.684  73.476  1.00  0.00    -0.103 A  
HETATM   11  C   UNL     1      -8.691   4.622  72.074  1.00  0.00    -0.122 A  
HETATM   12 CL   UNL     1      -9.774   3.809  74.494  1.00  0.00    -0.147 Cl 
HETATM   13  C   UNL     1      -7.984   5.594  71.330  1.00  0.00    -0.113 A  
BRANCH  11  14
HETATM   14  O   UNL     1      -9.424   3.774  71.265  1.00  0.00    -0.134 OA 
BRANCH  14  15
HETATM   15  C   UNL     1      -9.436   3.860  69.888  1.00  0.00    -0.197 A  
HETATM   16  C   UNL     1      -8.765   2.974  69.041  1.00  0.00    -0.133 A  
HETATM   17  C   UNL     1      -8.943   3.051  67.658  1.00  0.00    -0.192 A  
HETATM   18  C   UNL     1      -9.718   4.073  67.109  1.00  0.00    -0.207 A  
HETATM   19  C   UNL     1     -10.283   5.041  67.939  1.00  0.00    -0.084 A  
HETATM   20  C   UNL     1     -10.143   4.944  69.331  1.00  0.00    -0.200 A  
HETATM   21 CL   UNL     1     -11.151   6.331  67.178  1.00  0.00    -0.433 Cl 
HETATM   22 CL   UNL     1     -10.816   6.155  70.380  1.00  0.00    -0.345 Cl 
ENDBRANCH  14  15
ENDBRANCH  11  14
ENDBRANCH   2   3
TORSDOF 3
ENDMDL
MODEL      262
REMARK 921   NORMALIZED FREE ENERGY PREDICTED BY IDOCK:   -1.41 KCAL/MOL
REMARK 922        TOTAL FREE ENERGY PREDICTED BY IDOCK:   -2.22 KCAL/MOL
REMARK 923 INTER-LIGAND FREE ENERGY PREDICTED BY IDOCK:   -2.54 KCAL/MOL
REMARK 924 INTRA-LIGAND FREE ENERGY PREDICTED BY IDOCK:    0.32 KCAL/MOL
REMARK 927      BINDING AFFINITY PREDICTED BY RF-SCORE:    0.00 PKD
ROOT
HETATM    1  C   UNL     1      -6.358  16.381  68.790  1.00  0.00    -0.135 C  
HETATM    2  S   UNL     1      -5.152  15.049  68.962  1.00  0.00    -0.092 SA 
ENDROOT
BRANCH   2   3
HETATM    3  C   UNL     1      -6.129  13.662  68.672  1.00  0.00    -0.087 A  
HETATM    4  N   UNL     1      -7.150  13.206  69.362  1.00  0.00    -0.321 NA 
HETATM    5  C   UNL     1      -7.492  12.023  68.744  1.00  0.00    -0.086 A  
HETATM    6  H   UNL     1      -7.592  13.634  70.175  1.00  0.00     0.000 HD 
HETATM    7  C   UNL     1      -6.651  11.767  67.667  1.00  0.00    -0.085 A  
HETATM    8  C   UNL     1      -6.696  10.589  66.924  1.00  0.00    -0.086 A  
HETATM    9  N   UNL     1      -5.837  12.865  67.607  1.00  0.00    -0.148 NA 
HETATM   10  C   UNL     1      -7.623   9.612  67.326  1.00  0.00    -0.091 A  
HETATM   11  C   UNL     1      -8.580   9.884  68.316  1.00  0.00    -0.115 A  
HETATM   12 CL   UNL     1      -7.385   8.050  66.613  1.00  0.00    -0.087 Cl 
HETATM   13  C   UNL     1      -8.491  11.086  69.053  1.00  0.00    -0.082 A  
BRANCH  11  14
HETATM   14  O   UNL     1      -9.583   9.056  68.782  1.00  0.00    -0.150 OA 
BRANCH  14  15
HETATM   15  C   UNL     1      -9.537   7.680  68.688  1.00  0.00    -0.152 A  
HETATM   16  C   UNL     1      -8.946   6.848  69.643  1.00  0.00    -0.144 A  
HETATM   17  C   UNL     1      -9.065   5.461  69.537  1.00  0.00    -0.140 A  
HETATM   18  C   UNL     1      -9.696   4.895  68.429  1.00  0.00    -0.212 A  
HETATM   19  C   UNL     1     -10.172   5.715  67.405  1.00  0.00    -0.205 A  
HETATM   20  C   UNL     1     -10.092   7.110  67.526  1.00  0.00    -0.188 A  
HETATM   21 CL   UNL     1     -10.855   4.937  66.018  1.00  0.00    -0.281 Cl 
HETATM   22 CL   UNL     1     -10.654   8.146  66.249  1.00  0.00     0.349 Cl 
ENDBRANCH  14  15
ENDBRANCH  11  14
ENDBRANCH   2   3
TORSDOF 3
ENDMDL
MODEL      263
REMARK 921   NORMALIZED FREE ENERGY PREDICTED BY IDOCK:   -1.01 KCAL/MOL
REMARK 922        TOTAL FREE ENERGY PREDICTED BY IDOCK:   -1.74 KCAL/MOL
REMARK 923 INTER-LIGAND FREE ENERGY PREDICTED BY IDOCK:   -3.84 KCAL/MOL
REMARK 924 INTRA-LIGAND FREE ENERGY PREDICTED BY IDOCK:    2.10 KCAL/MOL
REMARK 927      BINDING AFFINITY PREDICTED BY RF-SCORE:    0.00 PKD
ROOT
HETATM    1  C   UNL     1      -8.645   8.076  66.457  1.00  0.00    -0.140 C  
HETATM    2  S   UNL     1      -7.049   8.487  67.191  1.00  0.00    -0.076 SA 
ENDROOT
BRANCH   2   3
HETATM    3  C   UNL     1      -7.187  10.192  67.383  1.00  0.00    -0.088 A  
HETATM    4  N   UNL     1      -8.091  11.012  66.894  1.00  0.00    -0.136 NA 
HETATM    5  C   UNL     1      -7.670  12.267  67.275  1.00  0.00    -0.161 A  
HETATM    6  H   UNL     1      -8.921  10.771  66.353  1.00  0.00     0.000 HD 
HETATM    7  C   UNL     1      -6.486  12.192  68.000  1.00  0.00    -0.069 A  
HETATM    8  C   UNL     1      -5.775  13.314  68.421  1.00  0.00    -0.084 A  
HETATM    9  N   UNL     1      -6.243  10.851  68.109  1.00  0.00    -0.050 NA 
HETATM   10  C   UNL     1      -6.281  14.571  68.052  1.00  0.00    -0.154 A  
HETATM   11  C   UNL     1      -7.540  14.696  67.442  1.00  0.00    -0.192 A  
HETATM   12 CL   UNL     1      -5.181  15.892  68.279  1.00  0.00    -0.100 Cl 
HETATM   13  C   UNL     1      -8.223  13.533  67.020  1.00  0.00    -0.050 A  
BRANCH  11  14
HETATM   14  O   UNL     1      -8.195  15.853  67.069  1.00  0.00    -0.179 OA 
BRANCH  14  15
HETATM   15  C   UNL     1      -8.014  17.066  67.702  1.00  0.00    -0.176 A  
HETATM   16  C   UNL     1      -6.788  17.516  68.200  1.00  0.00    -0.197 A  
HETATM   17  C   UNL     1      -6.666  18.813  68.702  1.00  0.00    -0.287 A  
HETATM   18  C   UNL     1      -7.789  19.636  68.795  1.00  0.00    -0.332 A  
HETATM   19  C   UNL     1      -9.042  19.148  68.423  1.00  0.00    -0.359 A  
HETATM   20  C   UNL     1      -9.163  17.861  67.879  1.00  0.00    -0.263 A  
HETATM   21 CL   UNL     1     -10.402  20.193  68.656  1.00  0.00    -0.450 Cl 
HETATM   22 CL   UNL     1     -10.719  17.226  67.436  1.00  0.00    -0.297 Cl 
ENDBRANCH  14  15
ENDBRANCH  11  14
ENDBRANCH   2   3
TORSDOF 3
ENDMDL
MODEL      264
REMARK 921   NORMALIZED FREE ENERGY PREDICTED BY IDOCK:   -0.99 KCAL/MOL
REMARK 922        TOTAL FREE ENERGY PREDICTED BY IDOCK:   -1.73 KCAL/MOL
REMARK 923 INTER-LIGAND FREE ENERGY PREDICTED BY IDOCK:   -2.79 KCAL/MOL
REMARK 924 INTRA-LIGAND FREE ENERGY PREDICTED BY IDOCK:    1.06 KCAL/MOL
REMARK 927      BINDING AFFINITY PREDICTED BY RF-SCORE:    0.00 PKD
ROOT
HETATM    1  C   UNL     1     -14.404   8.584  72.097  1.00  0.00    -0.436 C  
HETATM    2  S   UNL     1     -13.741   7.226  71.111  1.00  0.00     0.036 SA 
ENDROOT
BRANCH   2   3
HETATM    3  C   UNL     1     -12.270   6.888  71.938  1.00  0.00    -0.332 A  
HETATM    4  N   UNL     1     -11.205   7.644  72.081  1.00  0.00    -0.267 NA 
HETATM    5  C   UNL     1     -10.294   6.848  72.741  1.00  0.00    -0.213 A  
HETATM    6  H   UNL     1     -11.080   8.608  71.773  1.00  0.00     0.000 HD 
HETATM    7  C   UNL     1     -10.828   5.588  72.989  1.00  0.00    -0.274 A  
HETATM    8  C   UNL     1     -10.095   4.543  73.547  1.00  0.00    -0.200 A  
HETATM    9  N   UNL     1     -12.112   5.669  72.526  1.00  0.00    -0.123 NA 
HETATM   10  C   UNL     1      -8.741   4.789  73.832  1.00  0.00    -0.105 A  
HETATM   11  C   UNL     1      -8.201   6.080  73.727  1.00  0.00    -0.108 A  
HETATM   12 CL   UNL     1      -7.802   3.372  74.172  1.00  0.00    -0.065 Cl 
HETATM   13  C   UNL     1      -8.975   7.109  73.145  1.00  0.00    -0.163 A  
BRANCH  11  14
HETATM   14  O   UNL     1      -6.915   6.492  74.018  1.00  0.00    -0.081 OA 
BRANCH  14  15
HETATM   15  C   UNL     1      -6.374   7.675  73.556  1.00  0.00    -0.067 A  
HETATM   16  C   UNL     1      -5.948   8.719  74.383  1.00  0.00    -0.142 A  
HETATM   17  C   UNL     1      -5.286   9.821  73.839  1.00  0.00    -0.034 A  
HETATM   18  C   UNL     1      -5.128   9.931  72.457  1.00  0.00    -0.024 A  
HETATM   19  C   UNL     1      -5.668   8.958  71.616  1.00  0.00    -0.057 A  
HETATM   20  C   UNL     1      -6.296   7.828  72.158  1.00  0.00    -0.044 A  
HETATM   21 CL   UNL     1      -5.515   9.212  69.910  1.00  0.00    -0.029 Cl 
HETATM   22 CL   UNL     1      -6.998   6.620  71.126  1.00  0.00    -0.069 Cl 
ENDBRANCH  14  15
ENDBRANCH  11  14
ENDBRANCH   2   3
TORSDOF 3
ENDMDL
MODEL      265
REMARK 921   NORMALIZED FREE ENERGY PREDICTED BY IDOCK:   -0.72 KCAL/MOL
REMARK 922        TOTAL FREE ENERGY PREDICTED BY IDOCK:   -1.41 KCAL/MOL
REMARK 923 INTER-LIGAND FREE ENERGY PREDICTED BY IDOCK:   -1.43 KCAL/MOL
REMARK 924 INTRA-LIGAND FREE ENERGY PREDICTED BY IDOCK:    0.02 KCAL/MOL
REMARK 927      BINDING AFFINITY PREDICTED BY RF-SCORE:    0.00 PKD
ROOT
HETATM    1  C   UNL     1      -7.525   7.991  74.021  1.00  0.00    -0.171 C  
HETATM    2  S   UNL     1      -6.358   8.728  72.857  1.00  0.00     0.059 SA 
ENDROOT
BRANCH   2   3
HETATM    3  C   UNL     1      -6.558   7.713  71.481  1.00  0.00    -0.045 A  
HETATM    4  N   UNL     1      -5.730   7.494  70.485  1.00  0.00    -0.027 NA 
HETATM    5  C   UNL     1      -6.429   6.682  69.619  1.00  0.00    -0.044 A  
HETATM    6  H   UNL     1      -4.779   7.846  70.377  1.00  0.00     0.000 HD 
HETATM    7  C   UNL     1      -7.703   6.419  70.108  1.00  0.00    -0.098 A  
HETATM    8  C   UNL     1      -8.668   5.714  69.392  1.00  0.00    -0.109 A  
HETATM    9  N   UNL     1      -7.729   7.035  71.329  1.00  0.00    -0.090 NA 
HETATM   10  C   UNL     1      -8.322   5.287  68.098  1.00  0.00    -0.097 A  
HETATM   11  C   UNL     1      -7.008   5.410  67.621  1.00  0.00    -0.066 A  
HETATM   12 CL   UNL     1      -9.657   4.750  67.131  1.00  0.00    -0.169 Cl 
HETATM   13  C   UNL     1      -6.063   6.143  68.375  1.00  0.00    -0.024 A  
BRANCH  11  14
HETATM   14  O   UNL     1      -6.501   4.996  66.405  1.00  0.00    -0.039 OA 
BRANCH  14  15
HETATM   15  C   UNL     1      -7.151   5.196  65.204  1.00  0.00    -0.063 A  
HETATM   16  C   UNL     1      -7.664   4.167  64.409  1.00  0.00    -0.084 A  
HETATM   17  C   UNL     1      -8.428   4.465  63.279  1.00  0.00    -0.108 A  
HETATM   18  C   UNL     1      -8.606   5.791  62.885  1.00  0.00     0.088 A  
HETATM   19  C   UNL     1      -7.987   6.818  63.598  1.00  0.00    -0.067 A  
HETATM   20  C   UNL     1      -7.254   6.528  64.757  1.00  0.00    -0.067 A  
HETATM   21 CL   UNL     1      -8.175   8.429  62.994  1.00  0.00    -0.168 Cl 
HETATM   22 CL   UNL     1      -6.453   7.790  65.643  1.00  0.00    -0.042 Cl 
ENDBRANCH  14  15
ENDBRANCH  11  14
ENDBRANCH   2   3
TORSDOF 3
ENDMDL
MODEL      266
REMARK 921   NORMALIZED FREE ENERGY PREDICTED BY IDOCK:   -0.49 KCAL/MOL
REMARK 922        TOTAL FREE ENERGY PREDICTED BY IDOCK:   -1.14 KCAL/MOL
REMARK 923 INTER-LIGAND FREE ENERGY PREDICTED BY IDOCK:   -1.37 KCAL/MOL
REMARK 924 INTRA-LIGAND FREE ENERGY PREDICTED BY IDOCK:    0.22 KCAL/MOL
REMARK 927      BINDING AFFINITY PREDICTED BY RF-SCORE:    0.00 PKD
ROOT
HETATM    1  C   UNL     1      -7.378   8.397  73.119  1.00  0.00    -0.056 C  
HETATM    2  S   UNL     1      -6.162   8.978  71.919  1.00  0.00    -0.006 SA 
ENDROOT
BRANCH   2   3
HETATM    3  C   UNL     1      -6.394   7.863  70.627  1.00  0.00    -0.037 A  
HETATM    4  N   UNL     1      -5.663   7.675  69.552  1.00  0.00    -0.023 NA 
HETATM    5  C   UNL     1      -6.355   6.739  68.815  1.00  0.00    -0.031 A  
HETATM    6  H   UNL     1      -4.779   8.124  69.314  1.00  0.00     0.000 HD 
HETATM    7  C   UNL     1      -7.527   6.367  69.465  1.00  0.00    -0.093 A  
HETATM    8  C   UNL     1      -8.476   5.515  68.903  1.00  0.00    -0.101 A  
HETATM    9  N   UNL     1      -7.487   7.051  70.649  1.00  0.00    -0.083 NA 
HETATM   10  C   UNL     1      -8.231   5.051  67.600  1.00  0.00    -0.105 A  
HETATM   11  C   UNL     1      -7.002   5.289  66.965  1.00  0.00    -0.065 A  
HETATM   12 CL   UNL     1      -9.593   4.310  66.826  1.00  0.00    -0.205 Cl 
HETATM   13  C   UNL     1      -6.071   6.168  67.564  1.00  0.00    -0.018 A  
BRANCH  11  14
HETATM   14  O   UNL     1      -6.589   4.859  65.719  1.00  0.00    -0.042 OA 
BRANCH  14  15
HETATM   15  C   UNL     1      -7.246   3.884  64.997  1.00  0.00    -0.067 A  
HETATM   16  C   UNL     1      -6.910   2.527  65.024  1.00  0.00    -0.044 A  
HETATM   17  C   UNL     1      -7.714   1.590  64.371  1.00  0.00    -0.060 A  
HETATM   18  C   UNL     1      -8.805   2.012  63.611  1.00  0.00    -0.089 A  
HETATM   19  C   UNL     1      -9.069   3.375  63.470  1.00  0.00    -0.094 A  
HETATM   20  C   UNL     1      -8.291   4.318  64.157  1.00  0.00    -0.102 A  
HETATM   21 CL   UNL     1     -10.380   3.826  62.434  1.00  0.00    -0.168 Cl 
HETATM   22 CL   UNL     1      -8.587   6.019  63.972  1.00  0.00     0.123 Cl 
ENDBRANCH  14  15
ENDBRANCH  11  14
ENDBRANCH   2   3
TORSDOF 3
ENDMDL
MODEL      267
REMARK 921   NORMALIZED FREE ENERGY PREDICTED BY IDOCK:   -0.00 KCAL/MOL
REMARK 922        TOTAL FREE ENERGY PREDICTED BY IDOCK:   -0.57 KCAL/MOL
REMARK 923 INTER-LIGAND FREE ENERGY PREDICTED BY IDOCK:   -0.77 KCAL/MOL
REMARK 924 INTRA-LIGAND FREE ENERGY PREDICTED BY IDOCK:    0.21 KCAL/MOL
REMARK 927      BINDING AFFINITY PREDICTED BY RF-SCORE:    0.00 PKD
ROOT
HETATM    1  C   UNL     1      -9.918   4.166  72.057  1.00  0.00    -0.180 C  
HETATM    2  S   UNL     1     -10.488   5.521  73.104  1.00  0.00    -0.242 SA 
ENDROOT
BRANCH   2   3
HETATM    3  C   UNL     1      -9.746   6.877  72.345  1.00  0.00    -0.153 A  
HETATM    4  N   UNL     1      -9.836   7.282  71.099  1.00  0.00    -0.182 NA 
HETATM    5  C   UNL     1      -8.968   8.350  71.013  1.00  0.00    -0.165 A  
HETATM    6  H   UNL     1     -10.419   6.893  70.358  1.00  0.00     0.000 HD 
HETATM    7  C   UNL     1      -8.344   8.578  72.234  1.00  0.00    -0.117 A  
HETATM    8  C   UNL     1      -7.338   9.526  72.414  1.00  0.00     1.287 A  
HETATM    9  N   UNL     1      -8.913   7.666  73.079  1.00  0.00    -0.156 NA 
HETATM   10  C   UNL     1      -6.928  10.248  71.281  1.00  0.00     1.090 A  
HETATM   11  C   UNL     1      -7.622  10.147  70.065  1.00  0.00    -0.152 A  
HETATM   12 CL   UNL     1      -5.449  11.131  71.480  1.00  0.00     0.078 Cl 
HETATM   13  C   UNL     1      -8.628   9.165  69.922  1.00  0.00    -0.155 A  
BRANCH  11  14
HETATM   14  O   UNL     1      -7.379  10.825  68.886  1.00  0.00    -0.086 OA 
BRANCH  14  15
HETATM   15  C   UNL     1      -8.378  11.254  68.037  1.00  0.00    -0.136 A  
HETATM   16  C   UNL     1      -9.319  10.408  67.442  1.00  0.00    -0.162 A  
HETATM   17  C   UNL     1     -10.380  10.942  66.707  1.00  0.00    -0.289 A  
HETATM   18  C   UNL     1     -10.454  12.317  66.485  1.00  0.00    -0.254 A  
HETATM   19  C   UNL     1      -9.447  13.156  66.964  1.00  0.00    -0.242 A  
HETATM   20  C   UNL     1      -8.403  12.630  67.738  1.00  0.00    -0.172 A  
HETATM   21 CL   UNL     1      -9.559  14.837  66.568  1.00  0.00    -0.286 Cl 
HETATM   22 CL   UNL     1      -7.125  13.653  68.319  1.00  0.00    -0.096 Cl 
ENDBRANCH  14  15
ENDBRANCH  11  14
ENDBRANCH   2   3
TORSDOF 3
ENDMDL
MODEL      268
REMARK 921   NORMALIZED FREE ENERGY PREDICTED BY IDOCK:    0.14 KCAL/MOL
REMARK 922        TOTAL FREE ENERGY PREDICTED BY IDOCK:   -0.40 KCAL/MOL
REMARK 923 INTER-LIGAND FREE ENERGY PREDICTED BY IDOCK:   -0.98 KCAL/MOL
REMARK 924 INTRA-LIGAND FREE ENERGY PREDICTED BY IDOCK:    0.58 KCAL/MOL
REMARK 927      BINDING AFFINITY PREDICTED BY RF-SCORE:    0.00 PKD
ROOT
HETATM    1  C   UNL     1      -6.076  13.438  72.482  1.00  0.00     1.482 C  
HETATM    2  S   UNL     1      -5.130  14.219  71.157  1.00  0.00    -0.145 SA 
ENDROOT
BRANCH   2   3
HETATM    3  C   UNL     1      -6.387  14.855  70.167  1.00  0.00    -0.162 A  
HETATM    4  N   UNL     1      -7.271  14.215  69.435  1.00  0.00    -0.300 NA 
HETATM    5  C   UNL     1      -7.967  15.206  68.778  1.00  0.00    -0.162 A  
HETATM    6  H   UNL     1      -7.411  13.207  69.368  1.00  0.00     0.000 HD 
HETATM    7  C   UNL     1      -7.481  16.462  69.123  1.00  0.00    -0.228 A  
HETATM    8  C   UNL     1      -7.925  17.644  68.531  1.00  0.00    -0.283 A  
HETATM    9  N   UNL     1      -6.520  16.206  70.062  1.00  0.00    -0.101 NA 
HETATM   10  C   UNL     1      -8.886  17.529  67.513  1.00  0.00    -0.229 A  
HETATM   11  C   UNL     1      -9.502  16.299  67.231  1.00  0.00    -0.227 A  
HETATM   12 CL   UNL     1      -9.124  18.968  66.575  1.00  0.00    -0.331 Cl 
HETATM   13  C   UNL     1      -9.014  15.124  67.845  1.00  0.00    -0.174 A  
BRANCH  11  14
HETATM   14  O   UNL     1     -10.493  16.034  66.306  1.00  0.00    -0.307 OA 
BRANCH  14  15
HETATM   15  C   UNL     1     -10.988  14.769  66.065  1.00  0.00    -0.328 A  
HETATM   16  C   UNL     1     -10.855  14.093  64.849  1.00  0.00    -0.423 A  
HETATM   17  C   UNL     1     -11.264  12.762  64.735  1.00  0.00    -0.339 A  
HETATM   18  C   UNL     1     -11.891  12.129  65.808  1.00  0.00    -0.342 A  
HETATM   19  C   UNL     1     -12.147  12.839  66.982  1.00  0.00    -0.182 A  
HETATM   20  C   UNL     1     -11.702  14.161  67.117  1.00  0.00    -0.403 A  
HETATM   21 CL   UNL     1     -13.015  12.016  68.233  1.00  0.00     2.507 Cl 
HETATM   22 CL   UNL     1     -12.035  15.070  68.560  1.00  0.00    -0.300 Cl 
ENDBRANCH  14  15
ENDBRANCH  11  14
ENDBRANCH   2   3
TORSDOF 3
ENDMDL
MODEL      269
REMARK 921   NORMALIZED FREE ENERGY PREDICTED BY IDOCK:    0.65 KCAL/MOL
REMARK 922        TOTAL FREE ENERGY PREDICTED BY IDOCK:    0.20 KCAL/MOL
REMARK 923 INTER-LIGAND FREE ENERGY PREDICTED BY IDOCK:   -1.87 KCAL/MOL
REMARK 924 INTRA-LIGAND FREE ENERGY PREDICTED BY IDOCK:    2.07 KCAL/MOL
REMARK 927      BINDING AFFINITY PREDICTED BY RF-SCORE:    0.00 PKD
ROOT
HETATM    1  C   UNL     1     -10.506   5.563  68.019  1.00  0.00    -0.172 C  
HETATM    2  S   UNL     1     -11.189   6.189  69.567  1.00  0.00    -0.330 SA 
ENDROOT
BRANCH   2   3
HETATM    3  C   UNL     1     -10.662   7.827  69.539  1.00  0.00    -0.198 A  
HETATM    4  N   UNL     1     -11.299   8.912  69.918  1.00  0.00    -0.443 NA 
HETATM    5  C   UNL     1     -10.457   9.950  69.586  1.00  0.00    -0.249 A  
HETATM    6  H   UNL     1     -12.216   8.972  70.361  1.00  0.00     0.000 HD 
HETATM    7  C   UNL     1      -9.295   9.472  68.990  1.00  0.00    -0.155 A  
HETATM    8  C   UNL     1      -8.311  10.302  68.456  1.00  0.00    -0.116 A  
HETATM    9  N   UNL     1      -9.428   8.112  69.038  1.00  0.00    -0.154 NA 
HETATM   10  C   UNL     1      -8.545  11.687  68.503  1.00  0.00    -0.134 A  
HETATM   11  C   UNL     1      -9.634  12.215  69.215  1.00  0.00     0.679 A  
HETATM   12 CL   UNL     1      -7.485  12.636  67.513  1.00  0.00    -0.144 Cl 
HETATM   13  C   UNL     1     -10.615  11.338  69.732  1.00  0.00     0.108 A  
BRANCH  11  14
HETATM   14  O   UNL     1      -9.969  13.542  69.399  1.00  0.00     0.312 OA 
BRANCH  14  15
HETATM   15  C   UNL     1      -9.718  14.525  68.464  1.00  0.00    -0.224 A  
HETATM   16  C   UNL     1      -9.316  15.826  68.780  1.00  0.00    -0.218 A  
HETATM   17  C   UNL     1      -8.950  16.715  67.767  1.00  0.00    -0.211 A  
HETATM   18  C   UNL     1      -9.072  16.340  66.429  1.00  0.00    -0.336 A  
HETATM   19  C   UNL     1      -9.598  15.090  66.102  1.00  0.00    -0.314 A  
HETATM   20  C   UNL     1      -9.927  14.177  67.114  1.00  0.00    -0.255 A  
HETATM   21 CL   UNL     1      -9.808  14.733  64.421  1.00  0.00     0.937 Cl 
HETATM   22 CL   UNL     1     -10.608  12.627  66.727  1.00  0.00    -0.250 Cl 
ENDBRANCH  14  15
ENDBRANCH  11  14
ENDBRANCH   2   3
TORSDOF 3
ENDMDL
MODEL      270
REMARK 921   NORMALIZED FREE ENERGY PREDICTED BY IDOCK:    2.55 KCAL/MOL
REMARK 922        TOTAL FREE ENERGY PREDICTED BY IDOCK:    2.43 KCAL/MOL
REMARK 923 INTER-LIGAND FREE ENERGY PREDICTED BY IDOCK:    2.86 KCAL/MOL
REMARK 924 INTRA-LIGAND FREE ENERGY PREDICTED BY IDOCK:   -0.42 KCAL/MOL
REMARK 927      BINDING AFFINITY PREDICTED BY RF-SCORE:    0.00 PKD
ROOT
HETATM    1  C   UNL     1     -12.607  10.537  62.436  1.00  0.00     4.814 C  
HETATM    2  S   UNL     1     -12.709  11.932  63.577  1.00  0.00    -0.179 SA 
ENDROOT
BRANCH   2   3
HETATM    3  C   UNL     1     -11.155  11.888  64.314  1.00  0.00    -0.356 A  
HETATM    4  N   UNL     1     -10.169  11.041  64.122  1.00  0.00    -0.331 NA 
HETATM    5  C   UNL     1      -9.205  11.409  65.036  1.00  0.00    -0.076 A  
HETATM    6  H   UNL     1     -10.126  10.279  63.445  1.00  0.00     0.000 HD 
HETATM    7  C   UNL     1      -9.632  12.494  65.793  1.00  0.00    -0.129 A  
HETATM    8  C   UNL     1      -8.907  13.012  66.865  1.00  0.00    -0.184 A  
HETATM    9  N   UNL     1     -10.850  12.818  65.261  1.00  0.00    -0.285 NA 
HETATM   10  C   UNL     1      -7.706  12.365  67.199  1.00  0.00    -0.122 A  
HETATM   11  C   UNL     1      -7.172  11.357  66.380  1.00  0.00     0.001 A  
HETATM   12 CL   UNL     1      -7.045  12.811  68.739  1.00  0.00    -0.096 Cl 
HETATM   13  C   UNL     1      -7.945  10.853  65.310  1.00  0.00     0.094 A  
BRANCH  11  14
HETATM   14  O   UNL     1      -5.987  10.667  66.541  1.00  0.00    -0.067 OA 
BRANCH  14  15
HETATM   15  C   UNL     1      -5.828   9.629  67.436  1.00  0.00    -0.044 A  
HETATM   16  C   UNL     1      -5.883   9.776  68.826  1.00  0.00    -0.038 A  
HETATM   17  C   UNL     1      -5.851   8.652  69.653  1.00  0.00    -0.029 A  
HETATM   18  C   UNL     1      -5.670   7.383  69.103  1.00  0.00    -0.019 A  
HETATM   19  C   UNL     1      -5.481   7.240  67.728  1.00  0.00    -0.025 A  
HETATM   20  C   UNL     1      -5.555   8.360  66.888  1.00  0.00    -0.037 A  
HETATM   21 CL   UNL     1      -5.168   5.646  67.131  1.00  0.00    -0.005 Cl 
HETATM   22 CL   UNL     1      -5.295   8.207  65.177  1.00  0.00    -0.032 Cl 
ENDBRANCH  14  15
ENDBRANCH  11  14
ENDBRANCH   2   3
TORSDOF 3
ENDMDL
MODEL      271
REMARK 921   NORMALIZED FREE ENERGY PREDICTED BY IDOCK:    2.64 KCAL/MOL
REMARK 922        TOTAL FREE ENERGY PREDICTED BY IDOCK:    2.54 KCAL/MOL
REMARK 923 INTER-LIGAND FREE ENERGY PREDICTED BY IDOCK:   -0.38 KCAL/MOL
REMARK 924 INTRA-LIGAND FREE ENERGY PREDICTED BY IDOCK:    2.91 KCAL/MOL
REMARK 927      BINDING AFFINITY PREDICTED BY RF-SCORE:    0.00 PKD
ROOT
HETATM    1  C   UNL     1     -13.812  11.406  63.501  1.00  0.00     2.443 C  
HETATM    2  S   UNL     1     -12.808  12.666  64.314  1.00  0.00    -0.110 SA 
ENDROOT
BRANCH   2   3
HETATM    3  C   UNL     1     -11.253  11.928  64.301  1.00  0.00    -0.357 A  
HETATM    4  N   UNL     1     -10.644  11.291  63.326  1.00  0.00    -0.691 NA 
HETATM    5  C   UNL     1      -9.475  10.824  63.886  1.00  0.00    -0.274 A  
HETATM    6  H   UNL     1     -10.967  11.170  62.366  1.00  0.00     0.000 HD 
HETATM    7  C   UNL     1      -9.391  11.186  65.226  1.00  0.00    -0.219 A  
HETATM    8  C   UNL     1      -8.368  10.758  66.071  1.00  0.00    -0.163 A  
HETATM    9  N   UNL     1     -10.507  11.946  65.440  1.00  0.00    -0.259 NA 
HETATM   10  C   UNL     1      -7.406   9.891  65.526  1.00  0.00    -0.122 A  
HETATM   11  C   UNL     1      -7.376   9.613  64.150  1.00  0.00    -0.122 A  
HETATM   12 CL   UNL     1      -6.389   9.112  66.693  1.00  0.00    -0.065 Cl 
HETATM   13  C   UNL     1      -8.439  10.056  63.331  1.00  0.00    -0.182 A  
BRANCH  11  14
HETATM   14  O   UNL     1      -6.472   8.831  63.458  1.00  0.00    -0.088 OA 
BRANCH  14  15
HETATM   15  C   UNL     1      -6.349   7.469  63.644  1.00  0.00    -0.053 A  
HETATM   16  C   UNL     1      -5.275   6.707  63.176  1.00  0.00    -0.030 A  
HETATM   17  C   UNL     1      -5.161   5.360  63.527  1.00  0.00    -0.013 A  
HETATM   18  C   UNL     1      -6.168   4.744  64.270  1.00  0.00    -0.026 A  
HETATM   19  C   UNL     1      -7.309   5.464  64.629  1.00  0.00    -0.064 A  
HETATM   20  C   UNL     1      -7.408   6.827  64.315  1.00  0.00    -0.088 A  
HETATM   21 CL   UNL     1      -8.557   4.607  65.467  1.00  0.00    -0.123 Cl 
HETATM   22 CL   UNL     1      -8.832   7.733  64.729  1.00  0.00     0.227 Cl 
ENDBRANCH  14  15
ENDBRANCH  11  14
ENDBRANCH   2   3
TORSDOF 3
ENDMDL
MODEL      272
REMARK 921   NORMALIZED FREE ENERGY PREDICTED BY IDOCK:    5.55 KCAL/MOL
REMARK 922        TOTAL FREE ENERGY PREDICTED BY IDOCK:    5.97 KCAL/MOL
REMARK 923 INTER-LIGAND FREE ENERGY PREDICTED BY IDOCK:    5.64 KCAL/MOL
REMARK 924 INTRA-LIGAND FREE ENERGY PREDICTED BY IDOCK:    0.33 KCAL/MOL
REMARK 927      BINDING AFFINITY PREDICTED BY RF-SCORE:    0.00 PKD
ROOT
HETATM    1  C   UNL     1     -11.302  15.156  62.723  1.00  0.00     5.465 C  
HETATM    2  S   UNL     1     -12.585  14.740  63.923  1.00  0.00     0.724 SA 
ENDROOT
BRANCH   2   3
HETATM    3  C   UNL     1     -11.827  15.182  65.404  1.00  0.00    -0.017 A  
HETATM    4  N   UNL     1     -10.550  15.346  65.666  1.00  0.00    -0.339 NA 
HETATM    5  C   UNL     1     -10.498  15.599  67.020  1.00  0.00    -0.303 A  
HETATM    6  H   UNL     1      -9.769  15.296  65.012  1.00  0.00     0.000 HD 
HETATM    7  C   UNL     1     -11.773  15.578  67.574  1.00  0.00     0.002 A  
HETATM    8  C   UNL     1     -12.015  15.696  68.942  1.00  0.00    -0.298 A  
HETATM    9  N   UNL     1     -12.603  15.378  66.506  1.00  0.00     1.184 NA 
HETATM   10  C   UNL     1     -10.895  15.805  69.784  1.00  0.00    -0.314 A  
HETATM   11  C   UNL     1      -9.604  15.967  69.257  1.00  0.00    -0.255 A  
HETATM   12 CL   UNL     1     -11.231  15.579  71.470  1.00  0.00    -0.435 Cl 
HETATM   13  C   UNL     1      -9.402  15.829  67.866  1.00  0.00    -0.200 A  
BRANCH  11  14
HETATM   14  O   UNL     1      -8.419  16.139  69.945  1.00  0.00     0.263 OA 
BRANCH  14  15
HETATM   15  C   UNL     1      -7.455  17.056  69.579  1.00  0.00     0.203 A  
HETATM   16  C   UNL     1      -6.091  16.763  69.478  1.00  0.00    -0.218 A  
HETATM   17  C   UNL     1      -5.204  17.713  68.968  1.00  0.00    -0.170 A  
HETATM   18  C   UNL     1      -5.658  18.991  68.642  1.00  0.00    -0.205 A  
HETATM   19  C   UNL     1      -6.992  19.333  68.864  1.00  0.00    -0.338 A  
HETATM   20  C   UNL     1      -7.897  18.371  69.337  1.00  0.00     0.272 A  
HETATM   21 CL   UNL     1      -7.460  20.965  68.525  1.00  0.00     0.357 Cl 
HETATM   22 CL   UNL     1      -9.555  18.786  69.646  1.00  0.00     0.258 Cl 
ENDBRANCH  14  15
ENDBRANCH  11  14
ENDBRANCH   2   3
TORSDOF 3
ENDMDL
MODEL      273
REMARK 921   NORMALIZED FREE ENERGY PREDICTED BY IDOCK:    5.84 KCAL/MOL
REMARK 922        TOTAL FREE ENERGY PREDICTED BY IDOCK:    6.30 KCAL/MOL
REMARK 923 INTER-LIGAND FREE ENERGY PREDICTED BY IDOCK:   -1.53 KCAL/MOL
REMARK 924 INTRA-LIGAND FREE ENERGY PREDICTED BY IDOCK:    7.83 KCAL/MOL
REMARK 927      BINDING AFFINITY PREDICTED BY RF-SCORE:    0.00 PKD
ROOT
HETATM    1  C   UNL     1     -10.322   9.234  66.261  1.00  0.00    -0.122 C  
HETATM    2  S   UNL     1     -11.626  10.274  65.572  1.00  0.00     3.107 SA 
ENDROOT
BRANCH   2   3
HETATM    3  C   UNL     1     -11.064  11.848  65.983  1.00  0.00    -0.322 A  
HETATM    4  N   UNL     1     -10.891  12.896  65.209  1.00  0.00    -0.287 NA 
HETATM    5  C   UNL     1     -10.334  13.852  66.030  1.00  0.00    -0.305 A  
HETATM    6  H   UNL     1     -11.120  12.983  64.219  1.00  0.00     0.000 HD 
HETATM    7  C   UNL     1     -10.165  13.358  67.319  1.00  0.00    -0.241 A  
HETATM    8  C   UNL     1      -9.525  14.068  68.333  1.00  0.00    -0.213 A  
HETATM    9  N   UNL     1     -10.703  12.102  67.271  1.00  0.00    -0.223 NA 
HETATM   10  C   UNL     1      -9.002  15.330  68.001  1.00  0.00    -0.171 A  
HETATM   11  C   UNL     1      -9.271  15.922  66.757  1.00  0.00    -0.240 A  
HETATM   12 CL   UNL     1      -7.915  15.996  69.176  1.00  0.00    -0.231 Cl 
HETATM   13  C   UNL     1      -9.912  15.162  65.753  1.00  0.00    -0.375 A  
BRANCH  11  14
HETATM   14  O   UNL     1      -8.878  17.166  66.303  1.00  0.00    -0.323 OA 
BRANCH  14  15
HETATM   15  C   UNL     1      -7.659  17.735  66.609  1.00  0.00    -0.236 A  
HETATM   16  C   UNL     1      -6.696  18.086  65.658  1.00  0.00    -0.229 A  
HETATM   17  C   UNL     1      -5.549  18.783  66.042  1.00  0.00    -0.192 A  
HETATM   18  C   UNL     1      -5.313  19.053  67.390  1.00  0.00    -0.159 A  
HETATM   19  C   UNL     1      -6.203  18.590  68.359  1.00  0.00    -0.206 A  
HETATM   20  C   UNL     1      -7.378  17.926  67.976  1.00  0.00    -0.230 A  
HETATM   21 CL   UNL     1      -5.795  18.880  70.016  1.00  0.00    -0.266 Cl 
HETATM   22 CL   UNL     1      -8.485  17.318  69.168  1.00  0.00    -0.064 Cl 
ENDBRANCH  14  15
ENDBRANCH  11  14
ENDBRANCH   2   3
TORSDOF 3
ENDMDL
MODEL      274
REMARK 921   NORMALIZED FREE ENERGY PREDICTED BY IDOCK:    6.09 KCAL/MOL
REMARK 922        TOTAL FREE ENERGY PREDICTED BY IDOCK:    6.59 KCAL/MOL
REMARK 923 INTER-LIGAND FREE ENERGY PREDICTED BY IDOCK:    6.70 KCAL/MOL
REMARK 924 INTRA-LIGAND FREE ENERGY PREDICTED BY IDOCK:   -0.10 KCAL/MOL
REMARK 927      BINDING AFFINITY PREDICTED BY RF-SCORE:    0.00 PKD
ROOT
HETATM    1  C   UNL     1      -9.851  19.134  71.905  1.00  0.00     4.316 C  
HETATM    2  S   UNL     1     -10.721  18.880  70.345  1.00  0.00     2.930 SA 
ENDROOT
BRANCH   2   3
HETATM    3  C   UNL     1     -10.035  17.396  69.806  1.00  0.00     0.402 A  
HETATM    4  N   UNL     1     -10.560  16.191  69.803  1.00  0.00    -0.305 NA 
HETATM    5  C   UNL     1      -9.548  15.367  69.360  1.00  0.00    -0.270 A  
HETATM    6  H   UNL     1     -11.508  15.925  70.069  1.00  0.00     0.000 HD 
HETATM    7  C   UNL     1      -8.394  16.099  69.101  1.00  0.00    -0.230 A  
HETATM    8  C   UNL     1      -7.181  15.513  68.743  1.00  0.00    -0.134 A  
HETATM    9  N   UNL     1      -8.759  17.397  69.330  1.00  0.00     0.100 NA 
HETATM   10  C   UNL     1      -7.140  14.109  68.681  1.00  0.00    -0.110 A  
HETATM   11  C   UNL     1      -8.310  13.344  68.800  1.00  0.00     0.086 A  
HETATM   12 CL   UNL     1      -5.546  13.434  68.596  1.00  0.00    -0.077 Cl 
HETATM   13  C   UNL     1      -9.517  13.976  69.175  1.00  0.00     0.223 A  
BRANCH  11  14
HETATM   14  O   UNL     1      -8.443  11.971  68.711  1.00  0.00    -0.068 OA 
BRANCH  14  15
HETATM   15  C   UNL     1      -7.445  11.087  69.067  1.00  0.00    -0.129 A  
HETATM   16  C   UNL     1      -6.897  10.998  70.349  1.00  0.00     0.380 A  
HETATM   17  C   UNL     1      -5.989   9.983  70.657  1.00  0.00    -0.094 A  
HETATM   18  C   UNL     1      -5.554   9.108  69.662  1.00  0.00    -0.033 A  
HETATM   19  C   UNL     1      -5.996   9.272  68.349  1.00  0.00    -0.045 A  
HETATM   20  C   UNL     1      -6.939  10.263  68.042  1.00  0.00    -0.082 A  
HETATM   21 CL   UNL     1      -5.339   8.209  67.152  1.00  0.00    -0.035 Cl 
HETATM   22 CL   UNL     1      -7.480  10.502  66.409  1.00  0.00    -0.126 Cl 
ENDBRANCH  14  15
ENDBRANCH  11  14
ENDBRANCH   2   3
TORSDOF 3
ENDMDL
MODEL      275
REMARK 921   NORMALIZED FREE ENERGY PREDICTED BY IDOCK:   12.14 KCAL/MOL
REMARK 922        TOTAL FREE ENERGY PREDICTED BY IDOCK:   13.71 KCAL/MOL
REMARK 923 INTER-LIGAND FREE ENERGY PREDICTED BY IDOCK:    9.84 KCAL/MOL
REMARK 924 INTRA-LIGAND FREE ENERGY PREDICTED BY IDOCK:    3.87 KCAL/MOL
REMARK 927      BINDING AFFINITY PREDICTED BY RF-SCORE:    0.00 PKD
ROOT
HETATM    1  C   UNL     1     -10.442  14.901  62.886  1.00  0.00     8.662 C  
HETATM    2  S   UNL     1     -11.933  14.411  63.777  1.00  0.00     0.266 SA 
ENDROOT
BRANCH   2   3
HETATM    3  C   UNL     1     -11.521  14.830  65.395  1.00  0.00    -0.341 A  
HETATM    4  N   UNL     1     -10.336  15.046  65.920  1.00  0.00    -0.293 NA 
HETATM    5  C   UNL     1     -10.576  15.246  67.262  1.00  0.00    -0.290 A  
HETATM    6  H   UNL     1      -9.436  15.063  65.440  1.00  0.00     0.000 HD 
HETATM    7  C   UNL     1     -11.934  15.139  67.541  1.00  0.00     0.033 A  
HETATM    8  C   UNL     1     -12.456  15.189  68.832  1.00  0.00     0.123 A  
HETATM    9  N   UNL     1     -12.515  14.942  66.318  1.00  0.00     0.181 NA 
HETATM   10  C   UNL     1     -11.540  15.319  69.890  1.00  0.00    -0.311 A  
HETATM   11  C   UNL     1     -10.181  15.568  69.645  1.00  0.00    -0.286 A  
HETATM   12 CL   UNL     1     -12.200  15.008  71.463  1.00  0.00    -0.366 Cl 
HETATM   13  C   UNL     1      -9.691  15.497  68.322  1.00  0.00    -0.201 A  
BRANCH  11  14
HETATM   14  O   UNL     1      -9.172  15.770  70.568  1.00  0.00     0.758 OA 
BRANCH  14  15
HETATM   15  C   UNL     1      -7.878  15.326  70.387  1.00  0.00     0.887 A  
HETATM   16  C   UNL     1      -7.155  14.606  71.343  1.00  0.00     1.745 A  
HETATM   17  C   UNL     1      -5.903  14.076  71.026  1.00  0.00    -0.209 A  
HETATM   18  C   UNL     1      -5.326  14.340  69.783  1.00  0.00    -0.093 A  
HETATM   19  C   UNL     1      -5.983  15.167  68.872  1.00  0.00    -0.093 A  
HETATM   20  C   UNL     1      -7.259  15.668  69.169  1.00  0.00    -0.178 A  
HETATM   21 CL   UNL     1      -5.163  15.526  67.391  1.00  0.00     0.029 Cl 
HETATM   22 CL   UNL     1      -8.082  16.721  68.059  1.00  0.00    -0.183 Cl 
ENDBRANCH  14  15
ENDBRANCH  11  14
ENDBRANCH   2   3
TORSDOF 3
ENDMDL
MODEL      276
REMARK 921   NORMALIZED FREE ENERGY PREDICTED BY IDOCK:   16.87 KCAL/MOL
REMARK 922        TOTAL FREE ENERGY PREDICTED BY IDOCK:   19.26 KCAL/MOL
REMARK 923 INTER-LIGAND FREE ENERGY PREDICTED BY IDOCK:   19.23 KCAL/MOL
REMARK 924 INTRA-LIGAND FREE ENERGY PREDICTED BY IDOCK:    0.03 KCAL/MOL
REMARK 927      BINDING AFFINITY PREDICTED BY RF-SCORE:    0.00 PKD
ROOT
HETATM    1  C   UNL     1     -14.119   3.330  72.210  1.00  0.00     5.755 C  
HETATM    2  S   UNL     1     -13.002   2.321  71.214  1.00  0.00    11.786 SA 
ENDROOT
BRANCH   2   3
HETATM    3  C   UNL     1     -11.475   2.716  71.905  1.00  0.00     2.483 A  
HETATM    4  N   UNL     1     -10.887   3.886  72.004  1.00  0.00     0.299 NA 
HETATM    5  C   UNL     1      -9.650   3.614  72.548  1.00  0.00    -0.135 A  
HETATM    6  H   UNL     1     -11.263   4.796  71.738  1.00  0.00     0.000 HD 
HETATM    7  C   UNL     1      -9.499   2.250  72.770  1.00  0.00    -0.085 A  
HETATM    8  C   UNL     1      -8.309   1.674  73.213  1.00  0.00    -0.056 A  
HETATM    9  N   UNL     1     -10.706   1.714  72.413  1.00  0.00    -0.132 NA 
HETATM   10  C   UNL     1      -7.213   2.532  73.403  1.00  0.00    -0.036 A  
HETATM   11  C   UNL     1      -7.361   3.926  73.324  1.00  0.00    -0.069 A  
HETATM   12 CL   UNL     1      -5.688   1.730  73.593  1.00  0.00     0.000 Cl 
HETATM   13  C   UNL     1      -8.581   4.468  72.860  1.00  0.00    -0.109 A  
BRANCH  11  14
HETATM   14  O   UNL     1      -6.402   4.898  73.535  1.00  0.00    -0.053 OA 
BRANCH  14  15
HETATM   15  C   UNL     1      -6.485   6.172  73.011  1.00  0.00    -0.064 A  
HETATM   16  C   UNL     1      -6.862   7.300  73.746  1.00  0.00    -0.082 A  
HETATM   17  C   UNL     1      -6.785   8.571  73.173  1.00  0.00    -0.074 A  
HETATM   18  C   UNL     1      -6.420   8.714  71.834  1.00  0.00    -0.074 A  
HETATM   19  C   UNL     1      -6.171   7.583  71.056  1.00  0.00    -0.035 A  
HETATM   20  C   UNL     1      -6.205   6.307  71.637  1.00  0.00    -0.041 A  
HETATM   21 CL   UNL     1      -5.818   7.835  69.381  1.00  0.00    -0.029 Cl 
HETATM   22 CL   UNL     1      -5.925   4.886  70.679  1.00  0.00    -0.017 Cl 
ENDBRANCH  14  15
ENDBRANCH  11  14
ENDBRANCH   2   3
TORSDOF 3
ENDMDL
MODEL      277
REMARK 921   NORMALIZED FREE ENERGY PREDICTED BY IDOCK:   17.10 KCAL/MOL
REMARK 922        TOTAL FREE ENERGY PREDICTED BY IDOCK:   19.53 KCAL/MOL
REMARK 923 INTER-LIGAND FREE ENERGY PREDICTED BY IDOCK:   19.63 KCAL/MOL
REMARK 924 INTRA-LIGAND FREE ENERGY PREDICTED BY IDOCK:   -0.09 KCAL/MOL
REMARK 927      BINDING AFFINITY PREDICTED BY RF-SCORE:    0.00 PKD
ROOT
HETATM    1  C   UNL     1     -10.421  10.585  64.059  1.00  0.00     0.102 C  
HETATM    2  S   UNL     1     -12.144  10.390  64.562  1.00  0.00     5.688 SA 
ENDROOT
BRANCH   2   3
HETATM    3  C   UNL     1     -12.280  11.587  65.792  1.00  0.00     1.326 A  
HETATM    4  N   UNL     1     -11.756  12.791  65.840  1.00  0.00    -0.391 NA 
HETATM    5  C   UNL     1     -12.102  13.276  67.082  1.00  0.00    -0.298 A  
HETATM    6  H   UNL     1     -11.212  13.263  65.117  1.00  0.00     0.000 HD 
HETATM    7  C   UNL     1     -12.843  12.337  67.790  1.00  0.00     2.782 A  
HETATM    8  C   UNL     1     -13.237  12.513  69.115  1.00  0.00     2.740 A  
HETATM    9  N   UNL     1     -12.996  11.299  66.913  1.00  0.00     4.653 NA 
HETATM   10  C   UNL     1     -12.822  13.693  69.756  1.00  0.00     0.403 A  
HETATM   11  C   UNL     1     -12.195  14.725  69.041  1.00  0.00    -0.145 A  
HETATM   12 CL   UNL     1     -13.021  13.691  71.478  1.00  0.00    -0.433 Cl 
HETATM   13  C   UNL     1     -11.802  14.500  67.702  1.00  0.00    -0.395 A  
BRANCH  11  14
HETATM   14  O   UNL     1     -11.778  15.956  69.509  1.00  0.00    -0.342 OA 
BRANCH  14  15
HETATM   15  C   UNL     1     -11.357  16.979  68.685  1.00  0.00     0.161 A  
HETATM   16  C   UNL     1     -12.147  17.558  67.687  1.00  0.00     2.518 A  
HETATM   17  C   UNL     1     -11.692  18.680  66.992  1.00  0.00     1.795 A  
HETATM   18  C   UNL     1     -10.409  19.175  67.226  1.00  0.00    -0.523 A  
HETATM   19  C   UNL     1      -9.565  18.523  68.125  1.00  0.00    -0.327 A  
HETATM   20  C   UNL     1     -10.031  17.421  68.856  1.00  0.00    -0.308 A  
HETATM   21 CL   UNL     1      -7.955  19.138  68.291  1.00  0.00    -0.347 Cl 
HETATM   22 CL   UNL     1      -8.986  16.580  69.960  1.00  0.00     0.968 Cl 
ENDBRANCH  14  15
ENDBRANCH  11  14
ENDBRANCH   2   3
TORSDOF 3
ENDMDL
MODEL      278
REMARK 921   NORMALIZED FREE ENERGY PREDICTED BY IDOCK:   19.40 KCAL/MOL
REMARK 922        TOTAL FREE ENERGY PREDICTED BY IDOCK:   22.25 KCAL/MOL
REMARK 923 INTER-LIGAND FREE ENERGY PREDICTED BY IDOCK:   22.53 KCAL/MOL
REMARK 924 INTRA-LIGAND FREE ENERGY PREDICTED BY IDOCK:   -0.29 KCAL/MOL
REMARK 927      BINDING AFFINITY PREDICTED BY RF-SCORE:    0.00 PKD
ROOT
HETATM    1  C   UNL     1     -12.055  17.893  68.081  1.00  0.00     3.141 C  
HETATM    2  S   UNL     1     -10.294  17.561  67.863  1.00  0.00    -0.384 SA 
ENDROOT
BRANCH   2   3
HETATM    3  C   UNL     1     -10.202  15.898  68.298  1.00  0.00    -0.227 A  
HETATM    4  N   UNL     1     -10.967  14.898  67.922  1.00  0.00    -0.277 NA 
HETATM    5  C   UNL     1     -10.511  13.815  68.642  1.00  0.00    -0.239 A  
HETATM    6  H   UNL     1     -11.730  14.918  67.245  1.00  0.00     0.000 HD 
HETATM    7  C   UNL     1      -9.456  14.183  69.470  1.00  0.00     0.600 A  
HETATM    8  C   UNL     1      -8.869  13.317  70.391  1.00  0.00     4.994 A  
HETATM    9  N   UNL     1      -9.240  15.501  69.176  1.00  0.00    -0.229 NA 
HETATM   10  C   UNL     1      -9.411  12.024  70.492  1.00  0.00     5.891 A  
HETATM   11  C   UNL     1     -10.380  11.571  69.584  1.00  0.00     0.405 A  
HETATM   12 CL   UNL     1      -8.895  11.128  71.884  1.00  0.00    10.869 Cl 
HETATM   13  C   UNL     1     -10.957  12.484  68.674  1.00  0.00    -0.291 A  
BRANCH  11  14
HETATM   14  O   UNL     1     -10.968  10.322  69.518  1.00  0.00    -0.226 OA 
BRANCH  14  15
HETATM   15  C   UNL     1     -10.520   9.315  68.688  1.00  0.00    -0.209 A  
HETATM   16  C   UNL     1     -10.786   9.251  67.317  1.00  0.00    -0.244 A  
HETATM   17  C   UNL     1     -10.179   8.273  66.527  1.00  0.00    -0.263 A  
HETATM   18  C   UNL     1      -9.376   7.296  67.118  1.00  0.00    -0.170 A  
HETATM   19  C   UNL     1      -9.212   7.274  68.503  1.00  0.00    -0.138 A  
HETATM   20  C   UNL     1      -9.784   8.279  69.296  1.00  0.00    -0.177 A  
HETATM   21 CL   UNL     1      -8.280   5.977  69.171  1.00  0.00    -0.110 Cl 
HETATM   22 CL   UNL     1      -9.615   8.252  71.024  1.00  0.00    -0.185 Cl 
ENDBRANCH  14  15
ENDBRANCH  11  14
ENDBRANCH   2   3
TORSDOF 3
ENDMDL
MODEL      279
REMARK 921   NORMALIZED FREE ENERGY PREDICTED BY IDOCK:   20.46 KCAL/MOL
REMARK 922        TOTAL FREE ENERGY PREDICTED BY IDOCK:   23.49 KCAL/MOL
REMARK 923 INTER-LIGAND FREE ENERGY PREDICTED BY IDOCK:   23.64 KCAL/MOL
REMARK 924 INTRA-LIGAND FREE ENERGY PREDICTED BY IDOCK:   -0.15 KCAL/MOL
REMARK 927      BINDING AFFINITY PREDICTED BY RF-SCORE:    0.00 PKD
ROOT
HETATM    1  C   UNL     1      -7.312  17.579  74.103  1.00  0.00    11.757 C  
HETATM    2  S   UNL     1      -6.447  18.254  72.670  1.00  0.00     4.992 SA 
ENDROOT
BRANCH   2   3
HETATM    3  C   UNL     1      -6.389  16.886  71.627  1.00  0.00     3.014 A  
HETATM    4  N   UNL     1      -6.081  15.640  71.909  1.00  0.00     1.192 NA 
HETATM    5  C   UNL     1      -6.098  14.989  70.695  1.00  0.00    -0.032 A  
HETATM    6  H   UNL     1      -5.875  15.242  72.826  1.00  0.00     0.000 HD 
HETATM    7  C   UNL     1      -6.417  15.870  69.668  1.00  0.00    -0.186 A  
HETATM    8  C   UNL     1      -6.403  15.512  68.321  1.00  0.00    -0.121 A  
HETATM    9  N   UNL     1      -6.663  17.055  70.304  1.00  0.00     0.648 NA 
HETATM   10  C   UNL     1      -6.009  14.200  68.010  1.00  0.00    -0.142 A  
HETATM   11  C   UNL     1      -5.814  13.243  69.018  1.00  0.00    -0.079 A  
HETATM   12 CL   UNL     1      -5.659  13.925  66.334  1.00  0.00     3.390 Cl 
HETATM   13  C   UNL     1      -5.826  13.650  70.371  1.00  0.00    -0.161 A  
BRANCH  11  14
HETATM   14  O   UNL     1      -5.480  11.910  68.875  1.00  0.00    -0.050 OA 
BRANCH  14  15
HETATM   15  C   UNL     1      -6.257  11.003  68.183  1.00  0.00    -0.049 A  
HETATM   16  C   UNL     1      -6.361  10.961  66.790  1.00  0.00    -0.097 A  
HETATM   17  C   UNL     1      -7.059   9.925  66.167  1.00  0.00    -0.103 A  
HETATM   18  C   UNL     1      -7.735   8.976  66.936  1.00  0.00    -0.098 A  
HETATM   19  C   UNL     1      -7.746   9.087  68.326  1.00  0.00    -0.095 A  
HETATM   20  C   UNL     1      -7.012  10.101  68.958  1.00  0.00    -0.058 A  
HETATM   21 CL   UNL     1      -8.685   7.929  69.206  1.00  0.00    -0.137 Cl 
HETATM   22 CL   UNL     1      -7.037  10.272  70.686  1.00  0.00     0.052 Cl 
ENDBRANCH  14  15
ENDBRANCH  11  14
ENDBRANCH   2   3
TORSDOF 3
ENDMDL
MODEL      280
REMARK 921   NORMALIZED FREE ENERGY PREDICTED BY IDOCK:   21.51 KCAL/MOL
REMARK 922        TOTAL FREE ENERGY PREDICTED BY IDOCK:   24.72 KCAL/MOL
REMARK 923 INTER-LIGAND FREE ENERGY PREDICTED BY IDOCK:   24.81 KCAL/MOL
REMARK 924 INTRA-LIGAND FREE ENERGY PREDICTED BY IDOCK:   -0.09 KCAL/MOL
REMARK 927      BINDING AFFINITY PREDICTED BY RF-SCORE:    0.00 PKD
ROOT
HETATM    1  C   UNL     1      -8.855  19.501  72.977  1.00  0.00     4.961 C  
HETATM    2  S   UNL     1     -10.131  18.226  72.955  1.00  0.00     7.103 SA 
ENDROOT
BRANCH   2   3
HETATM    3  C   UNL     1      -9.693  17.325  71.555  1.00  0.00     6.553 A  
HETATM    4  N   UNL     1     -10.036  16.103  71.213  1.00  0.00     2.093 NA 
HETATM    5  C   UNL     1      -9.329  15.849  70.058  1.00  0.00     0.371 A  
HETATM    6  H   UNL     1     -10.683  15.480  71.697  1.00  0.00     0.000 HD 
HETATM    7  C   UNL     1      -8.544  16.943  69.710  1.00  0.00     1.045 A  
HETATM    8  C   UNL     1      -7.643  16.930  68.647  1.00  0.00    -0.232 A  
HETATM    9  N   UNL     1      -8.851  17.891  70.647  1.00  0.00     4.297 NA 
HETATM   10  C   UNL     1      -7.515  15.729  67.928  1.00  0.00    -0.134 A  
HETATM   11  C   UNL     1      -8.384  14.651  68.157  1.00  0.00    -0.144 A  
HETATM   12 CL   UNL     1      -6.141  15.657  66.874  1.00  0.00     0.381 Cl 
HETATM   13  C   UNL     1      -9.275  14.700  69.254  1.00  0.00     0.030 A  
BRANCH  11  14
HETATM   14  O   UNL     1      -8.422  13.434  67.505  1.00  0.00    -0.168 OA 
BRANCH  14  15
HETATM   15  C   UNL     1      -9.319  12.433  67.818  1.00  0.00    -0.196 A  
HETATM   16  C   UNL     1     -10.603  12.331  67.275  1.00  0.00    -0.249 A  
HETATM   17  C   UNL     1     -11.393  11.211  67.541  1.00  0.00    -0.351 A  
HETATM   18  C   UNL     1     -10.942  10.231  68.425  1.00  0.00    -0.308 A  
HETATM   19  C   UNL     1      -9.717  10.389  69.074  1.00  0.00    -0.206 A  
HETATM   20  C   UNL     1      -8.901  11.491  68.779  1.00  0.00    -0.042 A  
HETATM   21 CL   UNL     1      -9.269   9.180  70.228  1.00  0.00    -0.223 Cl 
HETATM   22 CL   UNL     1      -7.386  11.720  69.598  1.00  0.00     0.227 Cl 
ENDBRANCH  14  15
ENDBRANCH  11  14
ENDBRANCH   2   3
TORSDOF 3
ENDMDL
MODEL      281
REMARK 921   NORMALIZED FREE ENERGY PREDICTED BY IDOCK:   28.45 KCAL/MOL
REMARK 922        TOTAL FREE ENERGY PREDICTED BY IDOCK:   32.87 KCAL/MOL
REMARK 923 INTER-LIGAND FREE ENERGY PREDICTED BY IDOCK:   30.20 KCAL/MOL
REMARK 924 INTRA-LIGAND FREE ENERGY PREDICTED BY IDOCK:    2.68 KCAL/MOL
REMARK 927      BINDING AFFINITY PREDICTED BY RF-SCORE:    0.00 PKD
ROOT
HETATM    1  C   UNL     1      -5.907  15.124  64.525  1.00  0.00    18.638 C  
HETATM    2  S   UNL     1      -5.972  16.720  65.366  1.00  0.00     3.338 SA 
ENDROOT
BRANCH   2   3
HETATM    3  C   UNL     1      -6.858  16.323  66.788  1.00  0.00    -0.088 A  
HETATM    4  N   UNL     1      -8.120  16.552  67.070  1.00  0.00    -0.182 NA 
HETATM    5  C   UNL     1      -8.275  16.117  68.369  1.00  0.00    -0.172 A  
HETATM    6  H   UNL     1      -8.830  16.961  66.462  1.00  0.00     0.000 HD 
HETATM    7  C   UNL     1      -7.075  15.626  68.871  1.00  0.00    -0.138 A  
HETATM    8  C   UNL     1      -6.909  15.217  70.193  1.00  0.00    -0.006 A  
HETATM    9  N   UNL     1      -6.209  15.708  67.815  1.00  0.00    -0.147 NA 
HETATM   10  C   UNL     1      -8.014  15.353  71.050  1.00  0.00     2.716 A  
HETATM   11  C   UNL     1      -9.277  15.713  70.554  1.00  0.00     1.316 A  
HETATM   12 CL   UNL     1      -7.650  15.182  72.736  1.00  0.00     5.653 Cl 
HETATM   13  C   UNL     1      -9.399  16.131  69.209  1.00  0.00    -0.227 A  
BRANCH  11  14
HETATM   14  O   UNL     1     -10.463  15.837  71.251  1.00  0.00     0.262 OA 
BRANCH  14  15
HETATM   15  C   UNL     1     -11.362  14.802  71.409  1.00  0.00    -0.074 A  
HETATM   16  C   UNL     1     -12.078  14.556  72.585  1.00  0.00    -0.129 A  
HETATM   17  C   UNL     1     -13.068  13.572  72.613  1.00  0.00    -0.399 A  
HETATM   18  C   UNL     1     -13.285  12.766  71.495  1.00  0.00    -0.330 A  
HETATM   19  C   UNL     1     -12.485  12.916  70.362  1.00  0.00    -0.173 A  
HETATM   20  C   UNL     1     -11.518  13.930  70.313  1.00  0.00    -0.056 A  
HETATM   21 CL   UNL     1     -12.750  11.817  69.052  1.00  0.00     0.641 Cl 
HETATM   22 CL   UNL     1     -10.493  14.115  68.923  1.00  0.00    -0.242 Cl 
ENDBRANCH  14  15
ENDBRANCH  11  14
ENDBRANCH   2   3
TORSDOF 3
ENDMDL
MODEL      282
REMARK 921   NORMALIZED FREE ENERGY PREDICTED BY IDOCK:   38.50 KCAL/MOL
REMARK 922        TOTAL FREE ENERGY PREDICTED BY IDOCK:   44.69 KCAL/MOL
REMARK 923 INTER-LIGAND FREE ENERGY PREDICTED BY IDOCK:   44.90 KCAL/MOL
REMARK 924 INTRA-LIGAND FREE ENERGY PREDICTED BY IDOCK:   -0.21 KCAL/MOL
REMARK 927      BINDING AFFINITY PREDICTED BY RF-SCORE:    0.00 PKD
ROOT
HETATM    1  C   UNL     1     -13.612   8.387  62.528  1.00  0.00    15.974 C  
HETATM    2  S   UNL     1     -13.546  10.083  63.140  1.00  0.00    11.910 SA 
ENDROOT
BRANCH   2   3
HETATM    3  C   UNL     1     -12.244   9.993  64.262  1.00  0.00     7.975 A  
HETATM    4  N   UNL     1     -11.472   8.971  64.558  1.00  0.00     8.157 NA 
HETATM    5  C   UNL     1     -10.669   9.422  65.583  1.00  0.00     1.284 A  
HETATM    6  H   UNL     1     -11.469   8.048  64.125  1.00  0.00     0.000 HD 
HETATM    7  C   UNL     1     -10.975  10.739  65.906  1.00  0.00     0.073 A  
HETATM    8  C   UNL     1     -10.394  11.419  66.976  1.00  0.00    -0.258 A  
HETATM    9  N   UNL     1     -11.935  11.095  65.000  1.00  0.00     0.515 NA 
HETATM   10  C   UNL     1      -9.484  10.703  67.773  1.00  0.00    -0.153 A  
HETATM   11  C   UNL     1      -9.045   9.423  67.401  1.00  0.00    -0.126 A  
HETATM   12 CL   UNL     1      -9.083  11.465  69.278  1.00  0.00     0.190 Cl 
HETATM   13  C   UNL     1      -9.668   8.765  66.316  1.00  0.00    -0.342 A  
BRANCH  11  14
HETATM   14  O   UNL     1      -8.124   8.618  68.042  1.00  0.00    -0.109 OA 
BRANCH  14  15
HETATM   15  C   UNL     1      -7.169   9.103  68.913  1.00  0.00    -0.073 A  
HETATM   16  C   UNL     1      -6.001   9.759  68.511  1.00  0.00    -0.042 A  
HETATM   17  C   UNL     1      -5.158  10.339  69.461  1.00  0.00    -0.038 A  
HETATM   18  C   UNL     1      -5.428  10.187  70.822  1.00  0.00    -0.073 A  
HETATM   19  C   UNL     1      -6.519   9.422  71.234  1.00  0.00    -0.037 A  
HETATM   20  C   UNL     1      -7.393   8.873  70.285  1.00  0.00    -0.067 A  
HETATM   21 CL   UNL     1      -6.734   9.200  72.937  1.00  0.00     0.274 Cl 
HETATM   22 CL   UNL     1      -8.740   7.894  70.778  1.00  0.00    -0.132 Cl 
ENDBRANCH  14  15
ENDBRANCH  11  14
ENDBRANCH   2   3
TORSDOF 3
ENDMDL
