MODEL        1
REMARK 921   NORMALIZED FREE ENERGY PREDICTED BY IDOCK:   -6.32 KCAL/MOL
REMARK 922        TOTAL FREE ENERGY PREDICTED BY IDOCK:   -8.40 KCAL/MOL
REMARK 923 INTER-LIGAND FREE ENERGY PREDICTED BY IDOCK:   -7.79 KCAL/MOL
REMARK 924 INTRA-LIGAND FREE ENERGY PREDICTED BY IDOCK:   -0.61 KCAL/MOL
REMARK 927      BINDING AFFINITY PREDICTED BY RF-SCORE:    0.00 PKD
ROOT
HETATM    1 CL   UNL     1      -8.235   7.856  65.783  1.00  0.00    -0.123 Cl 
HETATM    2  C   UNL     1      -8.986   9.184  64.991  1.00  0.00    -0.171 A  
HETATM    3  C   UNL     1      -8.721   9.426  63.650  1.00  0.00    -0.222 A  
HETATM    4  C   UNL     1      -9.342  10.499  63.008  1.00  0.00    -0.343 A  
HETATM    5  C   UNL     1     -10.242  11.332  63.688  1.00  0.00    -0.392 A  
HETATM    6  C   UNL     1      -9.857  10.016  65.694  1.00  0.00    -0.363 A  
HETATM    7  C   UNL     1     -10.474  11.097  65.047  1.00  0.00    -0.357 A  
ENDROOT
BRANCH   5   8
HETATM    8  N   UNL     1     -10.911  12.410  63.056  1.00  0.00    -0.599 N  
HETATM    9  H   UNL     1     -10.411  12.928  62.335  1.00  0.00     0.000 HD 
BRANCH   8  10
HETATM   10  C   UNL     1     -12.204  12.800  63.362  1.00  0.00    -0.504 C  
HETATM   11  O   UNL     1     -13.166  12.038  63.345  1.00  0.00    -0.687 OA 
BRANCH  10  12
HETATM   12  N   UNL     1     -12.304  14.142  63.692  1.00  0.00    -1.092 N  
HETATM   13  H   UNL     1     -12.798  14.760  63.048  1.00  0.00     0.000 HD 
BRANCH  12  14
HETATM   14  C   UNL     1     -11.760  14.706  64.873  1.00  0.00    -0.403 A  
HETATM   15  C   UNL     1     -12.051  14.208  66.151  1.00  0.00    -0.454 A  
HETATM   16  C   UNL     1     -11.472  14.764  67.296  1.00  0.00    -0.366 A  
HETATM   17 CL   UNL     1     -11.876  14.062  68.823  1.00  0.00    -0.379 Cl 
HETATM   18  C   UNL     1     -10.602  15.847  67.173  1.00  0.00    -0.316 A  
HETATM   19  C   UNL     1     -10.329  16.373  65.907  1.00  0.00    -0.378 A  
HETATM   20 CL   UNL     1      -9.843  16.582  68.539  1.00  0.00    -0.234 Cl 
HETATM   21  C   UNL     1     -10.913  15.813  64.762  1.00  0.00    -0.410 A  
ENDBRANCH  12  14
ENDBRANCH  10  12
ENDBRANCH   8  10
ENDBRANCH   5   8
TORSDOF 4
ENDMDL
MODEL        2
REMARK 921   NORMALIZED FREE ENERGY PREDICTED BY IDOCK:   -6.24 KCAL/MOL
REMARK 922        TOTAL FREE ENERGY PREDICTED BY IDOCK:   -8.31 KCAL/MOL
REMARK 923 INTER-LIGAND FREE ENERGY PREDICTED BY IDOCK:   -7.69 KCAL/MOL
REMARK 924 INTRA-LIGAND FREE ENERGY PREDICTED BY IDOCK:   -0.62 KCAL/MOL
REMARK 927      BINDING AFFINITY PREDICTED BY RF-SCORE:    0.00 PKD
ROOT
HETATM    1 CL   UNL     1     -12.571  15.953  74.560  1.00  0.00    -0.691 Cl 
HETATM    2  C   UNL     1     -12.508  15.401  72.933  1.00  0.00    -0.418 A  
HETATM    3  C   UNL     1     -11.709  16.064  72.011  1.00  0.00    -0.588 A  
HETATM    4  C   UNL     1     -11.653  15.606  70.693  1.00  0.00    -0.394 A  
HETATM    5  C   UNL     1     -12.378  14.479  70.283  1.00  0.00    -0.349 A  
HETATM    6  C   UNL     1     -13.259  14.293  72.540  1.00  0.00    -0.581 A  
HETATM    7  C   UNL     1     -13.204  13.840  71.214  1.00  0.00    -0.331 A  
ENDROOT
BRANCH   5   8
HETATM    8  N   UNL     1     -12.318  13.971  68.961  1.00  0.00    -0.501 N  
HETATM    9  H   UNL     1     -13.018  14.290  68.293  1.00  0.00     0.000 HD 
BRANCH   8  10
HETATM   10  C   UNL     1     -11.363  13.068  68.524  1.00  0.00    -0.288 C  
HETATM   11  O   UNL     1     -10.239  13.393  68.155  1.00  0.00    -0.232 OA 
BRANCH  10  12
HETATM   12  N   UNL     1     -11.805  11.755  68.547  1.00  0.00    -0.325 N  
HETATM   13  H   UNL     1     -12.330  11.411  67.743  1.00  0.00     0.000 HD 
BRANCH  12  14
HETATM   14  C   UNL     1     -11.570  10.863  69.623  1.00  0.00    -0.322 A  
HETATM   15  C   UNL     1     -12.584  10.461  70.505  1.00  0.00    -0.384 A  
HETATM   16  C   UNL     1     -12.329   9.552  71.538  1.00  0.00    -0.380 A  
HETATM   17 CL   UNL     1     -13.651   9.102  72.556  1.00  0.00    -0.522 Cl 
HETATM   18  C   UNL     1     -11.041   9.048  71.711  1.00  0.00    -0.374 A  
HETATM   19  C   UNL     1     -10.015   9.465  70.857  1.00  0.00    -0.353 A  
HETATM   20 CL   UNL     1     -10.650   7.918  72.957  1.00  0.00    -0.428 Cl 
HETATM   21  C   UNL     1     -10.275  10.377  69.824  1.00  0.00    -0.228 A  
ENDBRANCH  12  14
ENDBRANCH  10  12
ENDBRANCH   8  10
ENDBRANCH   5   8
TORSDOF 4
ENDMDL
MODEL        3
REMARK 921   NORMALIZED FREE ENERGY PREDICTED BY IDOCK:   -6.18 KCAL/MOL
REMARK 922        TOTAL FREE ENERGY PREDICTED BY IDOCK:   -8.23 KCAL/MOL
REMARK 923 INTER-LIGAND FREE ENERGY PREDICTED BY IDOCK:   -7.61 KCAL/MOL
REMARK 924 INTRA-LIGAND FREE ENERGY PREDICTED BY IDOCK:   -0.62 KCAL/MOL
REMARK 927      BINDING AFFINITY PREDICTED BY RF-SCORE:    0.00 PKD
ROOT
HETATM    1 CL   UNL     1     -10.247  16.607  68.930  1.00  0.00    -0.266 Cl 
HETATM    2  C   UNL     1     -10.792  15.900  67.460  1.00  0.00    -0.305 A  
HETATM    3  C   UNL     1     -11.684  14.836  67.497  1.00  0.00    -0.370 A  
HETATM    4  C   UNL     1     -12.133  14.272  66.301  1.00  0.00    -0.433 A  
HETATM    5  C   UNL     1     -11.711  14.768  65.060  1.00  0.00    -0.364 A  
HETATM    6  C   UNL     1     -10.338  16.391  66.236  1.00  0.00    -0.337 A  
HETATM    7  C   UNL     1     -10.787  15.818  65.038  1.00  0.00    -0.461 A  
ENDROOT
BRANCH   5   8
HETATM    8  N   UNL     1     -12.172  14.237  63.829  1.00  0.00    -1.019 N  
HETATM    9  H   UNL     1     -12.499  14.890  63.117  1.00  0.00     0.000 HD 
BRANCH   8  10
HETATM   10  C   UNL     1     -12.203  12.884  63.536  1.00  0.00    -0.512 C  
HETATM   11  O   UNL     1     -13.212  12.191  63.636  1.00  0.00    -0.770 OA 
BRANCH  10  12
HETATM   12  N   UNL     1     -10.979  12.388  63.117  1.00  0.00    -0.688 N  
HETATM   13  H   UNL     1     -10.555  12.797  62.284  1.00  0.00     0.000 HD 
BRANCH  12  14
HETATM   14  C   UNL     1     -10.283  11.345  63.778  1.00  0.00    -0.382 A  
HETATM   15  C   UNL     1     -10.433  11.088  65.148  1.00  0.00    -0.329 A  
HETATM   16  C   UNL     1      -9.758  10.030  65.766  1.00  0.00    -0.257 A  
HETATM   17 CL   UNL     1     -10.028   9.782  67.455  1.00  0.00    -0.216 Cl 
HETATM   18  C   UNL     1      -8.905   9.223  65.015  1.00  0.00    -0.198 A  
HETATM   19  C   UNL     1      -8.724   9.488  63.654  1.00  0.00    -0.239 A  
HETATM   20 CL   UNL     1      -8.044   7.894  65.704  1.00  0.00    -0.122 Cl 
HETATM   21  C   UNL     1      -9.401  10.551  63.039  1.00  0.00    -0.343 A  
ENDBRANCH  12  14
ENDBRANCH  10  12
ENDBRANCH   8  10
ENDBRANCH   5   8
TORSDOF 4
ENDMDL
MODEL        4
REMARK 921   NORMALIZED FREE ENERGY PREDICTED BY IDOCK:   -5.98 KCAL/MOL
REMARK 922        TOTAL FREE ENERGY PREDICTED BY IDOCK:   -8.00 KCAL/MOL
REMARK 923 INTER-LIGAND FREE ENERGY PREDICTED BY IDOCK:   -7.31 KCAL/MOL
REMARK 924 INTRA-LIGAND FREE ENERGY PREDICTED BY IDOCK:   -0.69 KCAL/MOL
REMARK 927      BINDING AFFINITY PREDICTED BY RF-SCORE:    0.00 PKD
ROOT
HETATM    1 CL   UNL     1     -12.572  15.954  74.551  1.00  0.00    -0.691 Cl 
HETATM    2  C   UNL     1     -12.525  15.476  72.900  1.00  0.00    -0.424 A  
HETATM    3  C   UNL     1     -11.725  16.172  72.004  1.00  0.00    -0.574 A  
HETATM    4  C   UNL     1     -11.681  15.774  70.666  1.00  0.00    -0.412 A  
HETATM    5  C   UNL     1     -12.420  14.673  70.211  1.00  0.00    -0.346 A  
HETATM    6  C   UNL     1     -13.290  14.395  72.462  1.00  0.00    -0.578 A  
HETATM    7  C   UNL     1     -13.247  14.001  71.117  1.00  0.00    -0.337 A  
ENDROOT
BRANCH   5   8
HETATM    8  N   UNL     1     -12.373  14.225  68.867  1.00  0.00    -0.570 N  
HETATM    9  H   UNL     1     -13.070  14.586  68.216  1.00  0.00     0.000 HD 
BRANCH   8  10
HETATM   10  C   UNL     1     -11.436  13.326  68.385  1.00  0.00    -0.314 C  
HETATM   11  O   UNL     1     -10.299  13.645  68.048  1.00  0.00    -0.238 OA 
BRANCH  10  12
HETATM   12  N   UNL     1     -11.910  12.026  68.323  1.00  0.00    -0.325 N  
HETATM   13  H   UNL     1     -12.437  11.746  67.496  1.00  0.00     0.000 HD 
BRANCH  12  14
HETATM   14  C   UNL     1     -11.706  11.063  69.343  1.00  0.00    -0.323 A  
HETATM   15  C   UNL     1     -10.446  10.513  69.619  1.00  0.00    -0.257 A  
HETATM   16  C   UNL     1     -10.268   9.589  70.655  1.00  0.00    -0.297 A  
HETATM   17 CL   UNL     1      -8.672   8.988  70.931  1.00  0.00    -0.258 Cl 
HETATM   18  C   UNL     1     -11.365   9.189  71.418  1.00  0.00    -0.344 A  
HETATM   19  C   UNL     1     -12.631   9.707  71.132  1.00  0.00    -0.411 A  
HETATM   20 CL   UNL     1     -11.224   8.060  72.717  1.00  0.00    -0.462 Cl 
HETATM   21  C   UNL     1     -12.804  10.632  70.092  1.00  0.00    -0.146 A  
ENDBRANCH  12  14
ENDBRANCH  10  12
ENDBRANCH   8  10
ENDBRANCH   5   8
TORSDOF 4
ENDMDL
MODEL        5
REMARK 921   NORMALIZED FREE ENERGY PREDICTED BY IDOCK:   -5.93 KCAL/MOL
REMARK 922        TOTAL FREE ENERGY PREDICTED BY IDOCK:   -7.92 KCAL/MOL
REMARK 923 INTER-LIGAND FREE ENERGY PREDICTED BY IDOCK:   -7.17 KCAL/MOL
REMARK 924 INTRA-LIGAND FREE ENERGY PREDICTED BY IDOCK:   -0.75 KCAL/MOL
REMARK 927      BINDING AFFINITY PREDICTED BY RF-SCORE:    0.00 PKD
ROOT
HETATM    1 CL   UNL     1     -12.503  12.082  63.509  1.00  0.00    -0.682 Cl 
HETATM    2  C   UNL     1     -11.621  13.279  64.372  1.00  0.00    -0.382 A  
HETATM    3  C   UNL     1     -11.943  14.620  64.214  1.00  0.00    -0.406 A  
HETATM    4  C   UNL     1     -11.230  15.588  64.924  1.00  0.00    -0.396 A  
HETATM    5  C   UNL     1     -10.203  15.232  65.808  1.00  0.00    -0.349 A  
HETATM    6  C   UNL     1     -10.583  12.904  65.225  1.00  0.00    -0.316 A  
HETATM    7  C   UNL     1      -9.867  13.880  65.933  1.00  0.00    -0.287 A  
ENDROOT
BRANCH   5   8
HETATM    8  N   UNL     1      -9.482  16.188  66.567  1.00  0.00    -0.245 N  
HETATM    9  H   UNL     1      -8.919  16.874  66.064  1.00  0.00     0.000 HD 
BRANCH   8  10
HETATM   10  C   UNL     1      -9.498  16.246  67.951  1.00  0.00    -0.218 C  
HETATM   11  O   UNL     1      -8.500  16.094  68.648  1.00  0.00    -0.192 OA 
BRANCH  10  12
HETATM   12  N   UNL     1     -10.758  16.496  68.471  1.00  0.00    -0.318 N  
HETATM   13  H   UNL     1     -11.267  17.309  68.127  1.00  0.00     0.000 HD 
BRANCH  12  14
HETATM   14  C   UNL     1     -11.379  15.685  69.454  1.00  0.00    -0.330 A  
HETATM   15  C   UNL     1     -11.512  16.089  70.790  1.00  0.00    -0.444 A  
HETATM   16  C   UNL     1     -12.160  15.282  71.731  1.00  0.00    -0.370 A  
HETATM   17 CL   UNL     1     -12.293  15.880  73.348  1.00  0.00    -0.587 Cl 
HETATM   18  C   UNL     1     -12.669  14.043  71.344  1.00  0.00    -0.364 A  
HETATM   19  C   UNL     1     -12.516  13.616  70.021  1.00  0.00    -0.267 A  
HETATM   20 CL   UNL     1     -13.488  12.995  72.445  1.00  0.00    -0.662 Cl 
HETATM   21  C   UNL     1     -11.864  14.428  69.082  1.00  0.00    -0.359 A  
ENDBRANCH  12  14
ENDBRANCH  10  12
ENDBRANCH   8  10
ENDBRANCH   5   8
TORSDOF 4
ENDMDL
MODEL        6
REMARK 921   NORMALIZED FREE ENERGY PREDICTED BY IDOCK:   -5.82 KCAL/MOL
REMARK 922        TOTAL FREE ENERGY PREDICTED BY IDOCK:   -7.79 KCAL/MOL
REMARK 923 INTER-LIGAND FREE ENERGY PREDICTED BY IDOCK:   -7.16 KCAL/MOL
REMARK 924 INTRA-LIGAND FREE ENERGY PREDICTED BY IDOCK:   -0.63 KCAL/MOL
REMARK 927      BINDING AFFINITY PREDICTED BY RF-SCORE:    0.00 PKD
ROOT
HETATM    1 CL   UNL     1     -11.338  12.084  63.283  1.00  0.00    -0.441 Cl 
HETATM    2  C   UNL     1     -11.307  13.187  64.602  1.00  0.00    -0.333 A  
HETATM    3  C   UNL     1     -10.172  13.951  64.835  1.00  0.00    -0.378 A  
HETATM    4  C   UNL     1     -10.154  14.853  65.900  1.00  0.00    -0.348 A  
HETATM    5  C   UNL     1     -11.270  15.014  66.734  1.00  0.00    -0.322 A  
HETATM    6  C   UNL     1     -12.418  13.312  65.436  1.00  0.00    -0.543 A  
HETATM    7  C   UNL     1     -12.395  14.215  66.508  1.00  0.00    -0.405 A  
ENDROOT
BRANCH   5   8
HETATM    8  N   UNL     1     -11.294  15.943  67.804  1.00  0.00    -0.258 N  
HETATM    9  H   UNL     1     -11.593  16.898  67.605  1.00  0.00     0.000 HD 
BRANCH   8  10
HETATM   10  C   UNL     1     -10.936  15.631  69.105  1.00  0.00    -0.259 C  
HETATM   11  O   UNL     1      -9.775  15.610  69.504  1.00  0.00    -0.262 OA 
BRANCH  10  12
HETATM   12  N   UNL     1     -12.023  15.345  69.916  1.00  0.00    -0.338 N  
HETATM   13  H   UNL     1     -12.652  16.109  70.163  1.00  0.00     0.000 HD 
BRANCH  12  14
HETATM   14  C   UNL     1     -12.310  14.052  70.421  1.00  0.00    -0.359 A  
HETATM   15  C   UNL     1     -11.813  12.883  69.828  1.00  0.00    -0.380 A  
HETATM   16  C   UNL     1     -12.086  11.622  70.370  1.00  0.00    -0.373 A  
HETATM   17 CL   UNL     1     -11.407  10.244  69.579  1.00  0.00    -0.296 Cl 
HETATM   18  C   UNL     1     -12.883  11.518  71.510  1.00  0.00    -0.380 A  
HETATM   19  C   UNL     1     -13.410  12.675  72.092  1.00  0.00    -0.570 A  
HETATM   20 CL   UNL     1     -13.257   9.999  72.240  1.00  0.00    -0.476 Cl 
HETATM   21  C   UNL     1     -13.134  13.936  71.544  1.00  0.00    -0.441 A  
ENDBRANCH  12  14
ENDBRANCH  10  12
ENDBRANCH   8  10
ENDBRANCH   5   8
TORSDOF 4
ENDMDL
MODEL        7
REMARK 921   NORMALIZED FREE ENERGY PREDICTED BY IDOCK:   -5.82 KCAL/MOL
REMARK 922        TOTAL FREE ENERGY PREDICTED BY IDOCK:   -7.79 KCAL/MOL
REMARK 923 INTER-LIGAND FREE ENERGY PREDICTED BY IDOCK:   -7.25 KCAL/MOL
REMARK 924 INTRA-LIGAND FREE ENERGY PREDICTED BY IDOCK:   -0.54 KCAL/MOL
REMARK 927      BINDING AFFINITY PREDICTED BY RF-SCORE:    0.00 PKD
ROOT
HETATM    1 CL   UNL     1      -9.372   8.790  66.997  1.00  0.00    -0.186 Cl 
HETATM    2  C   UNL     1     -10.277  10.173  66.526  1.00  0.00    -0.223 A  
HETATM    3  C   UNL     1     -10.369  10.511  65.182  1.00  0.00    -0.310 A  
HETATM    4  C   UNL     1     -11.114  11.629  64.802  1.00  0.00    -0.328 A  
HETATM    5  C   UNL     1     -11.785  12.412  65.752  1.00  0.00    -0.414 A  
HETATM    6  C   UNL     1     -10.914  10.954  67.489  1.00  0.00    -0.352 A  
HETATM    7  C   UNL     1     -11.656  12.080  67.104  1.00  0.00    -0.387 A  
ENDROOT
BRANCH   5   8
HETATM    8  N   UNL     1     -12.574  13.534  65.395  1.00  0.00    -0.536 N  
HETATM    9  H   UNL     1     -13.553  13.544  65.682  1.00  0.00     0.000 HD 
BRANCH   8  10
HETATM   10  C   UNL     1     -12.093  14.619  64.681  1.00  0.00    -0.454 C  
HETATM   11  O   UNL     1     -12.705  15.149  63.758  1.00  0.00    -0.722 OA 
BRANCH  10  12
HETATM   12  N   UNL     1     -10.850  15.050  65.114  1.00  0.00    -0.378 N  
HETATM   13  H   UNL     1     -10.024  14.566  64.762  1.00  0.00     0.000 HD 
BRANCH  12  14
HETATM   14  C   UNL     1     -10.659  16.124  66.019  1.00  0.00    -0.295 A  
HETATM   15  C   UNL     1     -10.509  17.451  65.594  1.00  0.00    -0.173 A  
HETATM   16  C   UNL     1     -10.356  18.495  66.513  1.00  0.00    -0.414 A  
HETATM   17 CL   UNL     1     -10.201  20.099  65.889  1.00  0.00    -0.534 Cl 
HETATM   18  C   UNL     1     -10.333  18.214  67.878  1.00  0.00    -0.396 A  
HETATM   19  C   UNL     1     -10.451  16.891  68.314  1.00  0.00    -0.352 A  
HETATM   20 CL   UNL     1     -10.156  19.449  69.073  1.00  0.00    -0.480 Cl 
HETATM   21  C   UNL     1     -10.602  15.848  67.388  1.00  0.00    -0.315 A  
ENDBRANCH  12  14
ENDBRANCH  10  12
ENDBRANCH   8  10
ENDBRANCH   5   8
TORSDOF 4
ENDMDL
MODEL        8
REMARK 921   NORMALIZED FREE ENERGY PREDICTED BY IDOCK:   -5.81 KCAL/MOL
REMARK 922        TOTAL FREE ENERGY PREDICTED BY IDOCK:   -7.78 KCAL/MOL
REMARK 923 INTER-LIGAND FREE ENERGY PREDICTED BY IDOCK:   -7.16 KCAL/MOL
REMARK 924 INTRA-LIGAND FREE ENERGY PREDICTED BY IDOCK:   -0.63 KCAL/MOL
REMARK 927      BINDING AFFINITY PREDICTED BY RF-SCORE:    0.00 PKD
ROOT
HETATM    1 CL   UNL     1     -12.480  15.580  74.372  1.00  0.00    -0.782 Cl 
HETATM    2  C   UNL     1     -12.402  15.103  72.722  1.00  0.00    -0.385 A  
HETATM    3  C   UNL     1     -12.817  13.831  72.352  1.00  0.00    -0.353 A  
HETATM    4  C   UNL     1     -12.762  13.451  71.010  1.00  0.00    -0.387 A  
HETATM    5  C   UNL     1     -12.309  14.337  70.022  1.00  0.00    -0.346 A  
HETATM    6  C   UNL     1     -11.921  15.991  71.759  1.00  0.00    -0.592 A  
HETATM    7  C   UNL     1     -11.863  15.603  70.413  1.00  0.00    -0.395 A  
ENDROOT
BRANCH   5   8
HETATM    8  N   UNL     1     -12.270  13.992  68.648  1.00  0.00    -0.527 N  
HETATM    9  H   UNL     1     -13.154  13.940  68.141  1.00  0.00     0.000 HD 
BRANCH   8  10
HETATM   10  C   UNL     1     -11.103  13.722  67.953  1.00  0.00    -0.264 C  
HETATM   11  O   UNL     1     -10.269  12.900  68.320  1.00  0.00    -0.234 OA 
BRANCH  10  12
HETATM   12  N   UNL     1     -10.972  14.474  66.796  1.00  0.00    -0.309 N  
HETATM   13  H   UNL     1     -11.429  14.137  65.949  1.00  0.00     0.000 HD 
BRANCH  12  14
HETATM   14  C   UNL     1     -10.237  15.684  66.722  1.00  0.00    -0.276 A  
HETATM   15  C   UNL     1     -10.780  16.920  67.099  1.00  0.00    -0.180 A  
HETATM   16  C   UNL     1     -10.019  18.093  67.047  1.00  0.00    -0.338 A  
HETATM   17 CL   UNL     1     -10.773  19.563  67.555  1.00  0.00    -0.589 Cl 
HETATM   18  C   UNL     1      -8.701  18.041  66.596  1.00  0.00    -0.259 A  
HETATM   19  C   UNL     1      -8.158  16.819  66.188  1.00  0.00    -0.293 A  
HETATM   20 CL   UNL     1      -7.697  19.444  66.511  1.00  0.00    -0.270 Cl 
HETATM   21  C   UNL     1      -8.926  15.646  66.240  1.00  0.00    -0.377 A  
ENDBRANCH  12  14
ENDBRANCH  10  12
ENDBRANCH   8  10
ENDBRANCH   5   8
TORSDOF 4
ENDMDL
MODEL        9
REMARK 921   NORMALIZED FREE ENERGY PREDICTED BY IDOCK:   -5.80 KCAL/MOL
REMARK 922        TOTAL FREE ENERGY PREDICTED BY IDOCK:   -7.77 KCAL/MOL
REMARK 923 INTER-LIGAND FREE ENERGY PREDICTED BY IDOCK:   -7.25 KCAL/MOL
REMARK 924 INTRA-LIGAND FREE ENERGY PREDICTED BY IDOCK:   -0.52 KCAL/MOL
REMARK 927      BINDING AFFINITY PREDICTED BY RF-SCORE:    0.00 PKD
ROOT
HETATM    1 CL   UNL     1     -10.280  10.118  69.709  1.00  0.00    -0.278 Cl 
HETATM    2  C   UNL     1     -10.924  11.221  68.559  1.00  0.00    -0.220 A  
HETATM    3  C   UNL     1     -10.916  10.894  67.210  1.00  0.00    -0.355 A  
HETATM    4  C   UNL     1     -11.449  11.788  66.280  1.00  0.00    -0.296 A  
HETATM    5  C   UNL     1     -12.008  13.009  66.684  1.00  0.00    -0.387 A  
HETATM    6  C   UNL     1     -11.450  12.443  68.980  1.00  0.00    -0.352 A  
HETATM    7  C   UNL     1     -11.980  13.341  68.042  1.00  0.00    -0.351 A  
ENDROOT
BRANCH   5   8
HETATM    8  N   UNL     1     -12.585  13.924  65.768  1.00  0.00    -0.504 N  
HETATM    9  H   UNL     1     -13.451  14.390  66.037  1.00  0.00     0.000 HD 
BRANCH   8  10
HETATM   10  C   UNL     1     -12.042  14.221  64.529  1.00  0.00    -0.480 C  
HETATM   11  O   UNL     1     -12.673  14.158  63.478  1.00  0.00    -0.794 OA 
BRANCH  10  12
HETATM   12  N   UNL     1     -10.710  14.600  64.595  1.00  0.00    -0.609 N  
HETATM   13  H   UNL     1     -10.049  14.139  63.971  1.00  0.00     0.000 HD 
BRANCH  12  14
HETATM   14  C   UNL     1     -10.216  15.591  65.479  1.00  0.00    -0.386 A  
HETATM   15  C   UNL     1     -10.647  16.925  65.435  1.00  0.00    -0.177 A  
HETATM   16  C   UNL     1     -10.166  17.874  66.343  1.00  0.00    -0.372 A  
HETATM   17 CL   UNL     1     -10.778  19.485  66.221  1.00  0.00    -0.548 Cl 
HETATM   18  C   UNL     1      -9.225  17.497  67.301  1.00  0.00    -0.240 A  
HETATM   19  C   UNL     1      -8.764  16.177  67.335  1.00  0.00    -0.194 A  
HETATM   20 CL   UNL     1      -8.590  18.608  68.460  1.00  0.00    -0.364 Cl 
HETATM   21  C   UNL     1      -9.249  15.230  66.421  1.00  0.00    -0.342 A  
ENDBRANCH  12  14
ENDBRANCH  10  12
ENDBRANCH   8  10
ENDBRANCH   5   8
TORSDOF 4
ENDMDL
MODEL       10
REMARK 921   NORMALIZED FREE ENERGY PREDICTED BY IDOCK:   -5.77 KCAL/MOL
REMARK 922        TOTAL FREE ENERGY PREDICTED BY IDOCK:   -7.73 KCAL/MOL
REMARK 923 INTER-LIGAND FREE ENERGY PREDICTED BY IDOCK:   -7.11 KCAL/MOL
REMARK 924 INTRA-LIGAND FREE ENERGY PREDICTED BY IDOCK:   -0.62 KCAL/MOL
REMARK 927      BINDING AFFINITY PREDICTED BY RF-SCORE:    0.00 PKD
ROOT
HETATM    1 CL   UNL     1     -13.192   9.724  72.311  1.00  0.00    -0.510 Cl 
HETATM    2  C   UNL     1     -12.920  11.242  71.550  1.00  0.00    -0.415 A  
HETATM    3  C   UNL     1     -12.141  11.308  70.403  1.00  0.00    -0.474 A  
HETATM    4  C   UNL     1     -11.931  12.541  69.782  1.00  0.00    -0.359 A  
HETATM    5  C   UNL     1     -12.506  13.716  70.287  1.00  0.00    -0.265 A  
HETATM    6  C   UNL     1     -13.479  12.403  72.085  1.00  0.00    -0.481 A  
HETATM    7  C   UNL     1     -13.261  13.640  71.461  1.00  0.00    -0.409 A  
ENDROOT
BRANCH   5   8
HETATM    8  N   UNL     1     -12.337  14.977  69.662  1.00  0.00    -0.534 N  
HETATM    9  H   UNL     1     -13.116  15.634  69.690  1.00  0.00     0.000 HD 
BRANCH   8  10
HETATM   10  C   UNL     1     -11.176  15.369  69.016  1.00  0.00    -0.291 C  
HETATM   11  O   UNL     1     -10.147  15.687  69.603  1.00  0.00    -0.262 OA 
BRANCH  10  12
HETATM   12  N   UNL     1     -11.293  15.364  67.635  1.00  0.00    -0.321 N  
HETATM   13  H   UNL     1     -11.564  16.232  67.173  1.00  0.00     0.000 HD 
BRANCH  12  14
HETATM   14  C   UNL     1     -11.058  14.223  66.829  1.00  0.00    -0.314 A  
HETATM   15  C   UNL     1     -11.976  13.775  65.869  1.00  0.00    -0.433 A  
HETATM   16  C   UNL     1     -11.701  12.665  65.063  1.00  0.00    -0.359 A  
HETATM   17 CL   UNL     1     -12.889  12.206  63.894  1.00  0.00    -0.499 Cl 
HETATM   18  C   UNL     1     -10.501  11.975  65.226  1.00  0.00    -0.284 A  
HETATM   19  C   UNL     1      -9.590  12.393  66.201  1.00  0.00    -0.238 A  
HETATM   20 CL   UNL     1     -10.087  10.601  64.266  1.00  0.00    -0.410 Cl 
HETATM   21  C   UNL     1      -9.871  13.506  67.007  1.00  0.00    -0.251 A  
ENDBRANCH  12  14
ENDBRANCH  10  12
ENDBRANCH   8  10
ENDBRANCH   5   8
TORSDOF 4
ENDMDL
MODEL       11
REMARK 921   NORMALIZED FREE ENERGY PREDICTED BY IDOCK:   -5.77 KCAL/MOL
REMARK 922        TOTAL FREE ENERGY PREDICTED BY IDOCK:   -7.73 KCAL/MOL
REMARK 923 INTER-LIGAND FREE ENERGY PREDICTED BY IDOCK:   -7.07 KCAL/MOL
REMARK 924 INTRA-LIGAND FREE ENERGY PREDICTED BY IDOCK:   -0.66 KCAL/MOL
REMARK 927      BINDING AFFINITY PREDICTED BY RF-SCORE:    0.00 PKD
ROOT
HETATM    1 CL   UNL     1     -13.835  13.267  72.410  1.00  0.00    -0.680 Cl 
HETATM    2  C   UNL     1     -12.709  14.038  71.364  1.00  0.00    -0.364 A  
HETATM    3  C   UNL     1     -12.281  15.329  71.644  1.00  0.00    -0.433 A  
HETATM    4  C   UNL     1     -11.359  15.947  70.797  1.00  0.00    -0.424 A  
HETATM    5  C   UNL     1     -10.844  15.284  69.675  1.00  0.00    -0.286 A  
HETATM    6  C   UNL     1     -12.230  13.370  70.237  1.00  0.00    -0.405 A  
HETATM    7  C   UNL     1     -11.308  13.997  69.386  1.00  0.00    -0.317 A  
ENDROOT
BRANCH   5   8
HETATM    8  N   UNL     1      -9.884  15.874  68.814  1.00  0.00    -0.207 N  
HETATM    9  H   UNL     1      -8.898  15.764  69.049  1.00  0.00     0.000 HD 
BRANCH   8  10
HETATM   10  C   UNL     1     -10.207  16.590  67.674  1.00  0.00    -0.279 C  
HETATM   11  O   UNL     1     -10.863  17.628  67.687  1.00  0.00    -0.350 OA 
BRANCH  10  12
HETATM   12  N   UNL     1      -9.713  16.017  66.512  1.00  0.00    -0.248 N  
HETATM   13  H   UNL     1      -8.812  16.342  66.163  1.00  0.00     0.000 HD 
BRANCH  12  14
HETATM   14  C   UNL     1     -10.389  15.008  65.783  1.00  0.00    -0.335 A  
HETATM   15  C   UNL     1     -10.088  13.646  65.923  1.00  0.00    -0.320 A  
HETATM   16  C   UNL     1     -10.796  12.669  65.214  1.00  0.00    -0.288 A  
HETATM   17 CL   UNL     1     -10.363  11.016  65.474  1.00  0.00    -0.320 Cl 
HETATM   18  C   UNL     1     -11.809  13.052  64.336  1.00  0.00    -0.386 A  
HETATM   19  C   UNL     1     -12.098  14.409  64.165  1.00  0.00    -0.405 A  
HETATM   20 CL   UNL     1     -12.731  11.906  63.432  1.00  0.00    -0.655 Cl 
HETATM   21  C   UNL     1     -11.385  15.384  64.876  1.00  0.00    -0.367 A  
ENDBRANCH  12  14
ENDBRANCH  10  12
ENDBRANCH   8  10
ENDBRANCH   5   8
TORSDOF 4
ENDMDL
MODEL       12
REMARK 921   NORMALIZED FREE ENERGY PREDICTED BY IDOCK:   -5.76 KCAL/MOL
REMARK 922        TOTAL FREE ENERGY PREDICTED BY IDOCK:   -7.72 KCAL/MOL
REMARK 923 INTER-LIGAND FREE ENERGY PREDICTED BY IDOCK:   -7.07 KCAL/MOL
REMARK 924 INTRA-LIGAND FREE ENERGY PREDICTED BY IDOCK:   -0.65 KCAL/MOL
REMARK 927      BINDING AFFINITY PREDICTED BY RF-SCORE:    0.00 PKD
ROOT
HETATM    1 CL   UNL     1     -11.857  10.373  71.036  1.00  0.00    -0.454 Cl 
HETATM    2  C   UNL     1     -11.756  11.359  69.631  1.00  0.00    -0.345 A  
HETATM    3  C   UNL     1     -11.435  10.785  68.409  1.00  0.00    -0.358 A  
HETATM    4  C   UNL     1     -11.364  11.587  67.268  1.00  0.00    -0.359 A  
HETATM    5  C   UNL     1     -11.625  12.963  67.330  1.00  0.00    -0.360 A  
HETATM    6  C   UNL     1     -11.992  12.731  69.721  1.00  0.00    -0.362 A  
HETATM    7  C   UNL     1     -11.915  13.534  68.574  1.00  0.00    -0.379 A  
ENDROOT
BRANCH   5   8
HETATM    8  N   UNL     1     -11.591  13.799  66.186  1.00  0.00    -0.339 N  
HETATM    9  H   UNL     1     -12.404  14.384  65.995  1.00  0.00     0.000 HD 
BRANCH   8  10
HETATM   10  C   UNL     1     -10.519  13.866  65.311  1.00  0.00    -0.371 C  
HETATM   11  O   UNL     1     -10.507  13.327  64.209  1.00  0.00    -0.424 OA 
BRANCH  10  12
HETATM   12  N   UNL     1      -9.458  14.608  65.806  1.00  0.00    -0.518 N  
HETATM   13  H   UNL     1      -8.515  14.246  65.670  1.00  0.00     0.000 HD 
BRANCH  12  14
HETATM   14  C   UNL     1      -9.610  15.840  66.490  1.00  0.00    -0.265 A  
HETATM   15  C   UNL     1     -10.081  17.000  65.859  1.00  0.00    -0.281 A  
HETATM   16  C   UNL     1     -10.252  18.194  66.569  1.00  0.00    -0.391 A  
HETATM   17 CL   UNL     1     -10.860  19.562  65.706  1.00  0.00    -0.503 Cl 
HETATM   18  C   UNL     1      -9.932  18.242  67.925  1.00  0.00    -0.345 A  
HETATM   19  C   UNL     1      -9.433  17.100  68.558  1.00  0.00    -0.282 A  
HETATM   20 CL   UNL     1     -10.123  19.675  68.869  1.00  0.00    -0.531 Cl 
HETATM   21  C   UNL     1      -9.261  15.906  67.842  1.00  0.00    -0.198 A  
ENDBRANCH  12  14
ENDBRANCH  10  12
ENDBRANCH   8  10
ENDBRANCH   5   8
TORSDOF 4
ENDMDL
MODEL       13
REMARK 921   NORMALIZED FREE ENERGY PREDICTED BY IDOCK:   -5.75 KCAL/MOL
REMARK 922        TOTAL FREE ENERGY PREDICTED BY IDOCK:   -7.70 KCAL/MOL
REMARK 923 INTER-LIGAND FREE ENERGY PREDICTED BY IDOCK:   -6.95 KCAL/MOL
REMARK 924 INTRA-LIGAND FREE ENERGY PREDICTED BY IDOCK:   -0.75 KCAL/MOL
REMARK 927      BINDING AFFINITY PREDICTED BY RF-SCORE:    0.00 PKD
ROOT
HETATM    1 CL   UNL     1      -8.134  20.277  66.960  1.00  0.00    -0.364 Cl 
HETATM    2  C   UNL     1      -8.747  18.712  66.601  1.00  0.00    -0.302 A  
HETATM    3  C   UNL     1      -7.904  17.611  66.663  1.00  0.00    -0.283 A  
HETATM    4  C   UNL     1      -8.407  16.340  66.380  1.00  0.00    -0.365 A  
HETATM    5  C   UNL     1      -9.756  16.150  66.048  1.00  0.00    -0.344 A  
HETATM    6  C   UNL     1     -10.086  18.549  66.245  1.00  0.00    -0.422 A  
HETATM    7  C   UNL     1     -10.587  17.271  65.957  1.00  0.00    -0.217 A  
ENDROOT
BRANCH   5   8
HETATM    8  N   UNL     1     -10.304  14.869  65.786  1.00  0.00    -0.310 N  
HETATM    9  H   UNL     1      -9.972  14.363  64.966  1.00  0.00     0.000 HD 
BRANCH   8  10
HETATM   10  C   UNL     1     -11.266  14.265  66.579  1.00  0.00    -0.332 C  
HETATM   11  O   UNL     1     -12.438  14.127  66.239  1.00  0.00    -0.466 OA 
BRANCH  10  12
HETATM   12  N   UNL     1     -10.772  13.828  67.798  1.00  0.00    -0.244 N  
HETATM   13  H   UNL     1     -10.023  13.136  67.792  1.00  0.00     0.000 HD 
BRANCH  12  14
HETATM   14  C   UNL     1     -11.248  14.287  69.051  1.00  0.00    -0.266 A  
HETATM   15  C   UNL     1     -12.062  13.504  69.881  1.00  0.00    -0.408 A  
HETATM   16  C   UNL     1     -12.489  13.972  71.129  1.00  0.00    -0.371 A  
HETATM   17 CL   UNL     1     -13.471  12.921  72.088  1.00  0.00    -0.642 Cl 
HETATM   18  C   UNL     1     -12.116  15.247  71.553  1.00  0.00    -0.359 A  
HETATM   19  C   UNL     1     -11.330  16.049  70.720  1.00  0.00    -0.427 A  
HETATM   20 CL   UNL     1     -12.597  15.890  73.081  1.00  0.00    -0.559 Cl 
HETATM   21  C   UNL     1     -10.906  15.576  69.470  1.00  0.00    -0.267 A  
ENDBRANCH  12  14
ENDBRANCH  10  12
ENDBRANCH   8  10
ENDBRANCH   5   8
TORSDOF 4
ENDMDL
MODEL       14
REMARK 921   NORMALIZED FREE ENERGY PREDICTED BY IDOCK:   -5.74 KCAL/MOL
REMARK 922        TOTAL FREE ENERGY PREDICTED BY IDOCK:   -7.69 KCAL/MOL
REMARK 923 INTER-LIGAND FREE ENERGY PREDICTED BY IDOCK:   -6.95 KCAL/MOL
REMARK 924 INTRA-LIGAND FREE ENERGY PREDICTED BY IDOCK:   -0.73 KCAL/MOL
REMARK 927      BINDING AFFINITY PREDICTED BY RF-SCORE:    0.00 PKD
ROOT
HETATM    1 CL   UNL     1     -11.424  16.169  64.441  1.00  0.00    -0.364 Cl 
HETATM    2  C   UNL     1     -11.237  14.611  65.143  1.00  0.00    -0.374 A  
HETATM    3  C   UNL     1     -12.295  13.712  65.115  1.00  0.00    -0.486 A  
HETATM    4  C   UNL     1     -12.135  12.443  65.676  1.00  0.00    -0.396 A  
HETATM    5  C   UNL     1     -10.921  12.052  66.257  1.00  0.00    -0.299 A  
HETATM    6  C   UNL     1     -10.029  14.253  65.740  1.00  0.00    -0.346 A  
HETATM    7  C   UNL     1      -9.875  12.980  66.308  1.00  0.00    -0.278 A  
ENDROOT
BRANCH   5   8
HETATM    8  N   UNL     1     -10.718  10.762  66.807  1.00  0.00    -0.251 N  
HETATM    9  H   UNL     1     -10.684   9.968  66.168  1.00  0.00     0.000 HD 
BRANCH   8  10
HETATM   10  C   UNL     1     -10.565  10.517  68.162  1.00  0.00    -0.204 C  
HETATM   11  O   UNL     1      -9.478  10.317  68.697  1.00  0.00    -0.155 OA 
BRANCH  10  12
HETATM   12  N   UNL     1     -11.764  10.520  68.855  1.00  0.00    -0.502 N  
HETATM   13  H   UNL     1     -12.424   9.763  68.679  1.00  0.00     0.000 HD 
BRANCH  12  14
HETATM   14  C   UNL     1     -12.127  11.516  69.796  1.00  0.00    -0.306 A  
HETATM   15  C   UNL     1     -11.885  12.881  69.582  1.00  0.00    -0.387 A  
HETATM   16  C   UNL     1     -12.285  13.844  70.514  1.00  0.00    -0.373 A  
HETATM   17 CL   UNL     1     -11.961  15.501  70.147  1.00  0.00    -0.359 Cl 
HETATM   18  C   UNL     1     -12.920  13.445  71.690  1.00  0.00    -0.355 A  
HETATM   19  C   UNL     1     -13.140  12.085  71.929  1.00  0.00    -0.475 A  
HETATM   20 CL   UNL     1     -13.450  14.575  72.883  1.00  0.00    -0.567 Cl 
HETATM   21  C   UNL     1     -12.736  11.123  70.992  1.00  0.00    -0.476 A  
ENDBRANCH  12  14
ENDBRANCH  10  12
ENDBRANCH   8  10
ENDBRANCH   5   8
TORSDOF 4
ENDMDL
MODEL       15
REMARK 921   NORMALIZED FREE ENERGY PREDICTED BY IDOCK:   -5.72 KCAL/MOL
REMARK 922        TOTAL FREE ENERGY PREDICTED BY IDOCK:   -7.67 KCAL/MOL
REMARK 923 INTER-LIGAND FREE ENERGY PREDICTED BY IDOCK:   -7.07 KCAL/MOL
REMARK 924 INTRA-LIGAND FREE ENERGY PREDICTED BY IDOCK:   -0.60 KCAL/MOL
REMARK 927      BINDING AFFINITY PREDICTED BY RF-SCORE:    0.00 PKD
ROOT
HETATM    1 CL   UNL     1     -12.558  15.484  74.537  1.00  0.00    -0.667 Cl 
HETATM    2  C   UNL     1     -12.410  15.239  72.842  1.00  0.00    -0.408 A  
HETATM    3  C   UNL     1     -12.890  14.068  72.271  1.00  0.00    -0.403 A  
HETATM    4  C   UNL     1     -12.777  13.877  70.893  1.00  0.00    -0.410 A  
HETATM    5  C   UNL     1     -12.201  14.853  70.068  1.00  0.00    -0.333 A  
HETATM    6  C   UNL     1     -11.808  16.212  72.044  1.00  0.00    -0.615 A  
HETATM    7  C   UNL     1     -11.692  16.013  70.661  1.00  0.00    -0.376 A  
ENDROOT
BRANCH   5   8
HETATM    8  N   UNL     1     -12.100  14.702  68.662  1.00  0.00    -0.562 N  
HETATM    9  H   UNL     1     -12.963  14.672  68.120  1.00  0.00     0.000 HD 
BRANCH   8  10
HETATM   10  C   UNL     1     -10.899  14.594  67.982  1.00  0.00    -0.257 C  
HETATM   11  O   UNL     1     -10.017  13.795  68.284  1.00  0.00    -0.231 OA 
BRANCH  10  12
HETATM   12  N   UNL     1     -10.791  15.479  66.922  1.00  0.00    -0.315 N  
HETATM   13  H   UNL     1     -11.331  15.287  66.079  1.00  0.00     0.000 HD 
BRANCH  12  14
HETATM   14  C   UNL     1      -9.972  16.637  66.942  1.00  0.00    -0.271 A  
HETATM   15  C   UNL     1      -8.677  16.654  66.405  1.00  0.00    -0.345 A  
HETATM   16  C   UNL     1      -7.906  17.821  66.409  1.00  0.00    -0.277 A  
HETATM   17 CL   UNL     1      -6.331  17.745  65.702  1.00  0.00    -0.209 Cl 
HETATM   18  C   UNL     1      -8.422  18.988  66.973  1.00  0.00    -0.285 A  
HETATM   19  C   UNL     1      -9.700  18.974  67.539  1.00  0.00    -0.371 A  
HETATM   20 CL   UNL     1      -7.534  20.468  67.008  1.00  0.00    -0.359 Cl 
HETATM   21  C   UNL     1     -10.469  17.801  67.534  1.00  0.00    -0.376 A  
ENDBRANCH  12  14
ENDBRANCH  10  12
ENDBRANCH   8  10
ENDBRANCH   5   8
TORSDOF 4
ENDMDL
MODEL       16
REMARK 921   NORMALIZED FREE ENERGY PREDICTED BY IDOCK:   -5.72 KCAL/MOL
REMARK 922        TOTAL FREE ENERGY PREDICTED BY IDOCK:   -7.67 KCAL/MOL
REMARK 923 INTER-LIGAND FREE ENERGY PREDICTED BY IDOCK:   -7.18 KCAL/MOL
REMARK 924 INTRA-LIGAND FREE ENERGY PREDICTED BY IDOCK:   -0.49 KCAL/MOL
REMARK 927      BINDING AFFINITY PREDICTED BY RF-SCORE:    0.00 PKD
ROOT
HETATM    1 CL   UNL     1      -8.504   8.817  64.723  1.00  0.00    -0.182 Cl 
HETATM    2  C   UNL     1      -9.592  10.148  64.739  1.00  0.00    -0.314 A  
HETATM    3  C   UNL     1      -9.978  10.737  63.543  1.00  0.00    -0.403 A  
HETATM    4  C   UNL     1     -10.870  11.811  63.559  1.00  0.00    -0.496 A  
HETATM    5  C   UNL     1     -11.398  12.299  64.763  1.00  0.00    -0.323 A  
HETATM    6  C   UNL     1     -10.083  10.636  65.950  1.00  0.00    -0.321 A  
HETATM    7  C   UNL     1     -10.975  11.718  65.963  1.00  0.00    -0.355 A  
ENDROOT
BRANCH   5   8
HETATM    8  N   UNL     1     -12.328  13.367  64.811  1.00  0.00    -0.496 N  
HETATM    9  H   UNL     1     -13.270  13.168  65.147  1.00  0.00     0.000 HD 
BRANCH   8  10
HETATM   10  C   UNL     1     -12.034  14.665  64.428  1.00  0.00    -0.437 C  
HETATM   11  O   UNL     1     -12.783  15.358  63.746  1.00  0.00    -0.628 OA 
BRANCH  10  12
HETATM   12  N   UNL     1     -10.805  15.105  64.893  1.00  0.00    -0.510 N  
HETATM   13  H   UNL     1      -9.964  14.678  64.505  1.00  0.00     0.000 HD 
BRANCH  12  14
HETATM   14  C   UNL     1     -10.650  16.114  65.876  1.00  0.00    -0.312 A  
HETATM   15  C   UNL     1     -10.750  15.851  67.249  1.00  0.00    -0.306 A  
HETATM   16  C   UNL     1     -10.558  16.861  68.198  1.00  0.00    -0.360 A  
HETATM   17 CL   UNL     1     -10.679  16.430  69.867  1.00  0.00    -0.326 Cl 
HETATM   18  C   UNL     1     -10.281  18.161  67.775  1.00  0.00    -0.383 A  
HETATM   19  C   UNL     1     -10.209  18.442  66.407  1.00  0.00    -0.431 A  
HETATM   20 CL   UNL     1     -10.025  19.459  68.885  1.00  0.00    -0.520 Cl 
HETATM   21  C   UNL     1     -10.404  17.426  65.461  1.00  0.00    -0.075 A  
ENDBRANCH  12  14
ENDBRANCH  10  12
ENDBRANCH   8  10
ENDBRANCH   5   8
TORSDOF 4
ENDMDL
MODEL       17
REMARK 921   NORMALIZED FREE ENERGY PREDICTED BY IDOCK:   -5.70 KCAL/MOL
REMARK 922        TOTAL FREE ENERGY PREDICTED BY IDOCK:   -7.64 KCAL/MOL
REMARK 923 INTER-LIGAND FREE ENERGY PREDICTED BY IDOCK:   -7.14 KCAL/MOL
REMARK 924 INTRA-LIGAND FREE ENERGY PREDICTED BY IDOCK:   -0.50 KCAL/MOL
REMARK 927      BINDING AFFINITY PREDICTED BY RF-SCORE:    0.00 PKD
ROOT
HETATM    1 CL   UNL     1     -13.889   9.442  72.543  1.00  0.00    -0.454 Cl 
HETATM    2  C   UNL     1     -13.088  10.683  71.662  1.00  0.00    -0.450 A  
HETATM    3  C   UNL     1     -12.208  10.346  70.643  1.00  0.00    -0.441 A  
HETATM    4  C   UNL     1     -11.568  11.357  69.923  1.00  0.00    -0.402 A  
HETATM    5  C   UNL     1     -11.808  12.710  70.200  1.00  0.00    -0.249 A  
HETATM    6  C   UNL     1     -13.321  12.022  71.973  1.00  0.00    -0.447 A  
HETATM    7  C   UNL     1     -12.672  13.035  71.251  1.00  0.00    -0.385 A  
ENDROOT
BRANCH   5   8
HETATM    8  N   UNL     1     -11.198  13.759  69.468  1.00  0.00    -0.407 N  
HETATM    9  H   UNL     1     -10.196  13.905  69.583  1.00  0.00     0.000 HD 
BRANCH   8  10
HETATM   10  C   UNL     1     -11.884  14.597  68.604  1.00  0.00    -0.311 C  
HETATM   11  O   UNL     1     -11.945  15.815  68.746  1.00  0.00    -0.374 OA 
BRANCH  10  12
HETATM   12  N   UNL     1     -12.495  13.922  67.560  1.00  0.00    -0.409 N  
HETATM   13  H   UNL     1     -13.512  13.844  67.568  1.00  0.00     0.000 HD 
BRANCH  12  14
HETATM   14  C   UNL     1     -11.788  13.333  66.481  1.00  0.00    -0.398 A  
HETATM   15  C   UNL     1     -11.304  12.018  66.525  1.00  0.00    -0.413 A  
HETATM   16  C   UNL     1     -10.640  11.453  65.432  1.00  0.00    -0.275 A  
HETATM   17 CL   UNL     1     -10.101   9.817  65.576  1.00  0.00    -0.333 Cl 
HETATM   18  C   UNL     1     -10.435  12.212  64.280  1.00  0.00    -0.339 A  
HETATM   19  C   UNL     1     -10.886  13.535  64.236  1.00  0.00    -0.340 A  
HETATM   20 CL   UNL     1      -9.631  11.582  62.888  1.00  0.00    -0.382 Cl 
HETATM   21  C   UNL     1     -11.551  14.097  65.336  1.00  0.00    -0.334 A  
ENDBRANCH  12  14
ENDBRANCH  10  12
ENDBRANCH   8  10
ENDBRANCH   5   8
TORSDOF 4
ENDMDL
MODEL       18
REMARK 921   NORMALIZED FREE ENERGY PREDICTED BY IDOCK:   -5.68 KCAL/MOL
REMARK 922        TOTAL FREE ENERGY PREDICTED BY IDOCK:   -7.62 KCAL/MOL
REMARK 923 INTER-LIGAND FREE ENERGY PREDICTED BY IDOCK:   -6.91 KCAL/MOL
REMARK 924 INTRA-LIGAND FREE ENERGY PREDICTED BY IDOCK:   -0.71 KCAL/MOL
REMARK 927      BINDING AFFINITY PREDICTED BY RF-SCORE:    0.00 PKD
ROOT
HETATM    1 CL   UNL     1      -9.431  19.155  66.702  1.00  0.00    -0.361 Cl 
HETATM    2  C   UNL     1      -9.613  17.482  66.348  1.00  0.00    -0.269 A  
HETATM    3  C   UNL     1      -8.648  16.579  66.772  1.00  0.00    -0.263 A  
HETATM    4  C   UNL     1      -8.804  15.221  66.492  1.00  0.00    -0.335 A  
HETATM    5  C   UNL     1      -9.927  14.746  65.800  1.00  0.00    -0.347 A  
HETATM    6  C   UNL     1     -10.724  17.035  65.634  1.00  0.00    -0.150 A  
HETATM    7  C   UNL     1     -10.875  15.671  65.349  1.00  0.00    -0.394 A  
ENDROOT
BRANCH   5   8
HETATM    8  N   UNL     1     -10.131  13.370  65.527  1.00  0.00    -0.390 N  
HETATM    9  H   UNL     1      -9.544  12.930  64.819  1.00  0.00     0.000 HD 
BRANCH   8  10
HETATM   10  C   UNL     1     -11.079  12.589  66.167  1.00  0.00    -0.298 C  
HETATM   11  O   UNL     1     -12.174  12.319  65.683  1.00  0.00    -0.605 OA 
BRANCH  10  12
HETATM   12  N   UNL     1     -10.666  12.139  67.410  1.00  0.00    -0.228 N  
HETATM   13  H   UNL     1      -9.824  11.566  67.458  1.00  0.00     0.000 HD 
BRANCH  12  14
HETATM   14  C   UNL     1     -11.346  12.429  68.619  1.00  0.00    -0.288 A  
HETATM   15  C   UNL     1     -11.851  11.428  69.460  1.00  0.00    -0.426 A  
HETATM   16  C   UNL     1     -12.489  11.744  70.665  1.00  0.00    -0.274 A  
HETATM   17 CL   UNL     1     -13.055  10.436  71.642  1.00  0.00    -0.535 Cl 
HETATM   18  C   UNL     1     -12.645  13.080  71.032  1.00  0.00    -0.299 A  
HETATM   19  C   UNL     1     -12.173  14.089  70.187  1.00  0.00    -0.425 A  
HETATM   20 CL   UNL     1     -13.414  13.550  72.505  1.00  0.00    -0.671 Cl 
HETATM   21  C   UNL     1     -11.536  13.766  68.980  1.00  0.00    -0.356 A  
ENDBRANCH  12  14
ENDBRANCH  10  12
ENDBRANCH   8  10
ENDBRANCH   5   8
TORSDOF 4
ENDMDL
MODEL       19
REMARK 921   NORMALIZED FREE ENERGY PREDICTED BY IDOCK:   -5.67 KCAL/MOL
REMARK 922        TOTAL FREE ENERGY PREDICTED BY IDOCK:   -7.60 KCAL/MOL
REMARK 923 INTER-LIGAND FREE ENERGY PREDICTED BY IDOCK:   -6.93 KCAL/MOL
REMARK 924 INTRA-LIGAND FREE ENERGY PREDICTED BY IDOCK:   -0.68 KCAL/MOL
REMARK 927      BINDING AFFINITY PREDICTED BY RF-SCORE:    0.00 PKD
ROOT
HETATM    1 CL   UNL     1      -8.916  18.913  66.971  1.00  0.00    -0.295 Cl 
HETATM    2  C   UNL     1      -9.351  17.334  66.447  1.00  0.00    -0.258 A  
HETATM    3  C   UNL     1      -8.614  16.239  66.875  1.00  0.00    -0.247 A  
HETATM    4  C   UNL     1      -8.977  14.957  66.455  1.00  0.00    -0.288 A  
HETATM    5  C   UNL     1     -10.083  14.752  65.619  1.00  0.00    -0.366 A  
HETATM    6  C   UNL     1     -10.439  17.156  65.593  1.00  0.00    -0.208 A  
HETATM    7  C   UNL     1     -10.797  15.868  65.169  1.00  0.00    -0.438 A  
ENDROOT
BRANCH   5   8
HETATM    8  N   UNL     1     -10.495  13.462  65.201  1.00  0.00    -0.330 N  
HETATM    9  H   UNL     1     -10.083  13.079  64.350  1.00  0.00     0.000 HD 
BRANCH   8  10
HETATM   10  C   UNL     1     -11.424  12.691  65.880  1.00  0.00    -0.363 C  
HETATM   11  O   UNL     1     -12.571  12.505  65.484  1.00  0.00    -0.642 OA 
BRANCH  10  12
HETATM   12  N   UNL     1     -10.927  12.148  67.054  1.00  0.00    -0.257 N  
HETATM   13  H   UNL     1     -10.125  11.522  66.991  1.00  0.00     0.000 HD 
BRANCH  12  14
HETATM   14  C   UNL     1     -11.471  12.412  68.336  1.00  0.00    -0.310 A  
HETATM   15  C   UNL     1     -11.782  13.708  68.771  1.00  0.00    -0.383 A  
HETATM   16  C   UNL     1     -12.350  13.934  70.030  1.00  0.00    -0.316 A  
HETATM   17 CL   UNL     1     -12.718  15.566  70.463  1.00  0.00    -0.468 Cl 
HETATM   18  C   UNL     1     -12.595  12.857  70.880  1.00  0.00    -0.270 A  
HETATM   19  C   UNL     1     -12.260  11.563  70.470  1.00  0.00    -0.469 A  
HETATM   20 CL   UNL     1     -13.299  13.055  72.444  1.00  0.00    -0.618 Cl 
HETATM   21  C   UNL     1     -11.690  11.341  69.207  1.00  0.00    -0.403 A  
ENDBRANCH  12  14
ENDBRANCH  10  12
ENDBRANCH   8  10
ENDBRANCH   5   8
TORSDOF 4
ENDMDL
MODEL       20
REMARK 921   NORMALIZED FREE ENERGY PREDICTED BY IDOCK:   -5.66 KCAL/MOL
REMARK 922        TOTAL FREE ENERGY PREDICTED BY IDOCK:   -7.59 KCAL/MOL
REMARK 923 INTER-LIGAND FREE ENERGY PREDICTED BY IDOCK:   -7.02 KCAL/MOL
REMARK 924 INTRA-LIGAND FREE ENERGY PREDICTED BY IDOCK:   -0.58 KCAL/MOL
REMARK 927      BINDING AFFINITY PREDICTED BY RF-SCORE:    0.00 PKD
ROOT
HETATM    1 CL   UNL     1     -10.399  19.628  68.378  1.00  0.00    -0.538 Cl 
HETATM    2  C   UNL     1     -10.478  18.135  67.530  1.00  0.00    -0.410 A  
HETATM    3  C   UNL     1     -10.512  16.941  68.238  1.00  0.00    -0.352 A  
HETATM    4  C   UNL     1     -10.586  15.731  67.546  1.00  0.00    -0.309 A  
HETATM    5  C   UNL     1     -10.642  15.697  66.146  1.00  0.00    -0.320 A  
HETATM    6  C   UNL     1     -10.504  18.123  66.135  1.00  0.00    -0.377 A  
HETATM    7  C   UNL     1     -10.574  16.905  65.444  1.00  0.00    -0.177 A  
ENDROOT
BRANCH   5   8
HETATM    8  N   UNL     1     -10.749  14.487  65.416  1.00  0.00    -0.336 N  
HETATM    9  H   UNL     1      -9.967  14.215  64.820  1.00  0.00     0.000 HD 
BRANCH   8  10
HETATM   10  C   UNL     1     -11.853  13.652  65.464  1.00  0.00    -0.362 C  
HETATM   11  O   UNL     1     -13.003  14.036  65.275  1.00  0.00    -0.743 OA 
BRANCH  10  12
HETATM   12  N   UNL     1     -11.528  12.334  65.745  1.00  0.00    -0.353 N  
HETATM   13  H   UNL     1     -11.355  11.705  64.962  1.00  0.00     0.000 HD 
BRANCH  12  14
HETATM   14  C   UNL     1     -11.423  11.812  67.058  1.00  0.00    -0.298 A  
HETATM   15  C   UNL     1     -11.875  12.511  68.186  1.00  0.00    -0.371 A  
HETATM   16  C   UNL     1     -11.789  11.955  69.467  1.00  0.00    -0.331 A  
HETATM   17 CL   UNL     1     -12.395  12.887  70.790  1.00  0.00    -0.441 Cl 
HETATM   18  C   UNL     1     -11.228  10.690  69.634  1.00  0.00    -0.289 A  
HETATM   19  C   UNL     1     -10.746   9.996  68.520  1.00  0.00    -0.264 A  
HETATM   20 CL   UNL     1     -11.094   9.934  71.181  1.00  0.00    -0.410 Cl 
HETATM   21  C   UNL     1     -10.833  10.558  67.238  1.00  0.00    -0.338 A  
ENDBRANCH  12  14
ENDBRANCH  10  12
ENDBRANCH   8  10
ENDBRANCH   5   8
TORSDOF 4
ENDMDL
MODEL       21
REMARK 921   NORMALIZED FREE ENERGY PREDICTED BY IDOCK:   -5.64 KCAL/MOL
REMARK 922        TOTAL FREE ENERGY PREDICTED BY IDOCK:   -7.57 KCAL/MOL
REMARK 923 INTER-LIGAND FREE ENERGY PREDICTED BY IDOCK:   -7.14 KCAL/MOL
REMARK 924 INTRA-LIGAND FREE ENERGY PREDICTED BY IDOCK:   -0.43 KCAL/MOL
REMARK 927      BINDING AFFINITY PREDICTED BY RF-SCORE:    0.00 PKD
ROOT
HETATM    1 CL   UNL     1     -10.292   6.852  73.617  1.00  0.00    -0.360 Cl 
HETATM    2  C   UNL     1     -10.945   8.079  72.604  1.00  0.00    -0.382 A  
HETATM    3  C   UNL     1     -12.307   8.342  72.631  1.00  0.00    -0.256 A  
HETATM    4  C   UNL     1     -12.832   9.346  71.815  1.00  0.00    -0.484 A  
HETATM    5  C   UNL     1     -12.005  10.107  70.977  1.00  0.00    -0.378 A  
HETATM    6  C   UNL     1     -10.108   8.805  71.757  1.00  0.00    -0.403 A  
HETATM    7  C   UNL     1     -10.639   9.809  70.935  1.00  0.00    -0.344 A  
ENDROOT
BRANCH   5   8
HETATM    8  N   UNL     1     -12.502  11.153  70.160  1.00  0.00    -0.269 N  
HETATM    9  H   UNL     1     -13.216  10.925  69.469  1.00  0.00     0.000 HD 
BRANCH   8  10
HETATM   10  C   UNL     1     -12.075  12.468  70.246  1.00  0.00    -0.294 C  
HETATM   11  O   UNL     1     -12.528  13.279  71.048  1.00  0.00    -0.366 OA 
BRANCH  10  12
HETATM   12  N   UNL     1     -11.079  12.778  69.332  1.00  0.00    -0.450 N  
HETATM   13  H   UNL     1     -10.149  12.994  69.691  1.00  0.00     0.000 HD 
BRANCH  12  14
HETATM   14  C   UNL     1     -11.280  12.811  67.930  1.00  0.00    -0.274 A  
HETATM   15  C   UNL     1     -10.764  11.831  67.070  1.00  0.00    -0.286 A  
HETATM   16  C   UNL     1     -11.007  11.872  65.693  1.00  0.00    -0.304 A  
HETATM   17 CL   UNL     1     -10.346  10.605  64.722  1.00  0.00    -0.397 Cl 
HETATM   18  C   UNL     1     -11.760  12.916  65.157  1.00  0.00    -0.349 A  
HETATM   19  C   UNL     1     -12.255  13.916  66.000  1.00  0.00    -0.495 A  
HETATM   20 CL   UNL     1     -12.109  13.031  63.469  1.00  0.00    -0.615 Cl 
HETATM   21  C   UNL     1     -12.007  13.871  67.379  1.00  0.00    -0.436 A  
ENDBRANCH  12  14
ENDBRANCH  10  12
ENDBRANCH   8  10
ENDBRANCH   5   8
TORSDOF 4
ENDMDL
MODEL       22
REMARK 921   NORMALIZED FREE ENERGY PREDICTED BY IDOCK:   -5.64 KCAL/MOL
REMARK 922        TOTAL FREE ENERGY PREDICTED BY IDOCK:   -7.57 KCAL/MOL
REMARK 923 INTER-LIGAND FREE ENERGY PREDICTED BY IDOCK:   -7.01 KCAL/MOL
REMARK 924 INTRA-LIGAND FREE ENERGY PREDICTED BY IDOCK:   -0.56 KCAL/MOL
REMARK 927      BINDING AFFINITY PREDICTED BY RF-SCORE:    0.00 PKD
ROOT
HETATM    1 CL   UNL     1     -12.637  16.069  74.561  1.00  0.00    -0.650 Cl 
HETATM    2  C   UNL     1     -12.526  15.620  72.905  1.00  0.00    -0.439 A  
HETATM    3  C   UNL     1     -13.097  14.430  72.475  1.00  0.00    -0.536 A  
HETATM    4  C   UNL     1     -13.014  14.073  71.127  1.00  0.00    -0.402 A  
HETATM    5  C   UNL     1     -12.376  14.902  70.195  1.00  0.00    -0.327 A  
HETATM    6  C   UNL     1     -11.862  16.446  71.999  1.00  0.00    -0.464 A  
HETATM    7  C   UNL     1     -11.776  16.082  70.648  1.00  0.00    -0.376 A  
ENDROOT
BRANCH   5   8
HETATM    8  N   UNL     1     -12.301  14.584  68.816  1.00  0.00    -0.586 N  
HETATM    9  H   UNL     1     -13.084  14.849  68.219  1.00  0.00     0.000 HD 
BRANCH   8  10
HETATM   10  C   UNL     1     -11.227  13.933  68.231  1.00  0.00    -0.272 C  
HETATM   11  O   UNL     1     -10.075  14.353  68.271  1.00  0.00    -0.226 OA 
BRANCH  10  12
HETATM   12  N   UNL     1     -11.584  12.754  67.596  1.00  0.00    -0.337 N  
HETATM   13  H   UNL     1     -12.079  12.819  66.706  1.00  0.00     0.000 HD 
BRANCH  12  14
HETATM   14  C   UNL     1     -11.302  11.464  68.112  1.00  0.00    -0.304 A  
HETATM   15  C   UNL     1     -11.414  11.156  69.475  1.00  0.00    -0.374 A  
HETATM   16  C   UNL     1     -11.161   9.864  69.949  1.00  0.00    -0.275 A  
HETATM   17 CL   UNL     1     -11.349   9.580  71.644  1.00  0.00    -0.452 Cl 
HETATM   18  C   UNL     1     -10.772   8.865  69.058  1.00  0.00    -0.126 A  
HETATM   19  C   UNL     1     -10.627   9.168  67.701  1.00  0.00    -0.307 A  
HETATM   20 CL   UNL     1     -10.450   7.247  69.567  1.00  0.00    -0.229 Cl 
HETATM   21  C   UNL     1     -10.880  10.465  67.230  1.00  0.00    -0.324 A  
ENDBRANCH  12  14
ENDBRANCH  10  12
ENDBRANCH   8  10
ENDBRANCH   5   8
TORSDOF 4
ENDMDL
MODEL       23
REMARK 921   NORMALIZED FREE ENERGY PREDICTED BY IDOCK:   -5.64 KCAL/MOL
REMARK 922        TOTAL FREE ENERGY PREDICTED BY IDOCK:   -7.57 KCAL/MOL
REMARK 923 INTER-LIGAND FREE ENERGY PREDICTED BY IDOCK:   -6.85 KCAL/MOL
REMARK 924 INTRA-LIGAND FREE ENERGY PREDICTED BY IDOCK:   -0.71 KCAL/MOL
REMARK 927      BINDING AFFINITY PREDICTED BY RF-SCORE:    0.00 PKD
ROOT
HETATM    1 CL   UNL     1     -12.639  11.824  63.244  1.00  0.00    -0.578 Cl 
HETATM    2  C   UNL     1     -11.792  12.982  64.192  1.00  0.00    -0.416 A  
HETATM    3  C   UNL     1     -10.742  12.573  65.003  1.00  0.00    -0.326 A  
HETATM    4  C   UNL     1     -10.050  13.518  65.763  1.00  0.00    -0.298 A  
HETATM    5  C   UNL     1     -10.385  14.879  65.712  1.00  0.00    -0.332 A  
HETATM    6  C   UNL     1     -12.160  14.327  64.147  1.00  0.00    -0.423 A  
HETATM    7  C   UNL     1     -11.466  15.272  64.916  1.00  0.00    -0.343 A  
ENDROOT
BRANCH   5   8
HETATM    8  N   UNL     1      -9.682  15.866  66.447  1.00  0.00    -0.266 N  
HETATM    9  H   UNL     1      -9.150  16.563  65.927  1.00  0.00     0.000 HD 
BRANCH   8  10
HETATM   10  C   UNL     1      -9.676  15.939  67.830  1.00  0.00    -0.220 C  
HETATM   11  O   UNL     1      -8.661  15.824  68.511  1.00  0.00    -0.168 OA 
BRANCH  10  12
HETATM   12  N   UNL     1     -10.933  16.156  68.370  1.00  0.00    -0.326 N  
HETATM   13  H   UNL     1     -11.437  16.997  68.089  1.00  0.00     0.000 HD 
BRANCH  12  14
HETATM   14  C   UNL     1     -11.558  15.278  69.290  1.00  0.00    -0.332 A  
HETATM   15  C   UNL     1     -11.523  13.884  69.145  1.00  0.00    -0.345 A  
HETATM   16  C   UNL     1     -12.120  13.041  70.089  1.00  0.00    -0.307 A  
HETATM   17 CL   UNL     1     -12.002  11.336  69.832  1.00  0.00    -0.405 Cl 
HETATM   18  C   UNL     1     -12.781  13.592  71.186  1.00  0.00    -0.353 A  
HETATM   19  C   UNL     1     -12.849  14.982  71.325  1.00  0.00    -0.438 A  
HETATM   20 CL   UNL     1     -13.535  12.617  72.395  1.00  0.00    -0.589 Cl 
HETATM   21  C   UNL     1     -12.250  15.822  70.376  1.00  0.00    -0.388 A  
ENDBRANCH  12  14
ENDBRANCH  10  12
ENDBRANCH   8  10
ENDBRANCH   5   8
TORSDOF 4
ENDMDL
MODEL       24
REMARK 921   NORMALIZED FREE ENERGY PREDICTED BY IDOCK:   -5.63 KCAL/MOL
REMARK 922        TOTAL FREE ENERGY PREDICTED BY IDOCK:   -7.56 KCAL/MOL
REMARK 923 INTER-LIGAND FREE ENERGY PREDICTED BY IDOCK:   -7.23 KCAL/MOL
REMARK 924 INTRA-LIGAND FREE ENERGY PREDICTED BY IDOCK:   -0.32 KCAL/MOL
REMARK 927      BINDING AFFINITY PREDICTED BY RF-SCORE:    0.00 PKD
ROOT
HETATM    1 CL   UNL     1     -12.150  14.218  64.815  1.00  0.00    -0.433 Cl 
HETATM    2  C   UNL     1     -11.930  13.518  66.370  1.00  0.00    -0.414 A  
HETATM    3  C   UNL     1     -12.029  14.314  67.504  1.00  0.00    -0.411 A  
HETATM    4  C   UNL     1     -11.860  13.740  68.765  1.00  0.00    -0.398 A  
HETATM    5  C   UNL     1     -11.607  12.369  68.912  1.00  0.00    -0.316 A  
HETATM    6  C   UNL     1     -11.651  12.157  66.492  1.00  0.00    -0.425 A  
HETATM    7  C   UNL     1     -11.477  11.586  67.760  1.00  0.00    -0.357 A  
ENDROOT
BRANCH   5   8
HETATM    8  N   UNL     1     -11.461  11.751  70.179  1.00  0.00    -0.510 N  
HETATM    9  H   UNL     1     -10.521  11.662  70.565  1.00  0.00     0.000 HD 
BRANCH   8  10
HETATM   10  C   UNL     1     -12.521  11.261  70.925  1.00  0.00    -0.394 C  
HETATM   11  O   UNL     1     -13.140  11.930  71.746  1.00  0.00    -0.451 OA 
BRANCH  10  12
HETATM   12  N   UNL     1     -12.814   9.935  70.648  1.00  0.00    -0.551 N  
HETATM   13  H   UNL     1     -13.482   9.736  69.903  1.00  0.00     0.000 HD 
BRANCH  12  14
HETATM   14  C   UNL     1     -12.240   8.840  71.341  1.00  0.00    -0.309 A  
HETATM   15  C   UNL     1     -11.011   8.931  72.009  1.00  0.00    -0.412 A  
HETATM   16  C   UNL     1     -10.485   7.842  72.714  1.00  0.00    -0.346 A  
HETATM   17 CL   UNL     1      -8.975   8.063  73.524  1.00  0.00    -0.330 Cl 
HETATM   18  C   UNL     1     -11.183   6.635  72.738  1.00  0.00    -0.227 A  
HETATM   19  C   UNL     1     -12.394   6.523  72.050  1.00  0.00    -0.308 A  
HETATM   20 CL   UNL     1     -10.602   5.250  73.591  1.00  0.00    -0.293 Cl 
HETATM   21  C   UNL     1     -12.916   7.617  71.344  1.00  0.00    -0.350 A  
ENDBRANCH  12  14
ENDBRANCH  10  12
ENDBRANCH   8  10
ENDBRANCH   5   8
TORSDOF 4
ENDMDL
MODEL       25
REMARK 921   NORMALIZED FREE ENERGY PREDICTED BY IDOCK:   -5.62 KCAL/MOL
REMARK 922        TOTAL FREE ENERGY PREDICTED BY IDOCK:   -7.55 KCAL/MOL
REMARK 923 INTER-LIGAND FREE ENERGY PREDICTED BY IDOCK:   -6.93 KCAL/MOL
REMARK 924 INTRA-LIGAND FREE ENERGY PREDICTED BY IDOCK:   -0.62 KCAL/MOL
REMARK 927      BINDING AFFINITY PREDICTED BY RF-SCORE:    0.00 PKD
ROOT
HETATM    1 CL   UNL     1     -11.548  14.763  69.417  1.00  0.00    -0.317 Cl 
HETATM    2  C   UNL     1     -12.162  13.428  70.310  1.00  0.00    -0.335 A  
HETATM    3  C   UNL     1     -11.912  12.134  69.874  1.00  0.00    -0.380 A  
HETATM    4  C   UNL     1     -12.403  11.053  70.608  1.00  0.00    -0.480 A  
HETATM    5  C   UNL     1     -13.133  11.247  71.789  1.00  0.00    -0.422 A  
HETATM    6  C   UNL     1     -12.909  13.645  71.468  1.00  0.00    -0.445 A  
HETATM    7  C   UNL     1     -13.405  12.556  72.199  1.00  0.00    -0.540 A  
ENDROOT
BRANCH   5   8
HETATM    8  N   UNL     1     -13.617  10.170  72.573  1.00  0.00    -0.554 N  
HETATM    9  H   UNL     1     -14.036  10.385  73.477  1.00  0.00     0.000 HD 
BRANCH   8  10
HETATM   10  C   UNL     1     -13.556   8.843  72.182  1.00  0.00    -0.453 C  
HETATM   11  O   UNL     1     -14.337   8.334  71.383  1.00  0.00    -0.412 OA 
BRANCH  10  12
HETATM   12  N   UNL     1     -12.521   8.145  72.783  1.00  0.00    -0.610 N  
HETATM   13  H   UNL     1     -12.623   7.887  73.764  1.00  0.00     0.000 HD 
BRANCH  12  14
HETATM   14  C   UNL     1     -11.330   7.769  72.113  1.00  0.00    -0.302 A  
HETATM   15  C   UNL     1     -11.291   6.735  71.168  1.00  0.00    -0.342 A  
HETATM   16  C   UNL     1     -10.107   6.409  70.497  1.00  0.00    -0.186 A  
HETATM   17 CL   UNL     1     -10.167   5.133  69.333  1.00  0.00    -0.303 Cl 
HETATM   18  C   UNL     1      -8.936   7.111  70.783  1.00  0.00    -0.152 A  
HETATM   19  C   UNL     1      -8.956   8.124  71.746  1.00  0.00    -0.216 A  
HETATM   20 CL   UNL     1      -7.439   6.772  69.992  1.00  0.00    -0.092 Cl 
HETATM   21  C   UNL     1     -10.146   8.446  72.417  1.00  0.00    -0.386 A  
ENDBRANCH  12  14
ENDBRANCH  10  12
ENDBRANCH   8  10
ENDBRANCH   5   8
TORSDOF 4
ENDMDL
MODEL       26
REMARK 921   NORMALIZED FREE ENERGY PREDICTED BY IDOCK:   -5.62 KCAL/MOL
REMARK 922        TOTAL FREE ENERGY PREDICTED BY IDOCK:   -7.54 KCAL/MOL
REMARK 923 INTER-LIGAND FREE ENERGY PREDICTED BY IDOCK:   -7.11 KCAL/MOL
REMARK 924 INTRA-LIGAND FREE ENERGY PREDICTED BY IDOCK:   -0.43 KCAL/MOL
REMARK 927      BINDING AFFINITY PREDICTED BY RF-SCORE:    0.00 PKD
ROOT
HETATM    1 CL   UNL     1     -13.374  15.688  72.408  1.00  0.00    -0.538 Cl 
HETATM    2  C   UNL     1     -13.054  14.122  71.775  1.00  0.00    -0.357 A  
HETATM    3  C   UNL     1     -12.310  13.988  70.611  1.00  0.00    -0.446 A  
HETATM    4  C   UNL     1     -12.044  12.713  70.106  1.00  0.00    -0.368 A  
HETATM    5  C   UNL     1     -12.502  11.562  70.761  1.00  0.00    -0.349 A  
HETATM    6  C   UNL     1     -13.543  12.991  72.428  1.00  0.00    -0.628 A  
HETATM    7  C   UNL     1     -13.278  11.713  71.914  1.00  0.00    -0.475 A  
ENDROOT
BRANCH   5   8
HETATM    8  N   UNL     1     -12.222  10.254  70.291  1.00  0.00    -0.433 N  
HETATM    9  H   UNL     1     -12.983   9.575  70.282  1.00  0.00     0.000 HD 
BRANCH   8  10
HETATM   10  C   UNL     1     -10.977   9.845  69.844  1.00  0.00    -0.281 C  
HETATM   11  O   UNL     1      -9.939  10.015  70.477  1.00  0.00    -0.186 OA 
BRANCH  10  12
HETATM   12  N   UNL     1     -11.019   9.222  68.607  1.00  0.00    -0.450 N  
HETATM   13  H   UNL     1     -11.199   8.218  68.581  1.00  0.00     0.000 HD 
BRANCH  12  14
HETATM   14  C   UNL     1     -10.828   9.899  67.377  1.00  0.00    -0.227 A  
HETATM   15  C   UNL     1     -11.317  11.192  67.143  1.00  0.00    -0.257 A  
HETATM   16  C   UNL     1     -11.083  11.848  65.930  1.00  0.00    -0.316 A  
HETATM   17 CL   UNL     1     -11.708  13.449  65.748  1.00  0.00    -0.358 Cl 
HETATM   18  C   UNL     1     -10.367  11.202  64.923  1.00  0.00    -0.313 A  
HETATM   19  C   UNL     1      -9.901   9.900  65.133  1.00  0.00    -0.348 A  
HETATM   20 CL   UNL     1     -10.031  11.948  63.402  1.00  0.00    -0.443 Cl 
HETATM   21  C   UNL     1     -10.139   9.247  66.350  1.00  0.00    -0.337 A  
ENDBRANCH  12  14
ENDBRANCH  10  12
ENDBRANCH   8  10
ENDBRANCH   5   8
TORSDOF 4
ENDMDL
MODEL       27
REMARK 921   NORMALIZED FREE ENERGY PREDICTED BY IDOCK:   -5.61 KCAL/MOL
REMARK 922        TOTAL FREE ENERGY PREDICTED BY IDOCK:   -7.53 KCAL/MOL
REMARK 923 INTER-LIGAND FREE ENERGY PREDICTED BY IDOCK:   -7.15 KCAL/MOL
REMARK 924 INTRA-LIGAND FREE ENERGY PREDICTED BY IDOCK:   -0.38 KCAL/MOL
REMARK 927      BINDING AFFINITY PREDICTED BY RF-SCORE:    0.00 PKD
ROOT
HETATM    1 CL   UNL     1     -12.661   9.259  71.744  1.00  0.00    -0.427 Cl 
HETATM    2  C   UNL     1     -12.613  10.909  71.263  1.00  0.00    -0.421 A  
HETATM    3  C   UNL     1     -11.923  11.273  70.115  1.00  0.00    -0.452 A  
HETATM    4  C   UNL     1     -11.895  12.612  69.722  1.00  0.00    -0.379 A  
HETATM    5  C   UNL     1     -12.565  13.599  70.459  1.00  0.00    -0.267 A  
HETATM    6  C   UNL     1     -13.263  11.879  72.026  1.00  0.00    -0.461 A  
HETATM    7  C   UNL     1     -13.228  13.224  71.631  1.00  0.00    -0.446 A  
ENDROOT
BRANCH   5   8
HETATM    8  N   UNL     1     -12.581  14.962  70.069  1.00  0.00    -0.547 N  
HETATM    9  H   UNL     1     -13.473  15.457  70.091  1.00  0.00     0.000 HD 
BRANCH   8  10
HETATM   10  C   UNL     1     -11.458  15.661  69.661  1.00  0.00    -0.340 C  
HETATM   11  O   UNL     1     -10.498  15.890  70.390  1.00  0.00    -0.257 OA 
BRANCH  10  12
HETATM   12  N   UNL     1     -11.525  16.077  68.340  1.00  0.00    -0.362 N  
HETATM   13  H   UNL     1     -12.328  15.784  67.785  1.00  0.00     0.000 HD 
BRANCH  12  14
HETATM   14  C   UNL     1     -10.541  16.885  67.718  1.00  0.00    -0.340 A  
HETATM   15  C   UNL     1     -10.592  18.286  67.739  1.00  0.00    -0.415 A  
HETATM   16  C   UNL     1      -9.588  19.058  67.145  1.00  0.00    -0.312 A  
HETATM   17 CL   UNL     1      -9.731  20.778  67.245  1.00  0.00    -0.590 Cl 
HETATM   18  C   UNL     1      -8.523  18.428  66.501  1.00  0.00    -0.270 A  
HETATM   19  C   UNL     1      -8.477  17.032  66.447  1.00  0.00    -0.318 A  
HETATM   20 CL   UNL     1      -7.243  19.312  65.752  1.00  0.00    -0.304 Cl 
HETATM   21  C   UNL     1      -9.487  16.263  67.043  1.00  0.00    -0.237 A  
ENDBRANCH  12  14
ENDBRANCH  10  12
ENDBRANCH   8  10
ENDBRANCH   5   8
TORSDOF 4
ENDMDL
MODEL       28
REMARK 921   NORMALIZED FREE ENERGY PREDICTED BY IDOCK:   -5.60 KCAL/MOL
REMARK 922        TOTAL FREE ENERGY PREDICTED BY IDOCK:   -7.53 KCAL/MOL
REMARK 923 INTER-LIGAND FREE ENERGY PREDICTED BY IDOCK:   -7.24 KCAL/MOL
REMARK 924 INTRA-LIGAND FREE ENERGY PREDICTED BY IDOCK:   -0.29 KCAL/MOL
REMARK 927      BINDING AFFINITY PREDICTED BY RF-SCORE:    0.00 PKD
ROOT
HETATM    1 CL   UNL     1      -9.621   3.730  70.065  1.00  0.00    -0.267 Cl 
HETATM    2  C   UNL     1     -10.370   5.087  70.808  1.00  0.00    -0.195 A  
HETATM    3  C   UNL     1     -10.704   6.195  70.042  1.00  0.00    -0.370 A  
HETATM    4  C   UNL     1     -11.321   7.291  70.648  1.00  0.00    -0.311 A  
HETATM    5  C   UNL     1     -11.625   7.290  72.016  1.00  0.00    -0.274 A  
HETATM    6  C   UNL     1     -10.638   5.075  72.177  1.00  0.00    -0.259 A  
HETATM    7  C   UNL     1     -11.253   6.180  72.783  1.00  0.00    -0.278 A  
ENDROOT
BRANCH   5   8
HETATM    8  N   UNL     1     -12.278   8.374  72.654  1.00  0.00    -0.537 N  
HETATM    9  H   UNL     1     -11.861   8.753  73.504  1.00  0.00     0.000 HD 
BRANCH   8  10
HETATM   10  C   UNL     1     -13.451   8.948  72.191  1.00  0.00    -0.448 C  
HETATM   11  O   UNL     1     -14.278   8.349  71.511  1.00  0.00    -0.411 OA 
BRANCH  10  12
HETATM   12  N   UNL     1     -13.598  10.271  72.576  1.00  0.00    -0.507 N  
HETATM   13  H   UNL     1     -14.077  10.465  73.456  1.00  0.00     0.000 HD 
BRANCH  12  14
HETATM   14  C   UNL     1     -13.123  11.370  71.817  1.00  0.00    -0.418 A  
HETATM   15  C   UNL     1     -13.420  12.700  72.148  1.00  0.00    -0.561 A  
HETATM   16  C   UNL     1     -12.908  13.765  71.400  1.00  0.00    -0.369 A  
HETATM   17 CL   UNL     1     -13.313  15.368  71.904  1.00  0.00    -0.505 Cl 
HETATM   18  C   UNL     1     -12.104  13.506  70.291  1.00  0.00    -0.355 A  
HETATM   19  C   UNL     1     -11.827  12.183  69.933  1.00  0.00    -0.392 A  
HETATM   20 CL   UNL     1     -11.430  14.767  69.323  1.00  0.00    -0.299 Cl 
HETATM   21  C   UNL     1     -12.343  11.119  70.685  1.00  0.00    -0.482 A  
ENDBRANCH  12  14
ENDBRANCH  10  12
ENDBRANCH   8  10
ENDBRANCH   5   8
TORSDOF 4
ENDMDL
MODEL       29
REMARK 921   NORMALIZED FREE ENERGY PREDICTED BY IDOCK:   -5.59 KCAL/MOL
REMARK 922        TOTAL FREE ENERGY PREDICTED BY IDOCK:   -7.51 KCAL/MOL
REMARK 923 INTER-LIGAND FREE ENERGY PREDICTED BY IDOCK:   -7.10 KCAL/MOL
REMARK 924 INTRA-LIGAND FREE ENERGY PREDICTED BY IDOCK:   -0.41 KCAL/MOL
REMARK 927      BINDING AFFINITY PREDICTED BY RF-SCORE:    0.00 PKD
ROOT
HETATM    1 CL   UNL     1      -9.578   8.793  67.352  1.00  0.00    -0.192 Cl 
HETATM    2  C   UNL     1     -10.191  10.066  66.371  1.00  0.00    -0.221 A  
HETATM    3  C   UNL     1     -11.025  11.026  66.930  1.00  0.00    -0.311 A  
HETATM    4  C   UNL     1     -11.512  12.063  66.133  1.00  0.00    -0.401 A  
HETATM    5  C   UNL     1     -11.163  12.165  64.779  1.00  0.00    -0.323 A  
HETATM    6  C   UNL     1      -9.853  10.133  65.020  1.00  0.00    -0.392 A  
HETATM    7  C   UNL     1     -10.349  11.174  64.222  1.00  0.00    -0.413 A  
ENDROOT
BRANCH   5   8
HETATM    8  N   UNL     1     -11.615  13.223  63.952  1.00  0.00    -0.537 N  
HETATM    9  H   UNL     1     -11.506  13.124  62.943  1.00  0.00     0.000 HD 
BRANCH   8  10
HETATM   10  C   UNL     1     -12.197  14.384  64.434  1.00  0.00    -0.458 C  
HETATM   11  O   UNL     1     -13.279  14.412  65.013  1.00  0.00    -0.562 OA 
BRANCH  10  12
HETATM   12  N   UNL     1     -11.433  15.516  64.197  1.00  0.00    -0.794 N  
HETATM   13  H   UNL     1     -11.430  15.905  63.255  1.00  0.00     0.000 HD 
BRANCH  12  14
HETATM   14  C   UNL     1     -10.654  16.162  65.190  1.00  0.00    -0.343 A  
HETATM   15  C   UNL     1     -10.910  17.474  65.613  1.00  0.00     0.013 A  
HETATM   16  C   UNL     1     -10.145  18.074  66.619  1.00  0.00    -0.372 A  
HETATM   17 CL   UNL     1     -10.555  19.687  67.086  1.00  0.00    -0.600 Cl 
HETATM   18  C   UNL     1      -9.096  17.366  67.204  1.00  0.00    -0.237 A  
HETATM   19  C   UNL     1      -8.812  16.068  66.769  1.00  0.00    -0.288 A  
HETATM   20 CL   UNL     1      -8.113  18.035  68.456  1.00  0.00    -0.301 Cl 
HETATM   21  C   UNL     1      -9.581  15.471  65.759  1.00  0.00    -0.367 A  
ENDBRANCH  12  14
ENDBRANCH  10  12
ENDBRANCH   8  10
ENDBRANCH   5   8
TORSDOF 4
ENDMDL
MODEL       30
REMARK 921   NORMALIZED FREE ENERGY PREDICTED BY IDOCK:   -5.58 KCAL/MOL
REMARK 922        TOTAL FREE ENERGY PREDICTED BY IDOCK:   -7.49 KCAL/MOL
REMARK 923 INTER-LIGAND FREE ENERGY PREDICTED BY IDOCK:   -6.89 KCAL/MOL
REMARK 924 INTRA-LIGAND FREE ENERGY PREDICTED BY IDOCK:   -0.60 KCAL/MOL
REMARK 927      BINDING AFFINITY PREDICTED BY RF-SCORE:    0.00 PKD
ROOT
HETATM    1 CL   UNL     1     -12.303  12.649  63.525  1.00  0.00    -0.600 Cl 
HETATM    2  C   UNL     1     -11.978  12.800  65.206  1.00  0.00    -0.429 A  
HETATM    3  C   UNL     1     -11.394  11.743  65.892  1.00  0.00    -0.324 A  
HETATM    4  C   UNL     1     -11.122  11.874  67.256  1.00  0.00    -0.344 A  
HETATM    5  C   UNL     1     -11.414  13.059  67.945  1.00  0.00    -0.311 A  
HETATM    6  C   UNL     1     -12.303  13.978  65.879  1.00  0.00    -0.515 A  
HETATM    7  C   UNL     1     -12.033  14.102  67.249  1.00  0.00    -0.449 A  
ENDROOT
BRANCH   5   8
HETATM    8  N   UNL     1     -11.122  13.233  69.321  1.00  0.00    -0.413 N  
HETATM    9  H   UNL     1     -10.544  12.531  69.782  1.00  0.00     0.000 HD 
BRANCH   8  10
HETATM   10  C   UNL     1     -11.575  14.302  70.076  1.00  0.00    -0.261 C  
HETATM   11  O   UNL     1     -12.746  14.445  70.417  1.00  0.00    -0.346 OA 
BRANCH  10  12
HETATM   12  N   UNL     1     -10.572  15.197  70.411  1.00  0.00    -0.508 N  
HETATM   13  H   UNL     1     -10.286  15.255  71.389  1.00  0.00     0.000 HD 
BRANCH  12  14
HETATM   14  C   UNL     1      -9.919  16.037  69.474  1.00  0.00    -0.255 A  
HETATM   15  C   UNL     1     -10.547  17.146  68.890  1.00  0.00    -0.314 A  
HETATM   16  C   UNL     1      -9.867  17.977  67.993  1.00  0.00    -0.323 A  
HETATM   17 CL   UNL     1     -10.722  19.332  67.346  1.00  0.00    -0.583 Cl 
HETATM   18  C   UNL     1      -8.545  17.690  67.655  1.00  0.00    -0.224 A  
HETATM   19  C   UNL     1      -7.917  16.570  68.208  1.00  0.00    -0.177 A  
HETATM   20 CL   UNL     1      -7.637  18.672  66.563  1.00  0.00    -0.259 Cl 
HETATM   21  C   UNL     1      -8.605  15.739  69.105  1.00  0.00    -0.256 A  
ENDBRANCH  12  14
ENDBRANCH  10  12
ENDBRANCH   8  10
ENDBRANCH   5   8
TORSDOF 4
ENDMDL
MODEL       31
REMARK 921   NORMALIZED FREE ENERGY PREDICTED BY IDOCK:   -5.56 KCAL/MOL
REMARK 922        TOTAL FREE ENERGY PREDICTED BY IDOCK:   -7.47 KCAL/MOL
REMARK 923 INTER-LIGAND FREE ENERGY PREDICTED BY IDOCK:   -6.91 KCAL/MOL
REMARK 924 INTRA-LIGAND FREE ENERGY PREDICTED BY IDOCK:   -0.56 KCAL/MOL
REMARK 927      BINDING AFFINITY PREDICTED BY RF-SCORE:    0.00 PKD
ROOT
HETATM    1 CL   UNL     1     -10.571   5.221  74.436  1.00  0.00    -0.273 Cl 
HETATM    2  C   UNL     1     -10.765   6.129  72.989  1.00  0.00    -0.252 A  
HETATM    3  C   UNL     1     -10.874   7.512  73.052  1.00  0.00    -0.445 A  
HETATM    4  C   UNL     1     -11.021   8.247  71.874  1.00  0.00    -0.354 A  
HETATM    5  C   UNL     1     -11.045   7.616  70.622  1.00  0.00    -0.257 A  
HETATM    6  C   UNL     1     -10.815   5.479  71.756  1.00  0.00    -0.277 A  
HETATM    7  C   UNL     1     -10.968   6.220  70.575  1.00  0.00    -0.374 A  
ENDROOT
BRANCH   5   8
HETATM    8  N   UNL     1     -11.162   8.336  69.407  1.00  0.00    -0.425 N  
HETATM    9  H   UNL     1     -11.576   7.860  68.606  1.00  0.00     0.000 HD 
BRANCH   8  10
HETATM   10  C   UNL     1     -10.746   9.646  69.244  1.00  0.00    -0.226 C  
HETATM   11  O   UNL     1      -9.570   9.997  69.296  1.00  0.00    -0.191 OA 
BRANCH  10  12
HETATM   12  N   UNL     1     -11.791  10.526  69.014  1.00  0.00    -0.523 N  
HETATM   13  H   UNL     1     -12.327  10.420  68.152  1.00  0.00     0.000 HD 
BRANCH  12  14
HETATM   14  C   UNL     1     -12.159  11.564  69.906  1.00  0.00    -0.316 A  
HETATM   15  C   UNL     1     -11.917  12.917  69.629  1.00  0.00    -0.358 A  
HETATM   16  C   UNL     1     -12.322  13.922  70.514  1.00  0.00    -0.369 A  
HETATM   17 CL   UNL     1     -11.999  15.561  70.070  1.00  0.00    -0.359 Cl 
HETATM   18  C   UNL     1     -12.962  13.578  71.704  1.00  0.00    -0.359 A  
HETATM   19  C   UNL     1     -13.181  12.230  72.005  1.00  0.00    -0.508 A  
HETATM   20 CL   UNL     1     -13.497  14.761  72.841  1.00  0.00    -0.556 Cl 
HETATM   21  C   UNL     1     -12.771  11.226  71.116  1.00  0.00    -0.492 A  
ENDBRANCH  12  14
ENDBRANCH  10  12
ENDBRANCH   8  10
ENDBRANCH   5   8
TORSDOF 4
ENDMDL
MODEL       32
REMARK 921   NORMALIZED FREE ENERGY PREDICTED BY IDOCK:   -5.55 KCAL/MOL
REMARK 922        TOTAL FREE ENERGY PREDICTED BY IDOCK:   -7.46 KCAL/MOL
REMARK 923 INTER-LIGAND FREE ENERGY PREDICTED BY IDOCK:   -7.00 KCAL/MOL
REMARK 924 INTRA-LIGAND FREE ENERGY PREDICTED BY IDOCK:   -0.46 KCAL/MOL
REMARK 927      BINDING AFFINITY PREDICTED BY RF-SCORE:    0.00 PKD
ROOT
HETATM    1 CL   UNL     1      -7.252  21.109  67.233  1.00  0.00    -0.379 Cl 
HETATM    2  C   UNL     1      -8.367  19.800  67.254  1.00  0.00    -0.312 A  
HETATM    3  C   UNL     1      -9.719  20.051  67.444  1.00  0.00    -0.550 A  
HETATM    4  C   UNL     1     -10.623  18.986  67.450  1.00  0.00    -0.559 A  
HETATM    5  C   UNL     1     -10.193  17.667  67.253  1.00  0.00    -0.343 A  
HETATM    6  C   UNL     1      -7.914  18.492  67.083  1.00  0.00    -0.247 A  
HETATM    7  C   UNL     1      -8.824  17.426  67.096  1.00  0.00    -0.242 A  
ENDROOT
BRANCH   5   8
HETATM    8  N   UNL     1     -11.089  16.569  67.223  1.00  0.00    -0.074 N  
HETATM    9  H   UNL     1     -11.517  16.322  66.331  1.00  0.00     0.000 HD 
BRANCH   8  10
HETATM   10  C   UNL     1     -11.418  15.811  68.335  1.00  0.00    -0.365 C  
HETATM   11  O   UNL     1     -11.114  16.122  69.483  1.00  0.00    -0.304 OA 
BRANCH  10  12
HETATM   12  N   UNL     1     -12.127  14.662  68.021  1.00  0.00    -0.582 N  
HETATM   13  H   UNL     1     -13.056  14.546  68.426  1.00  0.00     0.000 HD 
BRANCH  12  14
HETATM   14  C   UNL     1     -11.636  13.640  67.171  1.00  0.00    -0.361 A  
HETATM   15  C   UNL     1     -12.219  13.345  65.931  1.00  0.00    -0.502 A  
HETATM   16  C   UNL     1     -11.690  12.353  65.098  1.00  0.00    -0.382 A  
HETATM   17 CL   UNL     1     -12.468  12.082  63.578  1.00  0.00    -0.682 Cl 
HETATM   18  C   UNL     1     -10.575  11.627  65.512  1.00  0.00    -0.279 A  
HETATM   19  C   UNL     1     -10.003  11.890  66.761  1.00  0.00    -0.215 A  
HETATM   20 CL   UNL     1      -9.861  10.393  64.538  1.00  0.00    -0.394 Cl 
HETATM   21  C   UNL     1     -10.537  12.885  67.592  1.00  0.00    -0.232 A  
ENDBRANCH  12  14
ENDBRANCH  10  12
ENDBRANCH   8  10
ENDBRANCH   5   8
TORSDOF 4
ENDMDL
MODEL       33
REMARK 921   NORMALIZED FREE ENERGY PREDICTED BY IDOCK:   -5.54 KCAL/MOL
REMARK 922        TOTAL FREE ENERGY PREDICTED BY IDOCK:   -7.45 KCAL/MOL
REMARK 923 INTER-LIGAND FREE ENERGY PREDICTED BY IDOCK:   -6.86 KCAL/MOL
REMARK 924 INTRA-LIGAND FREE ENERGY PREDICTED BY IDOCK:   -0.59 KCAL/MOL
REMARK 927      BINDING AFFINITY PREDICTED BY RF-SCORE:    0.00 PKD
ROOT
HETATM    1 CL   UNL     1      -8.468  19.363  67.829  1.00  0.00    -0.337 Cl 
HETATM    2  C   UNL     1      -9.095  18.016  66.963  1.00  0.00    -0.258 A  
HETATM    3  C   UNL     1     -10.240  18.165  66.192  1.00  0.00    -0.372 A  
HETATM    4  C   UNL     1     -10.740  17.072  65.482  1.00  0.00    -0.146 A  
HETATM    5  C   UNL     1     -10.099  15.826  65.519  1.00  0.00    -0.351 A  
HETATM    6  C   UNL     1      -8.457  16.778  67.036  1.00  0.00    -0.225 A  
HETATM    7  C   UNL     1      -8.965  15.682  66.325  1.00  0.00    -0.377 A  
ENDROOT
BRANCH   5   8
HETATM    8  N   UNL     1     -10.563  14.707  64.785  1.00  0.00    -0.561 N  
HETATM    9  H   UNL     1      -9.876  14.134  64.296  1.00  0.00     0.000 HD 
BRANCH   8  10
HETATM   10  C   UNL     1     -11.897  14.344  64.692  1.00  0.00    -0.451 C  
HETATM   11  O   UNL     1     -12.526  14.332  63.638  1.00  0.00    -0.816 OA 
BRANCH  10  12
HETATM   12  N   UNL     1     -12.453  13.995  65.912  1.00  0.00    -0.491 N  
HETATM   13  H   UNL     1     -13.315  14.460  66.198  1.00  0.00     0.000 HD 
BRANCH  12  14
HETATM   14  C   UNL     1     -11.893  13.029  66.786  1.00  0.00    -0.388 A  
HETATM   15  C   UNL     1     -11.462  11.771  66.342  1.00  0.00    -0.309 A  
HETATM   16  C   UNL     1     -10.881  10.851  67.222  1.00  0.00    -0.287 A  
HETATM   17 CL   UNL     1     -10.361   9.336  66.573  1.00  0.00    -0.308 Cl 
HETATM   18  C   UNL     1     -10.744  11.178  68.570  1.00  0.00    -0.201 A  
HETATM   19  C   UNL     1     -11.198  12.418  69.030  1.00  0.00    -0.320 A  
HETATM   20 CL   UNL     1     -10.031  10.100  69.715  1.00  0.00    -0.266 Cl 
HETATM   21  C   UNL     1     -11.780  13.336  68.145  1.00  0.00    -0.397 A  
ENDBRANCH  12  14
ENDBRANCH  10  12
ENDBRANCH   8  10
ENDBRANCH   5   8
TORSDOF 4
ENDMDL
MODEL       34
REMARK 921   NORMALIZED FREE ENERGY PREDICTED BY IDOCK:   -5.52 KCAL/MOL
REMARK 922        TOTAL FREE ENERGY PREDICTED BY IDOCK:   -7.42 KCAL/MOL
REMARK 923 INTER-LIGAND FREE ENERGY PREDICTED BY IDOCK:   -6.98 KCAL/MOL
REMARK 924 INTRA-LIGAND FREE ENERGY PREDICTED BY IDOCK:   -0.45 KCAL/MOL
REMARK 927      BINDING AFFINITY PREDICTED BY RF-SCORE:    0.00 PKD
ROOT
HETATM    1 CL   UNL     1      -8.010   6.732  68.596  1.00  0.00    -0.117 Cl 
HETATM    2  C   UNL     1      -9.269   7.192  69.673  1.00  0.00    -0.146 A  
HETATM    3  C   UNL     1     -10.424   6.426  69.750  1.00  0.00    -0.266 A  
HETATM    4  C   UNL     1     -11.439   6.797  70.634  1.00  0.00    -0.403 A  
HETATM    5  C   UNL     1     -11.309   7.922  71.460  1.00  0.00    -0.256 A  
HETATM    6  C   UNL     1      -9.129   8.331  70.466  1.00  0.00    -0.154 A  
HETATM    7  C   UNL     1     -10.154   8.703  71.349  1.00  0.00    -0.325 A  
ENDROOT
BRANCH   5   8
HETATM    8  N   UNL     1     -12.307   8.307  72.389  1.00  0.00    -0.494 N  
HETATM    9  H   UNL     1     -12.168   8.067  73.370  1.00  0.00     0.000 HD 
BRANCH   8  10
HETATM   10  C   UNL     1     -13.462   8.990  72.042  1.00  0.00    -0.442 C  
HETATM   11  O   UNL     1     -14.356   8.507  71.354  1.00  0.00    -0.405 OA 
BRANCH  10  12
HETATM   12  N   UNL     1     -13.507  10.277  72.553  1.00  0.00    -0.513 N  
HETATM   13  H   UNL     1     -13.843  10.403  73.508  1.00  0.00     0.000 HD 
BRANCH  12  14
HETATM   14  C   UNL     1     -13.115  11.428  71.826  1.00  0.00    -0.418 A  
HETATM   15  C   UNL     1     -13.487  12.725  72.206  1.00  0.00    -0.591 A  
HETATM   16  C   UNL     1     -13.056  13.845  71.488  1.00  0.00    -0.365 A  
HETATM   17 CL   UNL     1     -13.551  15.401  72.052  1.00  0.00    -0.534 Cl 
HETATM   18  C   UNL     1     -12.256  13.674  70.359  1.00  0.00    -0.363 A  
HETATM   19  C   UNL     1     -11.903  12.384  69.951  1.00  0.00    -0.376 A  
HETATM   20 CL   UNL     1     -11.678  15.006  69.424  1.00  0.00    -0.329 Cl 
HETATM   21  C   UNL     1     -12.339  11.264  70.674  1.00  0.00    -0.477 A  
ENDBRANCH  12  14
ENDBRANCH  10  12
ENDBRANCH   8  10
ENDBRANCH   5   8
TORSDOF 4
ENDMDL
MODEL       35
REMARK 921   NORMALIZED FREE ENERGY PREDICTED BY IDOCK:   -5.52 KCAL/MOL
REMARK 922        TOTAL FREE ENERGY PREDICTED BY IDOCK:   -7.42 KCAL/MOL
REMARK 923 INTER-LIGAND FREE ENERGY PREDICTED BY IDOCK:   -7.05 KCAL/MOL
REMARK 924 INTRA-LIGAND FREE ENERGY PREDICTED BY IDOCK:   -0.37 KCAL/MOL
REMARK 927      BINDING AFFINITY PREDICTED BY RF-SCORE:    0.00 PKD
ROOT
HETATM    1 CL   UNL     1     -10.565   5.476  74.127  1.00  0.00    -0.290 Cl 
HETATM    2  C   UNL     1     -11.011   6.664  72.967  1.00  0.00    -0.247 A  
HETATM    3  C   UNL     1     -12.015   6.388  72.049  1.00  0.00    -0.375 A  
HETATM    4  C   UNL     1     -12.381   7.360  71.116  1.00  0.00    -0.349 A  
HETATM    5  C   UNL     1     -11.764   8.618  71.096  1.00  0.00    -0.288 A  
HETATM    6  C   UNL     1     -10.364   7.900  72.948  1.00  0.00    -0.413 A  
HETATM    7  C   UNL     1     -10.731   8.871  72.005  1.00  0.00    -0.389 A  
ENDROOT
BRANCH   5   8
HETATM    8  N   UNL     1     -12.134   9.635  70.181  1.00  0.00    -0.467 N  
HETATM    9  H   UNL     1     -12.356   9.363  69.224  1.00  0.00     0.000 HD 
BRANCH   8  10
HETATM   10  C   UNL     1     -12.211  10.979  70.511  1.00  0.00    -0.381 C  
HETATM   11  O   UNL     1     -13.043  11.440  71.287  1.00  0.00    -0.342 OA 
BRANCH  10  12
HETATM   12  N   UNL     1     -11.252  11.752  69.878  1.00  0.00    -0.487 N  
HETATM   13  H   UNL     1     -10.380  11.936  70.373  1.00  0.00     0.000 HD 
BRANCH  12  14
HETATM   14  C   UNL     1     -11.413  12.301  68.581  1.00  0.00    -0.307 A  
HETATM   15  C   UNL     1     -11.085  11.593  67.416  1.00  0.00    -0.337 A  
HETATM   16  C   UNL     1     -11.287  12.149  66.148  1.00  0.00    -0.361 A  
HETATM   17 CL   UNL     1     -10.873  11.187  64.774  1.00  0.00    -0.326 Cl 
HETATM   18  C   UNL     1     -11.806  13.439  66.035  1.00  0.00    -0.383 A  
HETATM   19  C   UNL     1     -12.108  14.166  67.190  1.00  0.00    -0.432 A  
HETATM   20 CL   UNL     1     -12.091  14.189  64.506  1.00  0.00    -0.469 Cl 
HETATM   21  C   UNL     1     -11.902  13.604  68.459  1.00  0.00    -0.406 A  
ENDBRANCH  12  14
ENDBRANCH  10  12
ENDBRANCH   8  10
ENDBRANCH   5   8
TORSDOF 4
ENDMDL
MODEL       36
REMARK 921   NORMALIZED FREE ENERGY PREDICTED BY IDOCK:   -5.52 KCAL/MOL
REMARK 922        TOTAL FREE ENERGY PREDICTED BY IDOCK:   -7.42 KCAL/MOL
REMARK 923 INTER-LIGAND FREE ENERGY PREDICTED BY IDOCK:   -6.86 KCAL/MOL
REMARK 924 INTRA-LIGAND FREE ENERGY PREDICTED BY IDOCK:   -0.56 KCAL/MOL
REMARK 927      BINDING AFFINITY PREDICTED BY RF-SCORE:    0.00 PKD
ROOT
HETATM    1 CL   UNL     1     -10.374   7.286  66.884  1.00  0.00    -0.356 Cl 
HETATM    2  C   UNL     1     -10.401   9.003  66.977  1.00  0.00    -0.269 A  
HETATM    3  C   UNL     1     -10.815   9.623  68.147  1.00  0.00    -0.241 A  
HETATM    4  C   UNL     1     -10.825  11.018  68.222  1.00  0.00    -0.261 A  
HETATM    5  C   UNL     1     -10.410  11.806  67.140  1.00  0.00    -0.215 A  
HETATM    6  C   UNL     1     -10.010   9.768  65.878  1.00  0.00    -0.345 A  
HETATM    7  C   UNL     1     -10.027  11.169  65.955  1.00  0.00    -0.280 A  
ENDROOT
BRANCH   5   8
HETATM    8  N   UNL     1     -10.380  13.222  67.194  1.00  0.00    -0.247 N  
HETATM    9  H   UNL     1      -9.472  13.680  67.263  1.00  0.00     0.000 HD 
BRANCH   8  10
HETATM   10  C   UNL     1     -11.512  14.020  67.161  1.00  0.00    -0.352 C  
HETATM   11  O   UNL     1     -12.483  13.791  66.446  1.00  0.00    -0.423 OA 
BRANCH  10  12
HETATM   12  N   UNL     1     -11.439  15.106  68.018  1.00  0.00    -0.336 N  
HETATM   13  H   UNL     1     -11.139  16.001  67.635  1.00  0.00     0.000 HD 
BRANCH  12  14
HETATM   14  C   UNL     1     -11.758  15.043  69.398  1.00  0.00    -0.326 A  
HETATM   15  C   UNL     1     -12.395  13.935  69.975  1.00  0.00    -0.378 A  
HETATM   16  C   UNL     1     -12.666  13.887  71.347  1.00  0.00    -0.365 A  
HETATM   17 CL   UNL     1     -13.433  12.467  71.965  1.00  0.00    -0.551 Cl 
HETATM   18  C   UNL     1     -12.317  14.966  72.157  1.00  0.00    -0.351 A  
HETATM   19  C   UNL     1     -11.710  16.090  71.588  1.00  0.00    -0.583 A  
HETATM   20 CL   UNL     1     -12.613  14.978  73.859  1.00  0.00    -0.658 Cl 
HETATM   21  C   UNL     1     -11.442  16.133  70.212  1.00  0.00    -0.319 A  
ENDBRANCH  12  14
ENDBRANCH  10  12
ENDBRANCH   8  10
ENDBRANCH   5   8
TORSDOF 4
ENDMDL
MODEL       37
REMARK 921   NORMALIZED FREE ENERGY PREDICTED BY IDOCK:   -5.51 KCAL/MOL
REMARK 922        TOTAL FREE ENERGY PREDICTED BY IDOCK:   -7.41 KCAL/MOL
REMARK 923 INTER-LIGAND FREE ENERGY PREDICTED BY IDOCK:   -7.04 KCAL/MOL
REMARK 924 INTRA-LIGAND FREE ENERGY PREDICTED BY IDOCK:   -0.37 KCAL/MOL
REMARK 927      BINDING AFFINITY PREDICTED BY RF-SCORE:    0.00 PKD
ROOT
HETATM    1 CL   UNL     1     -12.541  15.962  74.528  1.00  0.00    -0.691 Cl 
HETATM    2  C   UNL     1     -12.473  15.534  72.864  1.00  0.00    -0.424 A  
HETATM    3  C   UNL     1     -12.956  14.300  72.449  1.00  0.00    -0.478 A  
HETATM    4  C   UNL     1     -12.909  13.961  71.096  1.00  0.00    -0.423 A  
HETATM    5  C   UNL     1     -12.396  14.851  70.141  1.00  0.00    -0.327 A  
HETATM    6  C   UNL     1     -11.934  16.423  71.934  1.00  0.00    -0.392 A  
HETATM    7  C   UNL     1     -11.884  16.077  70.576  1.00  0.00    -0.314 A  
ENDROOT
BRANCH   5   8
HETATM    8  N   UNL     1     -12.364  14.548  68.757  1.00  0.00    -0.586 N  
HETATM    9  H   UNL     1     -13.141  14.865  68.178  1.00  0.00     0.000 HD 
BRANCH   8  10
HETATM   10  C   UNL     1     -11.338  13.848  68.144  1.00  0.00    -0.295 C  
HETATM   11  O   UNL     1     -10.168  14.221  68.141  1.00  0.00    -0.222 OA 
BRANCH  10  12
HETATM   12  N   UNL     1     -11.764  12.679  67.535  1.00  0.00    -0.363 N  
HETATM   13  H   UNL     1     -12.549  12.178  67.952  1.00  0.00     0.000 HD 
BRANCH  12  14
HETATM   14  C   UNL     1     -11.172  12.138  66.366  1.00  0.00    -0.331 A  
HETATM   15  C   UNL     1     -10.238  11.093  66.408  1.00  0.00    -0.279 A  
HETATM   16  C   UNL     1      -9.696  10.557  65.235  1.00  0.00    -0.270 A  
HETATM   17 CL   UNL     1      -8.570   9.255  65.392  1.00  0.00    -0.161 Cl 
HETATM   18  C   UNL     1     -10.074  11.080  63.999  1.00  0.00    -0.350 A  
HETATM   19  C   UNL     1     -10.981  12.142  63.946  1.00  0.00    -0.463 A  
HETATM   20 CL   UNL     1      -9.454  10.466  62.508  1.00  0.00    -0.311 Cl 
HETATM   21  C   UNL     1     -11.520  12.677  65.125  1.00  0.00    -0.363 A  
ENDBRANCH  12  14
ENDBRANCH  10  12
ENDBRANCH   8  10
ENDBRANCH   5   8
TORSDOF 4
ENDMDL
MODEL       38
REMARK 921   NORMALIZED FREE ENERGY PREDICTED BY IDOCK:   -5.50 KCAL/MOL
REMARK 922        TOTAL FREE ENERGY PREDICTED BY IDOCK:   -7.39 KCAL/MOL
REMARK 923 INTER-LIGAND FREE ENERGY PREDICTED BY IDOCK:   -7.25 KCAL/MOL
REMARK 924 INTRA-LIGAND FREE ENERGY PREDICTED BY IDOCK:   -0.14 KCAL/MOL
REMARK 927      BINDING AFFINITY PREDICTED BY RF-SCORE:    0.00 PKD
ROOT
HETATM    1 CL   UNL     1      -7.323  20.480  66.973  1.00  0.00    -0.359 Cl 
HETATM    2  C   UNL     1      -8.358  19.140  66.673  1.00  0.00    -0.300 A  
HETATM    3  C   UNL     1      -9.735  19.307  66.732  1.00  0.00    -0.413 A  
HETATM    4  C   UNL     1     -10.572  18.219  66.478  1.00  0.00    -0.313 A  
HETATM    5  C   UNL     1     -10.049  16.960  66.149  1.00  0.00    -0.333 A  
HETATM    6  C   UNL     1      -7.816  17.890  66.375  1.00  0.00    -0.307 A  
HETATM    7  C   UNL     1      -8.660  16.799  66.125  1.00  0.00    -0.299 A  
ENDROOT
BRANCH   5   8
HETATM    8  N   UNL     1     -10.872  15.845  65.855  1.00  0.00    -0.276 N  
HETATM    9  H   UNL     1     -10.888  15.072  66.520  1.00  0.00     0.000 HD 
BRANCH   8  10
HETATM   10  C   UNL     1     -11.656  15.743  64.718  1.00  0.00    -0.173 C  
HETATM   11  O   UNL     1     -11.753  16.632  63.878  1.00  0.00    -1.153 OA 
BRANCH  10  12
HETATM   12  N   UNL     1     -12.323  14.531  64.623  1.00  0.00    -0.553 N  
HETATM   13  H   UNL     1     -13.294  14.541  64.311  1.00  0.00     0.000 HD 
BRANCH  12  14
HETATM   14  C   UNL     1     -11.732  13.281  64.934  1.00  0.00    -0.342 A  
HETATM   15  C   UNL     1     -11.736  12.747  66.230  1.00  0.00    -0.460 A  
HETATM   16  C   UNL     1     -11.175  11.494  66.501  1.00  0.00    -0.259 A  
HETATM   17 CL   UNL     1     -11.251  10.914  68.127  1.00  0.00    -0.336 Cl 
HETATM   18  C   UNL     1     -10.583  10.766  65.469  1.00  0.00    -0.135 A  
HETATM   19  C   UNL     1     -10.547  11.301  64.178  1.00  0.00    -0.437 A  
HETATM   20 CL   UNL     1      -9.878   9.210  65.723  1.00  0.00    -0.329 Cl 
HETATM   21  C   UNL     1     -11.109  12.558  63.913  1.00  0.00    -0.476 A  
ENDBRANCH  12  14
ENDBRANCH  10  12
ENDBRANCH   8  10
ENDBRANCH   5   8
TORSDOF 4
ENDMDL
MODEL       39
REMARK 921   NORMALIZED FREE ENERGY PREDICTED BY IDOCK:   -5.48 KCAL/MOL
REMARK 922        TOTAL FREE ENERGY PREDICTED BY IDOCK:   -7.37 KCAL/MOL
REMARK 923 INTER-LIGAND FREE ENERGY PREDICTED BY IDOCK:   -6.81 KCAL/MOL
REMARK 924 INTRA-LIGAND FREE ENERGY PREDICTED BY IDOCK:   -0.56 KCAL/MOL
REMARK 927      BINDING AFFINITY PREDICTED BY RF-SCORE:    0.00 PKD
ROOT
HETATM    1 CL   UNL     1      -9.728  10.333  62.626  1.00  0.00    -0.255 Cl 
HETATM    2  C   UNL     1     -10.384  10.911  64.106  1.00  0.00    -0.364 A  
HETATM    3  C   UNL     1      -9.981  10.343  65.307  1.00  0.00    -0.376 A  
HETATM    4  C   UNL     1     -10.508  10.822  66.508  1.00  0.00    -0.299 A  
HETATM    5  C   UNL     1     -11.427  11.880  66.527  1.00  0.00    -0.314 A  
HETATM    6  C   UNL     1     -11.319  11.946  64.100  1.00  0.00    -0.455 A  
HETATM    7  C   UNL     1     -11.850  12.421  65.308  1.00  0.00    -0.451 A  
ENDROOT
BRANCH   5   8
HETATM    8  N   UNL     1     -11.956  12.410  67.730  1.00  0.00    -0.285 N  
HETATM    9  H   UNL     1     -12.968  12.515  67.804  1.00  0.00     0.000 HD 
BRANCH   8  10
HETATM   10  C   UNL     1     -11.180  12.792  68.812  1.00  0.00    -0.283 C  
HETATM   11  O   UNL     1     -10.123  13.408  68.705  1.00  0.00    -0.225 OA 
BRANCH  10  12
HETATM   12  N   UNL     1     -11.718  12.412  70.030  1.00  0.00    -0.510 N  
HETATM   13  H   UNL     1     -12.066  13.142  70.651  1.00  0.00     0.000 HD 
BRANCH  12  14
HETATM   14  C   UNL     1     -11.811  11.066  70.465  1.00  0.00    -0.367 A  
HETATM   15  C   UNL     1     -12.901  10.586  71.204  1.00  0.00    -0.513 A  
HETATM   16  C   UNL     1     -12.982   9.243  71.590  1.00  0.00    -0.374 A  
HETATM   17 CL   UNL     1     -14.377   8.745  72.479  1.00  0.00    -0.451 Cl 
HETATM   18  C   UNL     1     -11.953   8.365  71.251  1.00  0.00    -0.288 A  
HETATM   19  C   UNL     1     -10.846   8.839  70.540  1.00  0.00    -0.268 A  
HETATM   20 CL   UNL     1     -11.985   6.694  71.684  1.00  0.00    -0.379 Cl 
HETATM   21  C   UNL     1     -10.770  10.186  70.158  1.00  0.00    -0.355 A  
ENDBRANCH  12  14
ENDBRANCH  10  12
ENDBRANCH   8  10
ENDBRANCH   5   8
TORSDOF 4
ENDMDL
MODEL       40
REMARK 921   NORMALIZED FREE ENERGY PREDICTED BY IDOCK:   -5.47 KCAL/MOL
REMARK 922        TOTAL FREE ENERGY PREDICTED BY IDOCK:   -7.35 KCAL/MOL
REMARK 923 INTER-LIGAND FREE ENERGY PREDICTED BY IDOCK:   -7.02 KCAL/MOL
REMARK 924 INTRA-LIGAND FREE ENERGY PREDICTED BY IDOCK:   -0.33 KCAL/MOL
REMARK 927      BINDING AFFINITY PREDICTED BY RF-SCORE:    0.00 PKD
ROOT
HETATM    1 CL   UNL     1     -11.464   6.153  72.448  1.00  0.00    -0.341 Cl 
HETATM    2  C   UNL     1     -11.594   7.752  71.830  1.00  0.00    -0.287 A  
HETATM    3  C   UNL     1     -12.626   8.575  72.262  1.00  0.00    -0.438 A  
HETATM    4  C   UNL     1     -12.723   9.877  71.765  1.00  0.00    -0.523 A  
HETATM    5  C   UNL     1     -11.788  10.376  70.848  1.00  0.00    -0.377 A  
HETATM    6  C   UNL     1     -10.669   8.220  70.898  1.00  0.00    -0.250 A  
HETATM    7  C   UNL     1     -10.773   9.526  70.397  1.00  0.00    -0.341 A  
ENDROOT
BRANCH   5   8
HETATM    8  N   UNL     1     -11.840  11.702  70.350  1.00  0.00    -0.474 N  
HETATM    9  H   UNL     1     -12.145  12.441  70.983  1.00  0.00     0.000 HD 
BRANCH   8  10
HETATM   10  C   UNL     1     -11.503  12.052  69.053  1.00  0.00    -0.300 C  
HETATM   11  O   UNL     1     -12.119  11.667  68.063  1.00  0.00    -0.597 OA 
BRANCH  10  12
HETATM   12  N   UNL     1     -10.398  12.885  68.983  1.00  0.00    -0.436 N  
HETATM   13  H   UNL     1      -9.489  12.500  69.240  1.00  0.00     0.000 HD 
BRANCH  12  14
HETATM   14  C   UNL     1     -10.458  14.241  68.576  1.00  0.00    -0.253 A  
HETATM   15  C   UNL     1     -10.543  14.622  67.229  1.00  0.00    -0.284 A  
HETATM   16  C   UNL     1     -10.635  15.968  66.859  1.00  0.00    -0.300 A  
HETATM   17 CL   UNL     1     -10.760  16.332  65.175  1.00  0.00    -0.403 Cl 
HETATM   18  C   UNL     1     -10.623  16.956  67.843  1.00  0.00    -0.361 A  
HETATM   19  C   UNL     1     -10.507  16.590  69.188  1.00  0.00    -0.317 A  
HETATM   20 CL   UNL     1     -10.741  18.637  67.466  1.00  0.00    -0.474 Cl 
HETATM   21  C   UNL     1     -10.414  15.240  69.553  1.00  0.00    -0.265 A  
ENDBRANCH  12  14
ENDBRANCH  10  12
ENDBRANCH   8  10
ENDBRANCH   5   8
TORSDOF 4
ENDMDL
MODEL       41
REMARK 921   NORMALIZED FREE ENERGY PREDICTED BY IDOCK:   -5.46 KCAL/MOL
REMARK 922        TOTAL FREE ENERGY PREDICTED BY IDOCK:   -7.35 KCAL/MOL
REMARK 923 INTER-LIGAND FREE ENERGY PREDICTED BY IDOCK:   -6.89 KCAL/MOL
REMARK 924 INTRA-LIGAND FREE ENERGY PREDICTED BY IDOCK:   -0.47 KCAL/MOL
REMARK 927      BINDING AFFINITY PREDICTED BY RF-SCORE:    0.00 PKD
ROOT
HETATM    1 CL   UNL     1      -6.807  19.719  69.321  1.00  0.00    -0.380 Cl 
HETATM    2  C   UNL     1      -7.544  18.606  68.237  1.00  0.00    -0.284 A  
HETATM    3  C   UNL     1      -8.918  18.412  68.278  1.00  0.00    -0.330 A  
HETATM    4  C   UNL     1      -9.513  17.515  67.388  1.00  0.00    -0.255 A  
HETATM    5  C   UNL     1      -8.752  16.816  66.442  1.00  0.00    -0.302 A  
HETATM    6  C   UNL     1      -6.763  17.900  67.322  1.00  0.00    -0.192 A  
HETATM    7  C   UNL     1      -7.365  16.997  66.434  1.00  0.00    -0.328 A  
ENDROOT
BRANCH   5   8
HETATM    8  N   UNL     1      -9.330  15.923  65.506  1.00  0.00    -0.120 N  
HETATM    9  H   UNL     1      -8.761  15.149  65.166  1.00  0.00     0.000 HD 
BRANCH   8  10
HETATM   10  C   UNL     1     -10.624  16.040  65.026  1.00  0.00    -0.316 C  
HETATM   11  O   UNL     1     -11.102  17.092  64.613  1.00  0.00    -1.036 OA 
BRANCH  10  12
HETATM   12  N   UNL     1     -11.327  14.847  65.057  1.00  0.00    -0.382 N  
HETATM   13  H   UNL     1     -11.768  14.526  64.195  1.00  0.00     0.000 HD 
BRANCH  12  14
HETATM   14  C   UNL     1     -11.469  14.046  66.219  1.00  0.00    -0.351 A  
HETATM   15  C   UNL     1     -11.831  14.580  67.463  1.00  0.00    -0.404 A  
HETATM   16  C   UNL     1     -11.997  13.760  68.585  1.00  0.00    -0.366 A  
HETATM   17 CL   UNL     1     -12.467  14.512  70.068  1.00  0.00    -0.372 Cl 
HETATM   18  C   UNL     1     -11.781  12.387  68.473  1.00  0.00    -0.326 A  
HETATM   19  C   UNL     1     -11.390  11.847  67.244  1.00  0.00    -0.393 A  
HETATM   20 CL   UNL     1     -11.973  11.310  69.809  1.00  0.00    -0.399 Cl 
HETATM   21  C   UNL     1     -11.224  12.674  66.124  1.00  0.00    -0.350 A  
ENDBRANCH  12  14
ENDBRANCH  10  12
ENDBRANCH   8  10
ENDBRANCH   5   8
TORSDOF 4
ENDMDL
MODEL       42
REMARK 921   NORMALIZED FREE ENERGY PREDICTED BY IDOCK:   -5.46 KCAL/MOL
REMARK 922        TOTAL FREE ENERGY PREDICTED BY IDOCK:   -7.35 KCAL/MOL
REMARK 923 INTER-LIGAND FREE ENERGY PREDICTED BY IDOCK:   -7.02 KCAL/MOL
REMARK 924 INTRA-LIGAND FREE ENERGY PREDICTED BY IDOCK:   -0.34 KCAL/MOL
REMARK 927      BINDING AFFINITY PREDICTED BY RF-SCORE:    0.00 PKD
ROOT
HETATM    1 CL   UNL     1     -12.268   7.176  72.067  1.00  0.00    -0.328 Cl 
HETATM    2  C   UNL     1     -11.947   8.678  71.295  1.00  0.00    -0.293 A  
HETATM    3  C   UNL     1     -10.907   8.774  70.381  1.00  0.00    -0.256 A  
HETATM    4  C   UNL     1     -10.655   9.993  69.748  1.00  0.00    -0.301 A  
HETATM    5  C   UNL     1     -11.444  11.122  70.006  1.00  0.00    -0.292 A  
HETATM    6  C   UNL     1     -12.727   9.796  71.588  1.00  0.00    -0.517 A  
HETATM    7  C   UNL     1     -12.468  11.020  70.954  1.00  0.00    -0.509 A  
ENDROOT
BRANCH   5   8
HETATM    8  N   UNL     1     -11.234  12.364  69.358  1.00  0.00    -0.430 N  
HETATM    9  H   UNL     1     -10.615  13.040  69.804  1.00  0.00     0.000 HD 
BRANCH   8  10
HETATM   10  C   UNL     1     -11.821  12.714  68.152  1.00  0.00    -0.315 C  
HETATM   11  O   UNL     1     -11.968  11.933  67.217  1.00  0.00    -0.605 OA 
BRANCH  10  12
HETATM   12  N   UNL     1     -12.227  14.038  68.108  1.00  0.00    -0.536 N  
HETATM   13  H   UNL     1     -13.181  14.257  68.396  1.00  0.00     0.000 HD 
BRANCH  12  14
HETATM   14  C   UNL     1     -11.394  15.105  67.687  1.00  0.00    -0.321 A  
HETATM   15  C   UNL     1     -11.200  16.260  68.457  1.00  0.00    -0.359 A  
HETATM   16  C   UNL     1     -10.345  17.281  68.030  1.00  0.00    -0.353 A  
HETATM   17 CL   UNL     1     -10.154  18.654  69.063  1.00  0.00    -0.386 Cl 
HETATM   18  C   UNL     1      -9.685  17.163  66.808  1.00  0.00    -0.271 A  
HETATM   19  C   UNL     1      -9.895  16.030  66.016  1.00  0.00    -0.365 A  
HETATM   20 CL   UNL     1      -8.608  18.377  66.217  1.00  0.00    -0.258 Cl 
HETATM   21  C   UNL     1     -10.754  15.009  66.448  1.00  0.00    -0.322 A  
ENDBRANCH  12  14
ENDBRANCH  10  12
ENDBRANCH   8  10
ENDBRANCH   5   8
TORSDOF 4
ENDMDL
MODEL       43
REMARK 921   NORMALIZED FREE ENERGY PREDICTED BY IDOCK:   -5.46 KCAL/MOL
REMARK 922        TOTAL FREE ENERGY PREDICTED BY IDOCK:   -7.34 KCAL/MOL
REMARK 923 INTER-LIGAND FREE ENERGY PREDICTED BY IDOCK:   -7.07 KCAL/MOL
REMARK 924 INTRA-LIGAND FREE ENERGY PREDICTED BY IDOCK:   -0.27 KCAL/MOL
REMARK 927      BINDING AFFINITY PREDICTED BY RF-SCORE:    0.00 PKD
ROOT
HETATM    1 CL   UNL     1     -12.108   9.989  71.450  1.00  0.00    -0.481 Cl 
HETATM    2  C   UNL     1     -12.115  11.359  70.411  1.00  0.00    -0.384 A  
HETATM    3  C   UNL     1     -12.406  12.614  70.928  1.00  0.00    -0.352 A  
HETATM    4  C   UNL     1     -12.400  13.725  70.083  1.00  0.00    -0.390 A  
HETATM    5  C   UNL     1     -12.090  13.602  68.721  1.00  0.00    -0.297 A  
HETATM    6  C   UNL     1     -11.831  11.209  69.054  1.00  0.00    -0.418 A  
HETATM    7  C   UNL     1     -11.831  12.327  68.207  1.00  0.00    -0.367 A  
ENDROOT
BRANCH   5   8
HETATM    8  N   UNL     1     -12.045  14.715  67.845  1.00  0.00    -0.592 N  
HETATM    9  H   UNL     1     -12.889  14.947  67.321  1.00  0.00     0.000 HD 
BRANCH   8  10
HETATM   10  C   UNL     1     -10.923  15.504  67.657  1.00  0.00    -0.315 C  
HETATM   11  O   UNL     1      -9.878  15.093  67.161  1.00  0.00    -0.225 OA 
BRANCH  10  12
HETATM   12  N   UNL     1     -11.098  16.811  68.085  1.00  0.00    -0.326 N  
HETATM   13  H   UNL     1     -11.968  17.047  68.562  1.00  0.00     0.000 HD 
BRANCH  12  14
HETATM   14  C   UNL     1     -10.138  17.836  67.897  1.00  0.00    -0.342 A  
HETATM   15  C   UNL     1      -8.932  17.881  68.611  1.00  0.00    -0.262 A  
HETATM   16  C   UNL     1      -7.988  18.887  68.379  1.00  0.00    -0.338 A  
HETATM   17 CL   UNL     1      -6.523  18.841  69.294  1.00  0.00    -0.295 Cl 
HETATM   18  C   UNL     1      -8.255  19.879  67.436  1.00  0.00    -0.320 A  
HETATM   19  C   UNL     1      -9.468  19.863  66.740  1.00  0.00    -0.510 A  
HETATM   20 CL   UNL     1      -7.137  21.149  67.090  1.00  0.00    -0.389 Cl 
HETATM   21  C   UNL     1     -10.411  18.853  66.977  1.00  0.00    -0.469 A  
ENDBRANCH  12  14
ENDBRANCH  10  12
ENDBRANCH   8  10
ENDBRANCH   5   8
TORSDOF 4
ENDMDL
MODEL       44
REMARK 921   NORMALIZED FREE ENERGY PREDICTED BY IDOCK:   -5.46 KCAL/MOL
REMARK 922        TOTAL FREE ENERGY PREDICTED BY IDOCK:   -7.34 KCAL/MOL
REMARK 923 INTER-LIGAND FREE ENERGY PREDICTED BY IDOCK:   -6.85 KCAL/MOL
REMARK 924 INTRA-LIGAND FREE ENERGY PREDICTED BY IDOCK:   -0.49 KCAL/MOL
REMARK 927      BINDING AFFINITY PREDICTED BY RF-SCORE:    0.00 PKD
ROOT
HETATM    1 CL   UNL     1     -12.811  11.901  63.467  1.00  0.00    -0.587 Cl 
HETATM    2  C   UNL     1     -12.064  12.941  64.615  1.00  0.00    -0.418 A  
HETATM    3  C   UNL     1     -11.572  14.174  64.209  1.00  0.00    -0.327 A  
HETATM    4  C   UNL     1     -10.975  15.020  65.145  1.00  0.00    -0.417 A  
HETATM    5  C   UNL     1     -10.875  14.655  66.495  1.00  0.00    -0.315 A  
HETATM    6  C   UNL     1     -11.951  12.546  65.947  1.00  0.00    -0.472 A  
HETATM    7  C   UNL     1     -11.346  13.396  66.884  1.00  0.00    -0.351 A  
ENDROOT
BRANCH   5   8
HETATM    8  N   UNL     1     -10.303  15.504  67.475  1.00  0.00    -0.265 N  
HETATM    9  H   UNL     1      -9.288  15.517  67.565  1.00  0.00     0.000 HD 
BRANCH   8  10
HETATM   10  C   UNL     1     -11.043  16.316  68.318  1.00  0.00    -0.346 C  
HETATM   11  O   UNL     1     -11.544  15.927  69.369  1.00  0.00    -0.337 OA 
BRANCH  10  12
HETATM   12  N   UNL     1     -11.161  17.617  67.857  1.00  0.00    -0.105 N  
HETATM   13  H   UNL     1     -12.095  17.974  67.659  1.00  0.00     0.000 HD 
BRANCH  12  14
HETATM   14  C   UNL     1     -10.057  18.480  67.642  1.00  0.00    -0.364 A  
HETATM   15  C   UNL     1      -9.044  18.660  68.595  1.00  0.00    -0.344 A  
HETATM   16  C   UNL     1      -7.948  19.493  68.342  1.00  0.00    -0.339 A  
HETATM   17 CL   UNL     1      -6.742  19.630  69.571  1.00  0.00    -0.386 Cl 
HETATM   18  C   UNL     1      -7.866  20.174  67.128  1.00  0.00    -0.322 A  
HETATM   19  C   UNL     1      -8.885  20.026  66.182  1.00  0.00    -0.320 A  
HETATM   20 CL   UNL     1      -6.542  21.212  66.739  1.00  0.00    -0.380 Cl 
HETATM   21  C   UNL     1      -9.982  19.192  66.442  1.00  0.00    -0.458 A  
ENDBRANCH  12  14
ENDBRANCH  10  12
ENDBRANCH   8  10
ENDBRANCH   5   8
TORSDOF 4
ENDMDL
MODEL       45
REMARK 921   NORMALIZED FREE ENERGY PREDICTED BY IDOCK:   -5.43 KCAL/MOL
REMARK 922        TOTAL FREE ENERGY PREDICTED BY IDOCK:   -7.31 KCAL/MOL
REMARK 923 INTER-LIGAND FREE ENERGY PREDICTED BY IDOCK:   -6.90 KCAL/MOL
REMARK 924 INTRA-LIGAND FREE ENERGY PREDICTED BY IDOCK:   -0.42 KCAL/MOL
REMARK 927      BINDING AFFINITY PREDICTED BY RF-SCORE:    0.00 PKD
ROOT
HETATM    1 CL   UNL     1     -10.367   5.330  74.037  1.00  0.00    -0.271 Cl 
HETATM    2  C   UNL     1     -10.835   6.553  72.922  1.00  0.00    -0.258 A  
HETATM    3  C   UNL     1     -10.130   7.748  72.875  1.00  0.00    -0.363 A  
HETATM    4  C   UNL     1     -10.507   8.734  71.961  1.00  0.00    -0.414 A  
HETATM    5  C   UNL     1     -11.577   8.536  71.078  1.00  0.00    -0.279 A  
HETATM    6  C   UNL     1     -11.921   6.346  72.072  1.00  0.00    -0.375 A  
HETATM    7  C   UNL     1     -12.299   7.341  71.159  1.00  0.00    -0.381 A  
ENDROOT
BRANCH   5   8
HETATM    8  N   UNL     1     -11.964   9.505  70.119  1.00  0.00    -0.467 N  
HETATM    9  H   UNL     1     -12.403   9.179  69.258  1.00  0.00     0.000 HD 
BRANCH   8  10
HETATM   10  C   UNL     1     -11.781  10.868  70.282  1.00  0.00    -0.347 C  
HETATM   11  O   UNL     1     -12.428  11.550  71.071  1.00  0.00    -0.380 OA 
BRANCH  10  12
HETATM   12  N   UNL     1     -10.790  11.387  69.464  1.00  0.00    -0.431 N  
HETATM   13  H   UNL     1      -9.911  11.671  69.896  1.00  0.00     0.000 HD 
BRANCH  12  14
HETATM   14  C   UNL     1     -10.928  11.545  68.062  1.00  0.00    -0.231 A  
HETATM   15  C   UNL     1     -11.782  12.498  67.491  1.00  0.00    -0.439 A  
HETATM   16  C   UNL     1     -11.871  12.654  66.103  1.00  0.00    -0.418 A  
HETATM   17 CL   UNL     1     -12.936  13.873  65.498  1.00  0.00    -0.486 Cl 
HETATM   18  C   UNL     1     -11.113  11.835  65.267  1.00  0.00    -0.276 A  
HETATM   19  C   UNL     1     -10.280  10.860  65.824  1.00  0.00    -0.318 A  
HETATM   20 CL   UNL     1     -11.164  11.972  63.546  1.00  0.00    -0.512 Cl 
HETATM   21  C   UNL     1     -10.196  10.707  67.216  1.00  0.00    -0.250 A  
ENDBRANCH  12  14
ENDBRANCH  10  12
ENDBRANCH   8  10
ENDBRANCH   5   8
TORSDOF 4
ENDMDL
MODEL       46
REMARK 921   NORMALIZED FREE ENERGY PREDICTED BY IDOCK:   -5.42 KCAL/MOL
REMARK 922        TOTAL FREE ENERGY PREDICTED BY IDOCK:   -7.29 KCAL/MOL
REMARK 923 INTER-LIGAND FREE ENERGY PREDICTED BY IDOCK:   -7.18 KCAL/MOL
REMARK 924 INTRA-LIGAND FREE ENERGY PREDICTED BY IDOCK:   -0.11 KCAL/MOL
REMARK 927      BINDING AFFINITY PREDICTED BY RF-SCORE:    0.00 PKD
ROOT
HETATM    1 CL   UNL     1      -7.156  20.653  66.350  1.00  0.00    -0.274 Cl 
HETATM    2  C   UNL     1      -8.186  19.595  67.231  1.00  0.00    -0.296 A  
HETATM    3  C   UNL     1      -7.659  18.453  67.820  1.00  0.00    -0.238 A  
HETATM    4  C   UNL     1      -8.496  17.602  68.543  1.00  0.00    -0.289 A  
HETATM    5  C   UNL     1      -9.860  17.886  68.701  1.00  0.00    -0.374 A  
HETATM    6  C   UNL     1      -9.545  19.882  67.352  1.00  0.00    -0.499 A  
HETATM    7  C   UNL     1     -10.384  19.022  68.075  1.00  0.00    -0.472 A  
ENDROOT
BRANCH   5   8
HETATM    8  N   UNL     1     -10.729  17.058  69.455  1.00  0.00    -0.368 N  
HETATM    9  H   UNL     1     -10.772  17.201  70.464  1.00  0.00     0.000 HD 
BRANCH   8  10
HETATM   10  C   UNL     1     -11.524  16.068  68.902  1.00  0.00    -0.362 C  
HETATM   11  O   UNL     1     -11.399  15.660  67.751  1.00  0.00    -0.326 OA 
BRANCH  10  12
HETATM   12  N   UNL     1     -12.478  15.580  69.781  1.00  0.00    -0.581 N  
HETATM   13  H   UNL     1     -13.181  16.229  70.135  1.00  0.00     0.000 HD 
BRANCH  12  14
HETATM   14  C   UNL     1     -12.532  14.233  70.217  1.00  0.00    -0.361 A  
HETATM   15  C   UNL     1     -11.930  13.185  69.506  1.00  0.00    -0.354 A  
HETATM   16  C   UNL     1     -11.971  11.869  69.979  1.00  0.00    -0.332 A  
HETATM   17 CL   UNL     1     -11.178  10.653  69.041  1.00  0.00    -0.295 Cl 
HETATM   18  C   UNL     1     -12.638  11.584  71.169  1.00  0.00    -0.359 A  
HETATM   19  C   UNL     1     -13.269  12.616  71.872  1.00  0.00    -0.504 A  
HETATM   20 CL   UNL     1     -12.726   9.987  71.821  1.00  0.00    -0.506 Cl 
HETATM   21  C   UNL     1     -13.226  13.933  71.393  1.00  0.00    -0.392 A  
ENDBRANCH  12  14
ENDBRANCH  10  12
ENDBRANCH   8  10
ENDBRANCH   5   8
TORSDOF 4
ENDMDL
MODEL       47
REMARK 921   NORMALIZED FREE ENERGY PREDICTED BY IDOCK:   -5.41 KCAL/MOL
REMARK 922        TOTAL FREE ENERGY PREDICTED BY IDOCK:   -7.28 KCAL/MOL
REMARK 923 INTER-LIGAND FREE ENERGY PREDICTED BY IDOCK:   -6.87 KCAL/MOL
REMARK 924 INTRA-LIGAND FREE ENERGY PREDICTED BY IDOCK:   -0.42 KCAL/MOL
REMARK 927      BINDING AFFINITY PREDICTED BY RF-SCORE:    0.00 PKD
ROOT
HETATM    1 CL   UNL     1      -9.418   4.618  72.682  1.00  0.00    -0.154 Cl 
HETATM    2  C   UNL     1     -10.431   5.921  72.200  1.00  0.00    -0.207 A  
HETATM    3  C   UNL     1     -10.719   6.939  73.100  1.00  0.00    -0.338 A  
HETATM    4  C   UNL     1     -11.533   8.000  72.701  1.00  0.00    -0.465 A  
HETATM    5  C   UNL     1     -12.056   8.067  71.402  1.00  0.00    -0.305 A  
HETATM    6  C   UNL     1     -10.963   5.954  70.911  1.00  0.00    -0.335 A  
HETATM    7  C   UNL     1     -11.785   7.019  70.517  1.00  0.00    -0.359 A  
ENDROOT
BRANCH   5   8
HETATM    8  N   UNL     1     -12.860   9.147  70.958  1.00  0.00    -0.517 N  
HETATM    9  H   UNL     1     -13.726   8.929  70.464  1.00  0.00     0.000 HD 
BRANCH   8  10
HETATM   10  C   UNL     1     -12.540  10.480  71.155  1.00  0.00    -0.417 C  
HETATM   11  O   UNL     1     -13.161  11.224  71.908  1.00  0.00    -0.482 OA 
BRANCH  10  12
HETATM   12  N   UNL     1     -11.442  10.891  70.416  1.00  0.00    -0.407 N  
HETATM   13  H   UNL     1     -10.527  10.520  70.668  1.00  0.00     0.000 HD 
BRANCH  12  14
HETATM   14  C   UNL     1     -11.519  11.799  69.330  1.00  0.00    -0.306 A  
HETATM   15  C   UNL     1     -11.634  13.184  69.510  1.00  0.00    -0.347 A  
HETATM   16  C   UNL     1     -11.674  14.058  68.419  1.00  0.00    -0.354 A  
HETATM   17 CL   UNL     1     -11.794  15.750  68.748  1.00  0.00    -0.383 Cl 
HETATM   18  C   UNL     1     -11.618  13.546  67.123  1.00  0.00    -0.357 A  
HETATM   19  C   UNL     1     -11.534  12.164  66.929  1.00  0.00    -0.414 A  
HETATM   20 CL   UNL     1     -11.654  14.560  65.726  1.00  0.00    -0.350 Cl 
HETATM   21  C   UNL     1     -11.496  11.292  68.027  1.00  0.00    -0.369 A  
ENDBRANCH  12  14
ENDBRANCH  10  12
ENDBRANCH   8  10
ENDBRANCH   5   8
TORSDOF 4
ENDMDL
MODEL       48
REMARK 921   NORMALIZED FREE ENERGY PREDICTED BY IDOCK:   -5.40 KCAL/MOL
REMARK 922        TOTAL FREE ENERGY PREDICTED BY IDOCK:   -7.28 KCAL/MOL
REMARK 923 INTER-LIGAND FREE ENERGY PREDICTED BY IDOCK:   -6.92 KCAL/MOL
REMARK 924 INTRA-LIGAND FREE ENERGY PREDICTED BY IDOCK:   -0.35 KCAL/MOL
REMARK 927      BINDING AFFINITY PREDICTED BY RF-SCORE:    0.00 PKD
ROOT
HETATM    1 CL   UNL     1      -9.556   2.804  72.474  1.00  0.00    -0.168 Cl 
HETATM    2  C   UNL     1     -10.259   4.296  71.988  1.00  0.00    -0.150 A  
HETATM    3  C   UNL     1     -10.040   4.774  70.703  1.00  0.00    -0.288 A  
HETATM    4  C   UNL     1     -10.622   5.981  70.309  1.00  0.00    -0.338 A  
HETATM    5  C   UNL     1     -11.436   6.715  71.182  1.00  0.00    -0.320 A  
HETATM    6  C   UNL     1     -11.043   5.024  72.882  1.00  0.00    -0.348 A  
HETATM    7  C   UNL     1     -11.621   6.238  72.484  1.00  0.00    -0.273 A  
ENDROOT
BRANCH   5   8
HETATM    8  N   UNL     1     -12.065   7.927  70.802  1.00  0.00    -0.490 N  
HETATM    9  H   UNL     1     -13.029   7.885  70.473  1.00  0.00     0.000 HD 
BRANCH   8  10
HETATM   10  C   UNL     1     -11.447   9.165  70.851  1.00  0.00    -0.296 C  
HETATM   11  O   UNL     1     -10.417   9.385  71.482  1.00  0.00    -0.337 OA 
BRANCH  10  12
HETATM   12  N   UNL     1     -12.108  10.134  70.114  1.00  0.00    -0.452 N  
HETATM   13  H   UNL     1     -12.409   9.896  69.169  1.00  0.00     0.000 HD 
BRANCH  12  14
HETATM   14  C   UNL     1     -12.389  11.437  70.597  1.00  0.00    -0.373 A  
HETATM   15  C   UNL     1     -11.972  12.596  69.928  1.00  0.00    -0.365 A  
HETATM   16  C   UNL     1     -12.295  13.869  70.411  1.00  0.00    -0.363 A  
HETATM   17 CL   UNL     1     -11.754  15.235  69.501  1.00  0.00    -0.335 Cl 
HETATM   18  C   UNL     1     -13.028  13.994  71.591  1.00  0.00    -0.352 A  
HETATM   19  C   UNL     1     -13.423  12.845  72.284  1.00  0.00    -0.631 A  
HETATM   20 CL   UNL     1     -13.470  15.529  72.246  1.00  0.00    -0.545 Cl 
HETATM   21  C   UNL     1     -13.096  11.572  71.795  1.00  0.00    -0.503 A  
ENDBRANCH  12  14
ENDBRANCH  10  12
ENDBRANCH   8  10
ENDBRANCH   5   8
TORSDOF 4
ENDMDL
MODEL       49
REMARK 921   NORMALIZED FREE ENERGY PREDICTED BY IDOCK:   -5.40 KCAL/MOL
REMARK 922        TOTAL FREE ENERGY PREDICTED BY IDOCK:   -7.27 KCAL/MOL
REMARK 923 INTER-LIGAND FREE ENERGY PREDICTED BY IDOCK:   -6.84 KCAL/MOL
REMARK 924 INTRA-LIGAND FREE ENERGY PREDICTED BY IDOCK:   -0.43 KCAL/MOL
REMARK 927      BINDING AFFINITY PREDICTED BY RF-SCORE:    0.00 PKD
ROOT
HETATM    1 CL   UNL     1     -12.286  13.169  63.329  1.00  0.00    -0.575 Cl 
HETATM    2  C   UNL     1     -11.949  12.907  64.995  1.00  0.00    -0.405 A  
HETATM    3  C   UNL     1     -11.270  11.762  65.389  1.00  0.00    -0.310 A  
HETATM    4  C   UNL     1     -10.989  11.558  66.741  1.00  0.00    -0.347 A  
HETATM    5  C   UNL     1     -11.368  12.497  67.711  1.00  0.00    -0.296 A  
HETATM    6  C   UNL     1     -12.359  13.841  65.947  1.00  0.00    -0.516 A  
HETATM    7  C   UNL     1     -12.080  13.629  67.305  1.00  0.00    -0.385 A  
ENDROOT
BRANCH   5   8
HETATM    8  N   UNL     1     -11.070  12.334  69.088  1.00  0.00    -0.355 N  
HETATM    9  H   UNL     1     -10.114  12.509  69.396  1.00  0.00     0.000 HD 
BRANCH   8  10
HETATM   10  C   UNL     1     -12.002  11.950  70.038  1.00  0.00    -0.332 C  
HETATM   11  O   UNL     1     -12.518  12.728  70.835  1.00  0.00    -0.367 OA 
BRANCH  10  12
HETATM   12  N   UNL     1     -12.296  10.597  69.999  1.00  0.00    -0.450 N  
HETATM   13  H   UNL     1     -12.905  10.259  69.254  1.00  0.00     0.000 HD 
BRANCH  12  14
HETATM   14  C   UNL     1     -11.798   9.655  70.934  1.00  0.00    -0.323 A  
HETATM   15  C   UNL     1     -10.434   9.353  71.047  1.00  0.00    -0.392 A  
HETATM   16  C   UNL     1      -9.968   8.444  72.003  1.00  0.00    -0.284 A  
HETATM   17 CL   UNL     1      -8.266   8.157  72.078  1.00  0.00    -0.172 Cl 
HETATM   18  C   UNL     1     -10.876   7.808  72.850  1.00  0.00    -0.392 A  
HETATM   19  C   UNL     1     -12.242   8.078  72.726  1.00  0.00    -0.125 A  
HETATM   20 CL   UNL     1     -10.378   6.681  74.059  1.00  0.00    -0.381 Cl 
HETATM   21  C   UNL     1     -12.703   8.989  71.765  1.00  0.00    -0.431 A  
ENDBRANCH  12  14
ENDBRANCH  10  12
ENDBRANCH   8  10
ENDBRANCH   5   8
TORSDOF 4
ENDMDL
MODEL       50
REMARK 921   NORMALIZED FREE ENERGY PREDICTED BY IDOCK:   -5.39 KCAL/MOL
REMARK 922        TOTAL FREE ENERGY PREDICTED BY IDOCK:   -7.26 KCAL/MOL
REMARK 923 INTER-LIGAND FREE ENERGY PREDICTED BY IDOCK:   -6.90 KCAL/MOL
REMARK 924 INTRA-LIGAND FREE ENERGY PREDICTED BY IDOCK:   -0.36 KCAL/MOL
REMARK 927      BINDING AFFINITY PREDICTED BY RF-SCORE:    0.00 PKD
ROOT
HETATM    1 CL   UNL     1      -6.983  20.897  66.958  1.00  0.00    -0.390 Cl 
HETATM    2  C   UNL     1      -8.220  19.727  67.198  1.00  0.00    -0.298 A  
HETATM    3  C   UNL     1      -9.514  20.142  67.481  1.00  0.00    -0.523 A  
HETATM    4  C   UNL     1     -10.518  19.189  67.665  1.00  0.00    -0.535 A  
HETATM    5  C   UNL     1     -10.248  17.818  67.555  1.00  0.00    -0.356 A  
HETATM    6  C   UNL     1      -7.923  18.367  67.111  1.00  0.00    -0.237 A  
HETATM    7  C   UNL     1      -8.933  17.414  67.302  1.00  0.00    -0.241 A  
ENDROOT
BRANCH   5   8
HETATM    8  N   UNL     1     -11.251  16.828  67.705  1.00  0.00    -0.130 N  
HETATM    9  H   UNL     1     -11.860  16.637  66.910  1.00  0.00     0.000 HD 
BRANCH   8  10
HETATM   10  C   UNL     1     -11.453  16.105  68.869  1.00  0.00    -0.331 C  
HETATM   11  O   UNL     1     -10.900  16.364  69.934  1.00  0.00    -0.344 OA 
BRANCH  10  12
HETATM   12  N   UNL     1     -12.345  15.056  68.712  1.00  0.00    -0.598 N  
HETATM   13  H   UNL     1     -13.342  15.262  68.769  1.00  0.00     0.000 HD 
BRANCH  12  14
HETATM   14  C   UNL     1     -11.951  13.715  68.477  1.00  0.00    -0.361 A  
HETATM   15  C   UNL     1     -11.774  12.788  69.514  1.00  0.00    -0.383 A  
HETATM   16  C   UNL     1     -11.417  11.462  69.248  1.00  0.00    -0.303 A  
HETATM   17 CL   UNL     1     -11.246  10.391  70.594  1.00  0.00    -0.397 Cl 
HETATM   18  C   UNL     1     -11.214  11.052  67.931  1.00  0.00    -0.310 A  
HETATM   19  C   UNL     1     -11.358  11.975  66.890  1.00  0.00    -0.400 A  
HETATM   20 CL   UNL     1     -10.780   9.431  67.523  1.00  0.00    -0.333 Cl 
HETATM   21  C   UNL     1     -11.714  13.304  67.162  1.00  0.00    -0.425 A  
ENDBRANCH  12  14
ENDBRANCH  10  12
ENDBRANCH   8  10
ENDBRANCH   5   8
TORSDOF 4
ENDMDL
MODEL       51
REMARK 921   NORMALIZED FREE ENERGY PREDICTED BY IDOCK:   -5.38 KCAL/MOL
REMARK 922        TOTAL FREE ENERGY PREDICTED BY IDOCK:   -7.24 KCAL/MOL
REMARK 923 INTER-LIGAND FREE ENERGY PREDICTED BY IDOCK:   -6.94 KCAL/MOL
REMARK 924 INTRA-LIGAND FREE ENERGY PREDICTED BY IDOCK:   -0.31 KCAL/MOL
REMARK 927      BINDING AFFINITY PREDICTED BY RF-SCORE:    0.00 PKD
ROOT
HETATM    1 CL   UNL     1     -10.763   5.125  73.906  1.00  0.00    -0.336 Cl 
HETATM    2  C   UNL     1     -11.110   6.400  72.805  1.00  0.00    -0.248 A  
HETATM    3  C   UNL     1     -10.775   7.706  73.135  1.00  0.00    -0.445 A  
HETATM    4  C   UNL     1     -11.049   8.737  72.234  1.00  0.00    -0.340 A  
HETATM    5  C   UNL     1     -11.644   8.477  70.992  1.00  0.00    -0.279 A  
HETATM    6  C   UNL     1     -11.728   6.122  71.586  1.00  0.00    -0.290 A  
HETATM    7  C   UNL     1     -12.007   7.161  70.686  1.00  0.00    -0.312 A  
ENDROOT
BRANCH   5   8
HETATM    8  N   UNL     1     -11.907   9.497  70.044  1.00  0.00    -0.457 N  
HETATM    9  H   UNL     1     -11.962   9.235  69.060  1.00  0.00     0.000 HD 
BRANCH   8  10
HETATM   10  C   UNL     1     -12.092  10.829  70.375  1.00  0.00    -0.354 C  
HETATM   11  O   UNL     1     -12.971  11.224  71.135  1.00  0.00    -0.354 OA 
BRANCH  10  12
HETATM   12  N   UNL     1     -11.182  11.675  69.761  1.00  0.00    -0.470 N  
HETATM   13  H   UNL     1     -10.322  11.899  70.261  1.00  0.00     0.000 HD 
BRANCH  12  14
HETATM   14  C   UNL     1     -11.379  12.247  68.479  1.00  0.00    -0.286 A  
HETATM   15  C   UNL     1     -11.055  11.572  67.294  1.00  0.00    -0.351 A  
HETATM   16  C   UNL     1     -11.292  12.149  66.042  1.00  0.00    -0.358 A  
HETATM   17 CL   UNL     1     -10.880  11.226  64.640  1.00  0.00    -0.366 Cl 
HETATM   18  C   UNL     1     -11.843  13.427  65.964  1.00  0.00    -0.383 A  
HETATM   19  C   UNL     1     -12.141  14.123  67.140  1.00  0.00    -0.432 A  
HETATM   20 CL   UNL     1     -12.171  14.203  64.457  1.00  0.00    -0.469 Cl 
HETATM   21  C   UNL     1     -11.900  13.541  68.393  1.00  0.00    -0.408 A  
ENDBRANCH  12  14
ENDBRANCH  10  12
ENDBRANCH   8  10
ENDBRANCH   5   8
TORSDOF 4
ENDMDL
MODEL       52
REMARK 921   NORMALIZED FREE ENERGY PREDICTED BY IDOCK:   -5.37 KCAL/MOL
REMARK 922        TOTAL FREE ENERGY PREDICTED BY IDOCK:   -7.24 KCAL/MOL
REMARK 923 INTER-LIGAND FREE ENERGY PREDICTED BY IDOCK:   -6.91 KCAL/MOL
REMARK 924 INTRA-LIGAND FREE ENERGY PREDICTED BY IDOCK:   -0.32 KCAL/MOL
REMARK 927      BINDING AFFINITY PREDICTED BY RF-SCORE:    0.00 PKD
ROOT
HETATM    1 CL   UNL     1     -12.858  15.832  71.645  1.00  0.00    -0.515 Cl 
HETATM    2  C   UNL     1     -12.758  14.153  71.288  1.00  0.00    -0.361 A  
HETATM    3  C   UNL     1     -13.360  13.232  72.135  1.00  0.00    -0.618 A  
HETATM    4  C   UNL     1     -13.285  11.870  71.837  1.00  0.00    -0.467 A  
HETATM    5  C   UNL     1     -12.626  11.413  70.688  1.00  0.00    -0.271 A  
HETATM    6  C   UNL     1     -12.073  13.718  70.154  1.00  0.00    -0.429 A  
HETATM    7  C   UNL     1     -11.996  12.348  69.861  1.00  0.00    -0.369 A  
ENDROOT
BRANCH   5   8
HETATM    8  N   UNL     1     -12.560  10.040  70.341  1.00  0.00    -0.520 N  
HETATM    9  H   UNL     1     -13.067   9.729  69.513  1.00  0.00     0.000 HD 
BRANCH   8  10
HETATM   10  C   UNL     1     -11.847   9.096  71.062  1.00  0.00    -0.292 C  
HETATM   11  O   UNL     1     -10.867   9.365  71.751  1.00  0.00    -0.354 OA 
BRANCH  10  12
HETATM   12  N   UNL     1     -12.353   7.813  70.928  1.00  0.00    -0.507 N  
HETATM   13  H   UNL     1     -13.328   7.707  70.651  1.00  0.00     0.000 HD 
BRANCH  12  14
HETATM   14  C   UNL     1     -11.592   6.638  71.155  1.00  0.00    -0.332 A  
HETATM   15  C   UNL     1     -11.492   6.036  72.417  1.00  0.00    -0.357 A  
HETATM   16  C   UNL     1     -10.761   4.858  72.604  1.00  0.00    -0.213 A  
HETATM   17 CL   UNL     1     -10.719   4.182  74.194  1.00  0.00    -0.299 Cl 
HETATM   18  C   UNL     1     -10.101   4.277  71.522  1.00  0.00    -0.135 A  
HETATM   19  C   UNL     1     -10.168   4.885  70.264  1.00  0.00    -0.299 A  
HETATM   20 CL   UNL     1      -9.186   2.820  71.671  1.00  0.00    -0.165 Cl 
HETATM   21  C   UNL     1     -10.901   6.067  70.083  1.00  0.00    -0.409 A  
ENDBRANCH  12  14
ENDBRANCH  10  12
ENDBRANCH   8  10
ENDBRANCH   5   8
TORSDOF 4
ENDMDL
MODEL       53
REMARK 921   NORMALIZED FREE ENERGY PREDICTED BY IDOCK:   -5.36 KCAL/MOL
REMARK 922        TOTAL FREE ENERGY PREDICTED BY IDOCK:   -7.23 KCAL/MOL
REMARK 923 INTER-LIGAND FREE ENERGY PREDICTED BY IDOCK:   -6.70 KCAL/MOL
REMARK 924 INTRA-LIGAND FREE ENERGY PREDICTED BY IDOCK:   -0.53 KCAL/MOL
REMARK 927      BINDING AFFINITY PREDICTED BY RF-SCORE:    0.00 PKD
ROOT
HETATM    1 CL   UNL     1      -7.314  19.112  68.824  1.00  0.00    -0.361 Cl 
HETATM    2  C   UNL     1      -8.329  18.109  67.865  1.00  0.00    -0.250 A  
HETATM    3  C   UNL     1      -9.707  18.166  68.028  1.00  0.00    -0.316 A  
HETATM    4  C   UNL     1     -10.528  17.358  67.240  1.00  0.00    -0.321 A  
HETATM    5  C   UNL     1      -9.990  16.497  66.274  1.00  0.00    -0.329 A  
HETATM    6  C   UNL     1      -7.771  17.239  66.928  1.00  0.00    -0.250 A  
HETATM    7  C   UNL     1      -8.599  16.425  66.143  1.00  0.00    -0.343 A  
ENDROOT
BRANCH   5   8
HETATM    8  N   UNL     1     -10.798  15.687  65.438  1.00  0.00    -0.377 N  
HETATM    9  H   UNL     1     -10.948  15.990  64.476  1.00  0.00     0.000 HD 
BRANCH   8  10
HETATM   10  C   UNL     1     -11.397  14.508  65.851  1.00  0.00    -0.341 C  
HETATM   11  O   UNL     1     -12.424  14.057  65.352  1.00  0.00    -0.451 OA 
BRANCH  10  12
HETATM   12  N   UNL     1     -10.718  13.886  66.886  1.00  0.00    -0.283 N  
HETATM   13  H   UNL     1      -9.743  13.628  66.734  1.00  0.00     0.000 HD 
BRANCH  12  14
HETATM   14  C   UNL     1     -11.301  13.587  68.143  1.00  0.00    -0.286 A  
HETATM   15  C   UNL     1     -11.898  14.567  68.950  1.00  0.00    -0.359 A  
HETATM   16  C   UNL     1     -12.495  14.236  70.171  1.00  0.00    -0.335 A  
HETATM   17 CL   UNL     1     -13.225  15.512  71.080  1.00  0.00    -0.563 Cl 
HETATM   18  C   UNL     1     -12.483  12.912  70.609  1.00  0.00    -0.252 A  
HETATM   19  C   UNL     1     -11.864  11.932  69.828  1.00  0.00    -0.411 A  
HETATM   20 CL   UNL     1     -13.206  12.426  72.100  1.00  0.00    -0.572 Cl 
HETATM   21  C   UNL     1     -11.265  12.269  68.605  1.00  0.00    -0.305 A  
ENDBRANCH  12  14
ENDBRANCH  10  12
ENDBRANCH   8  10
ENDBRANCH   5   8
TORSDOF 4
ENDMDL
MODEL       54
REMARK 921   NORMALIZED FREE ENERGY PREDICTED BY IDOCK:   -5.33 KCAL/MOL
REMARK 922        TOTAL FREE ENERGY PREDICTED BY IDOCK:   -7.19 KCAL/MOL
REMARK 923 INTER-LIGAND FREE ENERGY PREDICTED BY IDOCK:   -6.71 KCAL/MOL
REMARK 924 INTRA-LIGAND FREE ENERGY PREDICTED BY IDOCK:   -0.48 KCAL/MOL
REMARK 927      BINDING AFFINITY PREDICTED BY RF-SCORE:    0.00 PKD
ROOT
HETATM    1 CL   UNL     1     -10.773   9.282  69.988  1.00  0.00    -0.243 Cl 
HETATM    2  C   UNL     1     -10.918  10.247  68.572  1.00  0.00    -0.247 A  
HETATM    3  C   UNL     1     -10.339   9.820  67.385  1.00  0.00    -0.297 A  
HETATM    4  C   UNL     1     -10.467  10.601  66.235  1.00  0.00    -0.268 A  
HETATM    5  C   UNL     1     -11.184  11.806  66.251  1.00  0.00    -0.312 A  
HETATM    6  C   UNL     1     -11.612  11.456  68.617  1.00  0.00    -0.384 A  
HETATM    7  C   UNL     1     -11.734  12.241  67.461  1.00  0.00    -0.402 A  
ENDROOT
BRANCH   5   8
HETATM    8  N   UNL     1     -11.359  12.605  65.094  1.00  0.00    -0.299 N  
HETATM    9  H   UNL     1     -11.127  12.197  64.189  1.00  0.00     0.000 HD 
BRANCH   8  10
HETATM   10  C   UNL     1     -11.825  13.909  65.120  1.00  0.00    -0.362 C  
HETATM   11  O   UNL     1     -13.015  14.203  65.179  1.00  0.00    -0.729 OA 
BRANCH  10  12
HETATM   12  N   UNL     1     -10.811  14.852  65.076  1.00  0.00    -0.398 N  
HETATM   13  H   UNL     1     -10.114  14.773  64.336  1.00  0.00     0.000 HD 
BRANCH  12  14
HETATM   14  C   UNL     1     -10.686  15.919  66.001  1.00  0.00    -0.284 A  
HETATM   15  C   UNL     1     -10.834  15.740  67.384  1.00  0.00    -0.306 A  
HETATM   16  C   UNL     1     -10.671  16.806  68.275  1.00  0.00    -0.364 A  
HETATM   17 CL   UNL     1     -10.851  16.478  69.962  1.00  0.00    -0.322 Cl 
HETATM   18  C   UNL     1     -10.375  18.077  67.784  1.00  0.00    -0.393 A  
HETATM   19  C   UNL     1     -10.255  18.274  66.405  1.00  0.00    -0.417 A  
HETATM   20 CL   UNL     1     -10.152  19.440  68.820  1.00  0.00    -0.520 Cl 
HETATM   21  C   UNL     1     -10.421  17.203  65.515  1.00  0.00    -0.158 A  
ENDBRANCH  12  14
ENDBRANCH  10  12
ENDBRANCH   8  10
ENDBRANCH   5   8
TORSDOF 4
ENDMDL
MODEL       55
REMARK 921   NORMALIZED FREE ENERGY PREDICTED BY IDOCK:   -5.32 KCAL/MOL
REMARK 922        TOTAL FREE ENERGY PREDICTED BY IDOCK:   -7.18 KCAL/MOL
REMARK 923 INTER-LIGAND FREE ENERGY PREDICTED BY IDOCK:   -6.52 KCAL/MOL
REMARK 924 INTRA-LIGAND FREE ENERGY PREDICTED BY IDOCK:   -0.66 KCAL/MOL
REMARK 927      BINDING AFFINITY PREDICTED BY RF-SCORE:    0.00 PKD
ROOT
HETATM    1 CL   UNL     1     -13.474  15.594  72.835  1.00  0.00    -0.624 Cl 
HETATM    2  C   UNL     1     -13.116  14.139  71.991  1.00  0.00    -0.387 A  
HETATM    3  C   UNL     1     -13.633  12.934  72.445  1.00  0.00    -0.577 A  
HETATM    4  C   UNL     1     -13.349  11.757  71.750  1.00  0.00    -0.342 A  
HETATM    5  C   UNL     1     -12.561  11.769  70.591  1.00  0.00    -0.201 A  
HETATM    6  C   UNL     1     -12.308  14.171  70.855  1.00  0.00    -0.438 A  
HETATM    7  C   UNL     1     -12.020  12.986  70.163  1.00  0.00    -0.374 A  
ENDROOT
BRANCH   5   8
HETATM    8  N   UNL     1     -12.280  10.596  69.846  1.00  0.00    -0.453 N  
HETATM    9  H   UNL     1     -13.058   9.981  69.608  1.00  0.00     0.000 HD 
BRANCH   8  10
HETATM   10  C   UNL     1     -11.011  10.237  69.423  1.00  0.00    -0.247 C  
HETATM   11  O   UNL     1     -10.128   9.848  70.181  1.00  0.00    -0.250 OA 
BRANCH  10  12
HETATM   12  N   UNL     1     -10.839  10.358  68.054  1.00  0.00    -0.249 N  
HETATM   13  H   UNL     1     -10.878   9.511  67.488  1.00  0.00     0.000 HD 
BRANCH  12  14
HETATM   14  C   UNL     1     -10.610  11.593  67.395  1.00  0.00    -0.220 A  
HETATM   15  C   UNL     1     -11.557  12.180  66.544  1.00  0.00    -0.425 A  
HETATM   16  C   UNL     1     -11.317  13.416  65.934  1.00  0.00    -0.309 A  
HETATM   17 CL   UNL     1     -12.557  14.066  64.921  1.00  0.00    -0.400 Cl 
HETATM   18  C   UNL     1     -10.108  14.072  66.158  1.00  0.00    -0.309 A  
HETATM   19  C   UNL     1      -9.143  13.482  66.980  1.00  0.00    -0.248 A  
HETATM   20 CL   UNL     1      -9.742  15.603  65.448  1.00  0.00    -0.277 Cl 
HETATM   21  C   UNL     1      -9.388  12.242  67.588  1.00  0.00    -0.186 A  
ENDBRANCH  12  14
ENDBRANCH  10  12
ENDBRANCH   8  10
ENDBRANCH   5   8
TORSDOF 4
ENDMDL
MODEL       56
REMARK 921   NORMALIZED FREE ENERGY PREDICTED BY IDOCK:   -5.32 KCAL/MOL
REMARK 922        TOTAL FREE ENERGY PREDICTED BY IDOCK:   -7.18 KCAL/MOL
REMARK 923 INTER-LIGAND FREE ENERGY PREDICTED BY IDOCK:   -6.82 KCAL/MOL
REMARK 924 INTRA-LIGAND FREE ENERGY PREDICTED BY IDOCK:   -0.35 KCAL/MOL
REMARK 927      BINDING AFFINITY PREDICTED BY RF-SCORE:    0.00 PKD
ROOT
HETATM    1 CL   UNL     1     -10.654  11.416  63.123  1.00  0.00    -0.341 Cl 
HETATM    2  C   UNL     1     -11.156  12.148  64.596  1.00  0.00    -0.317 A  
HETATM    3  C   UNL     1     -10.629  11.703  65.801  1.00  0.00    -0.320 A  
HETATM    4  C   UNL     1     -11.032  12.307  66.993  1.00  0.00    -0.314 A  
HETATM    5  C   UNL     1     -11.949  13.366  66.998  1.00  0.00    -0.379 A  
HETATM    6  C   UNL     1     -12.091  13.182  64.580  1.00  0.00    -0.462 A  
HETATM    7  C   UNL     1     -12.497  13.782  65.780  1.00  0.00    -0.527 A  
ENDROOT
BRANCH   5   8
HETATM    8  N   UNL     1     -12.354  14.020  68.189  1.00  0.00    -0.508 N  
HETATM    9  H   UNL     1     -13.202  14.586  68.161  1.00  0.00     0.000 HD 
BRANCH   8  10
HETATM   10  C   UNL     1     -11.665  13.935  69.388  1.00  0.00    -0.315 C  
HETATM   11  O   UNL     1     -10.545  14.406  69.562  1.00  0.00    -0.179 OA 
BRANCH  10  12
HETATM   12  N   UNL     1     -12.370  13.265  70.375  1.00  0.00    -0.323 N  
HETATM   13  H   UNL     1     -13.010  13.804  70.958  1.00  0.00     0.000 HD 
BRANCH  12  14
HETATM   14  C   UNL     1     -12.252  11.874  70.621  1.00  0.00    -0.331 A  
HETATM   15  C   UNL     1     -11.351  11.059  69.922  1.00  0.00    -0.364 A  
HETATM   16  C   UNL     1     -11.233   9.695  70.211  1.00  0.00    -0.271 A  
HETATM   17 CL   UNL     1     -10.076   8.780  69.310  1.00  0.00    -0.198 Cl 
HETATM   18  C   UNL     1     -12.038   9.126  71.197  1.00  0.00    -0.299 A  
HETATM   19  C   UNL     1     -12.962   9.923  71.879  1.00  0.00    -0.545 A  
HETATM   20 CL   UNL     1     -11.945   7.453  71.615  1.00  0.00    -0.318 Cl 
HETATM   21  C   UNL     1     -13.077  11.289  71.585  1.00  0.00    -0.513 A  
ENDBRANCH  12  14
ENDBRANCH  10  12
ENDBRANCH   8  10
ENDBRANCH   5   8
TORSDOF 4
ENDMDL
MODEL       57
REMARK 921   NORMALIZED FREE ENERGY PREDICTED BY IDOCK:   -5.32 KCAL/MOL
REMARK 922        TOTAL FREE ENERGY PREDICTED BY IDOCK:   -7.17 KCAL/MOL
REMARK 923 INTER-LIGAND FREE ENERGY PREDICTED BY IDOCK:   -6.49 KCAL/MOL
REMARK 924 INTRA-LIGAND FREE ENERGY PREDICTED BY IDOCK:   -0.69 KCAL/MOL
REMARK 927      BINDING AFFINITY PREDICTED BY RF-SCORE:    0.00 PKD
ROOT
HETATM    1 CL   UNL     1      -9.264  10.976  62.330  1.00  0.00    -0.327 Cl 
HETATM    2  C   UNL     1     -10.092  11.368  63.785  1.00  0.00    -0.362 A  
HETATM    3  C   UNL     1      -9.603  10.910  65.001  1.00  0.00    -0.299 A  
HETATM    4  C   UNL     1     -10.273  11.239  66.181  1.00  0.00    -0.291 A  
HETATM    5  C   UNL     1     -11.425  12.038  66.164  1.00  0.00    -0.339 A  
HETATM    6  C   UNL     1     -11.252  12.141  63.743  1.00  0.00    -0.509 A  
HETATM    7  C   UNL     1     -11.925  12.465  64.930  1.00  0.00    -0.458 A  
ENDROOT
BRANCH   5   8
HETATM    8  N   UNL     1     -12.109  12.415  67.347  1.00  0.00    -0.155 N  
HETATM    9  H   UNL     1     -12.952  11.899  67.599  1.00  0.00     0.000 HD 
BRANCH   8  10
HETATM   10  C   UNL     1     -11.701  13.444  68.180  1.00  0.00    -0.362 C  
HETATM   11  O   UNL     1     -11.171  13.263  69.272  1.00  0.00    -0.253 OA 
BRANCH  10  12
HETATM   12  N   UNL     1     -11.950  14.701  67.654  1.00  0.00    -0.543 N  
HETATM   13  H   UNL     1     -12.910  14.936  67.403  1.00  0.00     0.000 HD 
BRANCH  12  14
HETATM   14  C   UNL     1     -10.947  15.681  67.446  1.00  0.00    -0.293 A  
HETATM   15  C   UNL     1     -10.909  16.886  68.161  1.00  0.00    -0.351 A  
HETATM   16  C   UNL     1      -9.887  17.819  67.958  1.00  0.00    -0.317 A  
HETATM   17 CL   UNL     1      -9.918  19.264  68.905  1.00  0.00    -0.502 Cl 
HETATM   18  C   UNL     1      -8.893  17.560  67.014  1.00  0.00    -0.240 A  
HETATM   19  C   UNL     1      -8.937  16.375  66.273  1.00  0.00    -0.368 A  
HETATM   20 CL   UNL     1      -7.596  18.658  66.713  1.00  0.00    -0.236 Cl 
HETATM   21  C   UNL     1      -9.965  15.444  66.480  1.00  0.00    -0.282 A  
ENDBRANCH  12  14
ENDBRANCH  10  12
ENDBRANCH   8  10
ENDBRANCH   5   8
TORSDOF 4
ENDMDL
MODEL       58
REMARK 921   NORMALIZED FREE ENERGY PREDICTED BY IDOCK:   -5.31 KCAL/MOL
REMARK 922        TOTAL FREE ENERGY PREDICTED BY IDOCK:   -7.16 KCAL/MOL
REMARK 923 INTER-LIGAND FREE ENERGY PREDICTED BY IDOCK:   -6.70 KCAL/MOL
REMARK 924 INTRA-LIGAND FREE ENERGY PREDICTED BY IDOCK:   -0.47 KCAL/MOL
REMARK 927      BINDING AFFINITY PREDICTED BY RF-SCORE:    0.00 PKD
ROOT
HETATM    1 CL   UNL     1     -11.893  10.231  71.069  1.00  0.00    -0.454 Cl 
HETATM    2  C   UNL     1     -11.861  11.372  69.783  1.00  0.00    -0.364 A  
HETATM    3  C   UNL     1     -12.056  12.720  70.054  1.00  0.00    -0.355 A  
HETATM    4  C   UNL     1     -12.019  13.645  69.009  1.00  0.00    -0.392 A  
HETATM    5  C   UNL     1     -11.773  13.241  67.689  1.00  0.00    -0.366 A  
HETATM    6  C   UNL     1     -11.642  10.945  68.474  1.00  0.00    -0.360 A  
HETATM    7  C   UNL     1     -11.611  11.876  67.426  1.00  0.00    -0.367 A  
ENDROOT
BRANCH   5   8
HETATM    8  N   UNL     1     -11.698  14.158  66.611  1.00  0.00    -0.384 N  
HETATM    9  H   UNL     1     -12.527  14.712  66.394  1.00  0.00     0.000 HD 
BRANCH   8  10
HETATM   10  C   UNL     1     -10.566  14.347  65.836  1.00  0.00    -0.307 C  
HETATM   11  O   UNL     1     -10.523  14.116  64.631  1.00  0.00    -0.434 OA 
BRANCH  10  12
HETATM   12  N   UNL     1      -9.485  14.825  66.558  1.00  0.00    -0.277 N  
HETATM   13  H   UNL     1      -8.915  14.153  67.071  1.00  0.00     0.000 HD 
BRANCH  12  14
HETATM   14  C   UNL     1      -9.125  16.195  66.624  1.00  0.00    -0.252 A  
HETATM   15  C   UNL     1     -10.051  17.204  66.924  1.00  0.00    -0.298 A  
HETATM   16  C   UNL     1      -9.659  18.544  67.016  1.00  0.00    -0.298 A  
HETATM   17 CL   UNL     1     -10.871  19.710  67.414  1.00  0.00    -0.561 Cl 
HETATM   18  C   UNL     1      -8.328  18.891  66.786  1.00  0.00    -0.281 A  
HETATM   19  C   UNL     1      -7.402  17.897  66.456  1.00  0.00    -0.279 A  
HETATM   20 CL   UNL     1      -7.767  20.521  66.888  1.00  0.00    -0.343 Cl 
HETATM   21  C   UNL     1      -7.800  16.556  66.364  1.00  0.00    -0.324 A  
ENDBRANCH  12  14
ENDBRANCH  10  12
ENDBRANCH   8  10
ENDBRANCH   5   8
TORSDOF 4
ENDMDL
MODEL       59
REMARK 921   NORMALIZED FREE ENERGY PREDICTED BY IDOCK:   -5.29 KCAL/MOL
REMARK 922        TOTAL FREE ENERGY PREDICTED BY IDOCK:   -7.14 KCAL/MOL
REMARK 923 INTER-LIGAND FREE ENERGY PREDICTED BY IDOCK:   -6.67 KCAL/MOL
REMARK 924 INTRA-LIGAND FREE ENERGY PREDICTED BY IDOCK:   -0.47 KCAL/MOL
REMARK 927      BINDING AFFINITY PREDICTED BY RF-SCORE:    0.00 PKD
ROOT
HETATM    1 CL   UNL     1     -14.182  16.090  72.914  1.00  0.00    -0.329 Cl 
HETATM    2  C   UNL     1     -13.277  15.022  71.916  1.00  0.00    -0.363 A  
HETATM    3  C   UNL     1     -13.407  13.650  72.080  1.00  0.00    -0.548 A  
HETATM    4  C   UNL     1     -12.678  12.786  71.260  1.00  0.00    -0.364 A  
HETATM    5  C   UNL     1     -11.826  13.277  70.261  1.00  0.00    -0.234 A  
HETATM    6  C   UNL     1     -12.413  15.533  70.947  1.00  0.00    -0.494 A  
HETATM    7  C   UNL     1     -11.679  14.662  70.130  1.00  0.00    -0.353 A  
ENDROOT
BRANCH   5   8
HETATM    8  N   UNL     1     -11.097  12.427  69.393  1.00  0.00    -0.443 N  
HETATM    9  H   UNL     1     -10.088  12.357  69.525  1.00  0.00     0.000 HD 
BRANCH   8  10
HETATM   10  C   UNL     1     -11.674  11.684  68.377  1.00  0.00    -0.307 C  
HETATM   11  O   UNL     1     -12.253  12.183  67.416  1.00  0.00    -0.486 OA 
BRANCH  10  12
HETATM   12  N   UNL     1     -11.532  10.317  68.552  1.00  0.00    -0.509 N  
HETATM   13  H   UNL     1     -11.864   9.701  67.810  1.00  0.00     0.000 HD 
BRANCH  12  14
HETATM   14  C   UNL     1     -10.950   9.726  69.701  1.00  0.00    -0.241 A  
HETATM   15  C   UNL     1      -9.576   9.468  69.804  1.00  0.00    -0.235 A  
HETATM   16  C   UNL     1      -9.026   8.915  70.966  1.00  0.00    -0.241 A  
HETATM   17 CL   UNL     1      -7.318   8.656  71.002  1.00  0.00    -0.073 Cl 
HETATM   18  C   UNL     1      -9.858   8.595  72.038  1.00  0.00    -0.325 A  
HETATM   19  C   UNL     1     -11.235   8.819  71.936  1.00  0.00    -0.438 A  
HETATM   20 CL   UNL     1      -9.254   7.917  73.507  1.00  0.00    -0.341 Cl 
HETATM   21  C   UNL     1     -11.781   9.373  70.769  1.00  0.00    -0.349 A  
ENDBRANCH  12  14
ENDBRANCH  10  12
ENDBRANCH   8  10
ENDBRANCH   5   8
TORSDOF 4
ENDMDL
MODEL       60
REMARK 921   NORMALIZED FREE ENERGY PREDICTED BY IDOCK:   -5.27 KCAL/MOL
REMARK 922        TOTAL FREE ENERGY PREDICTED BY IDOCK:   -7.12 KCAL/MOL
REMARK 923 INTER-LIGAND FREE ENERGY PREDICTED BY IDOCK:   -6.51 KCAL/MOL
REMARK 924 INTRA-LIGAND FREE ENERGY PREDICTED BY IDOCK:   -0.61 KCAL/MOL
REMARK 927      BINDING AFFINITY PREDICTED BY RF-SCORE:    0.00 PKD
ROOT
HETATM    1 CL   UNL     1     -10.607   5.449  66.849  1.00  0.00    -0.329 Cl 
HETATM    2  C   UNL     1     -10.599   6.908  67.760  1.00  0.00    -0.244 A  
HETATM    3  C   UNL     1     -10.482   8.127  67.106  1.00  0.00    -0.396 A  
HETATM    4  C   UNL     1     -10.486   9.310  67.848  1.00  0.00    -0.290 A  
HETATM    5  C   UNL     1     -10.621   9.292  69.244  1.00  0.00    -0.222 A  
HETATM    6  C   UNL     1     -10.706   6.865  69.149  1.00  0.00    -0.262 A  
HETATM    7  C   UNL     1     -10.704   8.055  69.892  1.00  0.00    -0.242 A  
ENDROOT
BRANCH   5   8
HETATM    8  N   UNL     1     -10.660  10.475  70.022  1.00  0.00    -0.439 N  
HETATM    9  H   UNL     1      -9.791  10.799  70.446  1.00  0.00     0.000 HD 
BRANCH   8  10
HETATM   10  C   UNL     1     -11.808  11.218  70.240  1.00  0.00    -0.357 C  
HETATM   11  O   UNL     1     -12.888  10.724  70.550  1.00  0.00    -0.326 OA 
BRANCH  10  12
HETATM   12  N   UNL     1     -11.616  12.580  70.074  1.00  0.00    -0.530 N  
HETATM   13  H   UNL     1     -11.611  13.169  70.907  1.00  0.00     0.000 HD 
BRANCH  12  14
HETATM   14  C   UNL     1     -11.426  13.202  68.815  1.00  0.00    -0.307 A  
HETATM   15  C   UNL     1     -12.006  12.711  67.636  1.00  0.00    -0.309 A  
HETATM   16  C   UNL     1     -11.829  13.366  66.413  1.00  0.00    -0.396 A  
HETATM   17 CL   UNL     1     -12.604  12.693  65.022  1.00  0.00    -0.567 Cl 
HETATM   18  C   UNL     1     -11.046  14.518  66.354  1.00  0.00    -0.331 A  
HETATM   19  C   UNL     1     -10.438  15.001  67.517  1.00  0.00    -0.256 A  
HETATM   20 CL   UNL     1     -10.788  15.386  64.883  1.00  0.00    -0.454 Cl 
HETATM   21  C   UNL     1     -10.618  14.340  68.741  1.00  0.00    -0.255 A  
ENDBRANCH  12  14
ENDBRANCH  10  12
ENDBRANCH   8  10
ENDBRANCH   5   8
TORSDOF 4
ENDMDL
MODEL       61
REMARK 921   NORMALIZED FREE ENERGY PREDICTED BY IDOCK:   -5.26 KCAL/MOL
REMARK 922        TOTAL FREE ENERGY PREDICTED BY IDOCK:   -7.10 KCAL/MOL
REMARK 923 INTER-LIGAND FREE ENERGY PREDICTED BY IDOCK:   -6.60 KCAL/MOL
REMARK 924 INTRA-LIGAND FREE ENERGY PREDICTED BY IDOCK:   -0.50 KCAL/MOL
REMARK 927      BINDING AFFINITY PREDICTED BY RF-SCORE:    0.00 PKD
ROOT
HETATM    1 CL   UNL     1     -10.854   6.873  73.694  1.00  0.00    -0.293 Cl 
HETATM    2  C   UNL     1     -11.234   8.117  72.570  1.00  0.00    -0.391 A  
HETATM    3  C   UNL     1     -10.223   8.693  71.813  1.00  0.00    -0.378 A  
HETATM    4  C   UNL     1     -10.537   9.696  70.893  1.00  0.00    -0.386 A  
HETATM    5  C   UNL     1     -11.859  10.124  70.708  1.00  0.00    -0.351 A  
HETATM    6  C   UNL     1     -12.552   8.548  72.422  1.00  0.00    -0.409 A  
HETATM    7  C   UNL     1     -12.863   9.559  71.502  1.00  0.00    -0.464 A  
ENDROOT
BRANCH   5   8
HETATM    8  N   UNL     1     -12.214  11.118  69.762  1.00  0.00    -0.315 N  
HETATM    9  H   UNL     1     -12.793  10.840  68.970  1.00  0.00     0.000 HD 
BRANCH   8  10
HETATM   10  C   UNL     1     -11.820  12.443  69.850  1.00  0.00    -0.305 C  
HETATM   11  O   UNL     1     -12.345  13.259  70.601  1.00  0.00    -0.356 OA 
BRANCH  10  12
HETATM   12  N   UNL     1     -10.770  12.756  69.002  1.00  0.00    -0.415 N  
HETATM   13  H   UNL     1     -10.012  13.331  69.369  1.00  0.00     0.000 HD 
BRANCH  12  14
HETATM   14  C   UNL     1     -10.688  12.324  67.655  1.00  0.00    -0.220 A  
HETATM   15  C   UNL     1     -11.474  12.881  66.635  1.00  0.00    -0.393 A  
HETATM   16  C   UNL     1     -11.347  12.457  65.308  1.00  0.00    -0.332 A  
HETATM   17 CL   UNL     1     -12.344  13.222  64.122  1.00  0.00    -0.428 Cl 
HETATM   18  C   UNL     1     -10.438  11.449  64.989  1.00  0.00    -0.303 A  
HETATM   19  C   UNL     1      -9.671  10.865  66.002  1.00  0.00    -0.268 A  
HETATM   20 CL   UNL     1     -10.219  10.878  63.374  1.00  0.00    -0.390 Cl 
HETATM   21  C   UNL     1      -9.803  11.292  67.331  1.00  0.00    -0.201 A  
ENDBRANCH  12  14
ENDBRANCH  10  12
ENDBRANCH   8  10
ENDBRANCH   5   8
TORSDOF 4
ENDMDL
MODEL       62
REMARK 921   NORMALIZED FREE ENERGY PREDICTED BY IDOCK:   -5.25 KCAL/MOL
REMARK 922        TOTAL FREE ENERGY PREDICTED BY IDOCK:   -7.09 KCAL/MOL
REMARK 923 INTER-LIGAND FREE ENERGY PREDICTED BY IDOCK:   -6.38 KCAL/MOL
REMARK 924 INTRA-LIGAND FREE ENERGY PREDICTED BY IDOCK:   -0.72 KCAL/MOL
REMARK 927      BINDING AFFINITY PREDICTED BY RF-SCORE:    0.00 PKD
ROOT
HETATM    1 CL   UNL     1     -13.502  13.840  72.611  1.00  0.00    -0.656 Cl 
HETATM    2  C   UNL     1     -12.616  13.569  71.162  1.00  0.00    -0.355 A  
HETATM    3  C   UNL     1     -12.240  14.648  70.373  1.00  0.00    -0.391 A  
HETATM    4  C   UNL     1     -11.511  14.425  69.203  1.00  0.00    -0.328 A  
HETATM    5  C   UNL     1     -11.138  13.131  68.815  1.00  0.00    -0.269 A  
HETATM    6  C   UNL     1     -12.280  12.271  70.780  1.00  0.00    -0.354 A  
HETATM    7  C   UNL     1     -11.553  12.051  69.601  1.00  0.00    -0.371 A  
ENDROOT
BRANCH   5   8
HETATM    8  N   UNL     1     -10.373  12.874  67.650  1.00  0.00    -0.216 N  
HETATM    9  H   UNL     1     -10.824  12.384  66.878  1.00  0.00     0.000 HD 
BRANCH   8  10
HETATM   10  C   UNL     1      -9.049  13.251  67.498  1.00  0.00    -0.208 C  
HETATM   11  O   UNL     1      -8.143  12.855  68.225  1.00  0.00    -0.143 OA 
BRANCH  10  12
HETATM   12  N   UNL     1      -8.848  14.122  66.439  1.00  0.00    -0.472 N  
HETATM   13  H   UNL     1      -8.387  13.763  65.603  1.00  0.00     0.000 HD 
BRANCH  12  14
HETATM   14  C   UNL     1      -9.245  15.482  66.452  1.00  0.00    -0.305 A  
HETATM   15  C   UNL     1      -8.628  16.442  67.267  1.00  0.00    -0.200 A  
HETATM   16  C   UNL     1      -9.020  17.784  67.232  1.00  0.00    -0.246 A  
HETATM   17 CL   UNL     1      -8.180  18.893  68.258  1.00  0.00    -0.346 Cl 
HETATM   18  C   UNL     1     -10.056  18.179  66.387  1.00  0.00    -0.389 A  
HETATM   19  C   UNL     1     -10.700  17.226  65.592  1.00  0.00    -0.123 A  
HETATM   20 CL   UNL     1     -10.591  19.818  66.283  1.00  0.00    -0.588 Cl 
HETATM   21  C   UNL     1     -10.305  15.881  65.632  1.00  0.00    -0.413 A  
ENDBRANCH  12  14
ENDBRANCH  10  12
ENDBRANCH   8  10
ENDBRANCH   5   8
TORSDOF 4
ENDMDL
MODEL       63
REMARK 921   NORMALIZED FREE ENERGY PREDICTED BY IDOCK:   -5.22 KCAL/MOL
REMARK 922        TOTAL FREE ENERGY PREDICTED BY IDOCK:   -7.06 KCAL/MOL
REMARK 923 INTER-LIGAND FREE ENERGY PREDICTED BY IDOCK:   -6.67 KCAL/MOL
REMARK 924 INTRA-LIGAND FREE ENERGY PREDICTED BY IDOCK:   -0.39 KCAL/MOL
REMARK 927      BINDING AFFINITY PREDICTED BY RF-SCORE:    0.00 PKD
ROOT
HETATM    1 CL   UNL     1     -12.741  15.766  71.595  1.00  0.00    -0.505 Cl 
HETATM    2  C   UNL     1     -12.688  14.070  71.318  1.00  0.00    -0.365 A  
HETATM    3  C   UNL     1     -13.300  13.206  72.216  1.00  0.00    -0.621 A  
HETATM    4  C   UNL     1     -13.265  11.830  71.982  1.00  0.00    -0.460 A  
HETATM    5  C   UNL     1     -12.634  11.302  70.847  1.00  0.00    -0.371 A  
HETATM    6  C   UNL     1     -12.031  13.564  70.197  1.00  0.00    -0.399 A  
HETATM    7  C   UNL     1     -11.992  12.181  69.969  1.00  0.00    -0.391 A  
ENDROOT
BRANCH   5   8
HETATM    8  N   UNL     1     -12.607   9.913  70.566  1.00  0.00    -0.508 N  
HETATM    9  H   UNL     1     -13.283   9.546  69.897  1.00  0.00     0.000 HD 
BRANCH   8  10
HETATM   10  C   UNL     1     -11.716   9.025  71.146  1.00  0.00    -0.302 C  
HETATM   11  O   UNL     1     -10.632   9.360  71.615  1.00  0.00    -0.340 OA 
BRANCH  10  12
HETATM   12  N   UNL     1     -12.172   7.717  71.146  1.00  0.00    -0.399 N  
HETATM   13  H   UNL     1     -13.069   7.521  71.591  1.00  0.00     0.000 HD 
BRANCH  12  14
HETATM   14  C   UNL     1     -11.465   6.636  70.564  1.00  0.00    -0.376 A  
HETATM   15  C   UNL     1     -11.335   6.479  69.177  1.00  0.00    -0.330 A  
HETATM   16  C   UNL     1     -10.602   5.420  68.631  1.00  0.00    -0.097 A  
HETATM   17 CL   UNL     1     -10.482   5.327  66.910  1.00  0.00    -0.304 Cl 
HETATM   18  C   UNL     1     -10.001   4.488  69.478  1.00  0.00    -0.165 A  
HETATM   19  C   UNL     1     -10.149   4.617  70.862  1.00  0.00    -0.257 A  
HETATM   20 CL   UNL     1      -9.075   3.159  68.881  1.00  0.00    -0.191 Cl 
HETATM   21  C   UNL     1     -10.887   5.680  71.404  1.00  0.00    -0.290 A  
ENDBRANCH  12  14
ENDBRANCH  10  12
ENDBRANCH   8  10
ENDBRANCH   5   8
TORSDOF 4
ENDMDL
MODEL       64
REMARK 921   NORMALIZED FREE ENERGY PREDICTED BY IDOCK:   -5.21 KCAL/MOL
REMARK 922        TOTAL FREE ENERGY PREDICTED BY IDOCK:   -7.04 KCAL/MOL
REMARK 923 INTER-LIGAND FREE ENERGY PREDICTED BY IDOCK:   -6.50 KCAL/MOL
REMARK 924 INTRA-LIGAND FREE ENERGY PREDICTED BY IDOCK:   -0.55 KCAL/MOL
REMARK 927      BINDING AFFINITY PREDICTED BY RF-SCORE:    0.00 PKD
ROOT
HETATM    1 CL   UNL     1      -7.316  19.771  65.859  1.00  0.00    -0.314 Cl 
HETATM    2  C   UNL     1      -8.485  18.845  66.716  1.00  0.00    -0.298 A  
HETATM    3  C   UNL     1      -9.065  19.362  67.866  1.00  0.00    -0.377 A  
HETATM    4  C   UNL     1     -10.022  18.611  68.553  1.00  0.00    -0.430 A  
HETATM    5  C   UNL     1     -10.420  17.348  68.095  1.00  0.00    -0.389 A  
HETATM    6  C   UNL     1      -8.846  17.578  66.257  1.00  0.00    -0.216 A  
HETATM    7  C   UNL     1      -9.803  16.825  66.953  1.00  0.00    -0.269 A  
ENDROOT
BRANCH   5   8
HETATM    8  N   UNL     1     -11.410  16.575  68.751  1.00  0.00    -0.283 N  
HETATM    9  H   UNL     1     -12.232  17.056  69.114  1.00  0.00     0.000 HD 
BRANCH   8  10
HETATM   10  C   UNL     1     -11.325  15.204  68.930  1.00  0.00    -0.301 C  
HETATM   11  O   UNL     1     -10.515  14.665  69.678  1.00  0.00    -0.171 OA 
BRANCH  10  12
HETATM   12  N   UNL     1     -12.251  14.498  68.177  1.00  0.00    -0.593 N  
HETATM   13  H   UNL     1     -13.234  14.561  68.444  1.00  0.00     0.000 HD 
BRANCH  12  14
HETATM   14  C   UNL     1     -11.911  13.696  67.060  1.00  0.00    -0.408 A  
HETATM   15  C   UNL     1     -11.090  12.564  67.166  1.00  0.00    -0.321 A  
HETATM   16  C   UNL     1     -10.799  11.771  66.051  1.00  0.00    -0.296 A  
HETATM   17 CL   UNL     1      -9.796  10.385  66.290  1.00  0.00    -0.259 Cl 
HETATM   18  C   UNL     1     -11.317  12.118  64.804  1.00  0.00    -0.325 A  
HETATM   19  C   UNL     1     -12.112  13.261  64.680  1.00  0.00    -0.458 A  
HETATM   20 CL   UNL     1     -11.009  11.185  63.383  1.00  0.00    -0.281 Cl 
HETATM   21  C   UNL     1     -12.400  14.054  65.801  1.00  0.00    -0.506 A  
ENDBRANCH  12  14
ENDBRANCH  10  12
ENDBRANCH   8  10
ENDBRANCH   5   8
TORSDOF 4
ENDMDL
MODEL       65
REMARK 921   NORMALIZED FREE ENERGY PREDICTED BY IDOCK:   -5.17 KCAL/MOL
REMARK 922        TOTAL FREE ENERGY PREDICTED BY IDOCK:   -6.99 KCAL/MOL
REMARK 923 INTER-LIGAND FREE ENERGY PREDICTED BY IDOCK:   -6.61 KCAL/MOL
REMARK 924 INTRA-LIGAND FREE ENERGY PREDICTED BY IDOCK:   -0.38 KCAL/MOL
REMARK 927      BINDING AFFINITY PREDICTED BY RF-SCORE:    0.00 PKD
ROOT
HETATM    1 CL   UNL     1     -13.364  15.862  73.298  1.00  0.00    -0.675 Cl 
HETATM    2  C   UNL     1     -12.581  15.428  71.830  1.00  0.00    -0.380 A  
HETATM    3  C   UNL     1     -12.905  14.233  71.204  1.00  0.00    -0.429 A  
HETATM    4  C   UNL     1     -12.274  13.888  70.007  1.00  0.00    -0.408 A  
HETATM    5  C   UNL     1     -11.327  14.735  69.415  1.00  0.00    -0.285 A  
HETATM    6  C   UNL     1     -11.620  16.272  71.274  1.00  0.00    -0.402 A  
HETATM    7  C   UNL     1     -10.985  15.920  70.074  1.00  0.00    -0.361 A  
ENDROOT
BRANCH   5   8
HETATM    8  N   UNL     1     -10.692  14.429  68.185  1.00  0.00    -0.232 N  
HETATM    9  H   UNL     1      -9.680  14.302  68.186  1.00  0.00     0.000 HD 
BRANCH   8  10
HETATM   10  C   UNL     1     -11.365  14.291  66.983  1.00  0.00    -0.341 C  
HETATM   11  O   UNL     1     -11.387  15.158  66.114  1.00  0.00    -0.318 OA 
BRANCH  10  12
HETATM   12  N   UNL     1     -12.012  13.073  66.856  1.00  0.00    -0.377 N  
HETATM   13  H   UNL     1     -13.032  13.066  66.879  1.00  0.00     0.000 HD 
BRANCH  12  14
HETATM   14  C   UNL     1     -11.339  11.836  66.699  1.00  0.00    -0.316 A  
HETATM   15  C   UNL     1     -10.763  11.440  65.483  1.00  0.00    -0.313 A  
HETATM   16  C   UNL     1     -10.074  10.228  65.367  1.00  0.00    -0.284 A  
HETATM   17 CL   UNL     1      -9.380   9.842  63.832  1.00  0.00    -0.305 Cl 
HETATM   18  C   UNL     1      -9.973   9.383  66.472  1.00  0.00    -0.269 A  
HETATM   19  C   UNL     1     -10.569   9.753  67.681  1.00  0.00    -0.333 A  
HETATM   20 CL   UNL     1      -9.133   7.875  66.408  1.00  0.00    -0.206 Cl 
HETATM   21  C   UNL     1     -11.260  10.968  67.792  1.00  0.00    -0.374 A  
ENDBRANCH  12  14
ENDBRANCH  10  12
ENDBRANCH   8  10
ENDBRANCH   5   8
TORSDOF 4
ENDMDL
MODEL       66
REMARK 921   NORMALIZED FREE ENERGY PREDICTED BY IDOCK:   -5.16 KCAL/MOL
REMARK 922        TOTAL FREE ENERGY PREDICTED BY IDOCK:   -6.97 KCAL/MOL
REMARK 923 INTER-LIGAND FREE ENERGY PREDICTED BY IDOCK:   -6.33 KCAL/MOL
REMARK 924 INTRA-LIGAND FREE ENERGY PREDICTED BY IDOCK:   -0.64 KCAL/MOL
REMARK 927      BINDING AFFINITY PREDICTED BY RF-SCORE:    0.00 PKD
ROOT
HETATM    1 CL   UNL     1      -7.319   9.587  63.880  1.00  0.00    -0.109 Cl 
HETATM    2  C   UNL     1      -8.795  10.445  64.084  1.00  0.00    -0.214 A  
HETATM    3  C   UNL     1      -9.385  11.068  62.993  1.00  0.00    -0.363 A  
HETATM    4  C   UNL     1     -10.589  11.755  63.161  1.00  0.00    -0.341 A  
HETATM    5  C   UNL     1     -11.223  11.816  64.409  1.00  0.00    -0.316 A  
HETATM    6  C   UNL     1      -9.394  10.516  65.341  1.00  0.00    -0.255 A  
HETATM    7  C   UNL     1     -10.601  11.212  65.506  1.00  0.00    -0.289 A  
ENDROOT
BRANCH   5   8
HETATM    8  N   UNL     1     -12.461  12.479  64.605  1.00  0.00    -0.527 N  
HETATM    9  H   UNL     1     -13.312  11.917  64.604  1.00  0.00     0.000 HD 
BRANCH   8  10
HETATM   10  C   UNL     1     -12.582  13.846  64.796  1.00  0.00    -0.295 C  
HETATM   11  O   UNL     1     -12.577  14.663  63.880  1.00  0.00    -0.834 OA 
BRANCH  10  12
HETATM   12  N   UNL     1     -12.712  14.200  66.130  1.00  0.00    -0.491 N  
HETATM   13  H   UNL     1     -13.643  14.178  66.544  1.00  0.00     0.000 HD 
BRANCH  12  14
HETATM   14  C   UNL     1     -11.624  14.591  66.950  1.00  0.00    -0.385 A  
HETATM   15  C   UNL     1     -11.766  14.839  68.323  1.00  0.00    -0.340 A  
HETATM   16  C   UNL     1     -10.667  15.190  69.114  1.00  0.00    -0.253 A  
HETATM   17 CL   UNL     1     -10.942  15.453  70.800  1.00  0.00    -0.362 Cl 
HETATM   18  C   UNL     1      -9.407  15.316  68.529  1.00  0.00    -0.200 A  
HETATM   19  C   UNL     1      -9.259  15.101  67.156  1.00  0.00    -0.226 A  
HETATM   20 CL   UNL     1      -8.003  15.739  69.441  1.00  0.00    -0.233 Cl 
HETATM   21  C   UNL     1     -10.364  14.751  66.367  1.00  0.00    -0.297 A  
ENDBRANCH  12  14
ENDBRANCH  10  12
ENDBRANCH   8  10
ENDBRANCH   5   8
TORSDOF 4
ENDMDL
MODEL       67
REMARK 921   NORMALIZED FREE ENERGY PREDICTED BY IDOCK:   -5.15 KCAL/MOL
REMARK 922        TOTAL FREE ENERGY PREDICTED BY IDOCK:   -6.96 KCAL/MOL
REMARK 923 INTER-LIGAND FREE ENERGY PREDICTED BY IDOCK:   -6.40 KCAL/MOL
REMARK 924 INTRA-LIGAND FREE ENERGY PREDICTED BY IDOCK:   -0.57 KCAL/MOL
REMARK 927      BINDING AFFINITY PREDICTED BY RF-SCORE:    0.00 PKD
ROOT
HETATM    1 CL   UNL     1     -11.963  13.289  69.282  1.00  0.00    -0.365 Cl 
HETATM    2  C   UNL     1     -12.124  11.849  70.208  1.00  0.00    -0.325 A  
HETATM    3  C   UNL     1     -11.358  10.736  69.889  1.00  0.00    -0.385 A  
HETATM    4  C   UNL     1     -11.485   9.572  70.650  1.00  0.00    -0.362 A  
HETATM    5  C   UNL     1     -12.361   9.509  71.742  1.00  0.00    -0.394 A  
HETATM    6  C   UNL     1     -13.022  11.800  71.273  1.00  0.00    -0.353 A  
HETATM    7  C   UNL     1     -13.150  10.627  72.032  1.00  0.00    -0.501 A  
ENDROOT
BRANCH   5   8
HETATM    8  N   UNL     1     -12.489   8.354  72.553  1.00  0.00    -0.555 N  
HETATM    9  H   UNL     1     -13.385   8.183  73.008  1.00  0.00     0.000 HD 
BRANCH   8  10
HETATM   10  C   UNL     1     -11.467   7.442  72.763  1.00  0.00    -0.265 C  
HETATM   11  O   UNL     1     -10.462   7.689  73.423  1.00  0.00    -0.351 OA 
BRANCH  10  12
HETATM   12  N   UNL     1     -11.695   6.218  72.154  1.00  0.00    -0.316 N  
HETATM   13  H   UNL     1     -12.380   5.592  72.577  1.00  0.00     0.000 HD 
BRANCH  12  14
HETATM   14  C   UNL     1     -11.030   5.788  70.979  1.00  0.00    -0.230 A  
HETATM   15  C   UNL     1     -11.359   6.274  69.705  1.00  0.00    -0.506 A  
HETATM   16  C   UNL     1     -10.662   5.855  68.567  1.00  0.00    -0.255 A  
HETATM   17 CL   UNL     1     -11.128   6.530  67.046  1.00  0.00    -0.476 Cl 
HETATM   18  C   UNL     1      -9.633   4.923  68.692  1.00  0.00    -0.154 A  
HETATM   19  C   UNL     1      -9.316   4.408  69.953  1.00  0.00    -0.225 A  
HETATM   20 CL   UNL     1      -8.722   4.364  67.335  1.00  0.00    -0.105 Cl 
HETATM   21  C   UNL     1     -10.019   4.829  71.091  1.00  0.00    -0.273 A  
ENDBRANCH  12  14
ENDBRANCH  10  12
ENDBRANCH   8  10
ENDBRANCH   5   8
TORSDOF 4
ENDMDL
MODEL       68
REMARK 921   NORMALIZED FREE ENERGY PREDICTED BY IDOCK:   -5.15 KCAL/MOL
REMARK 922        TOTAL FREE ENERGY PREDICTED BY IDOCK:   -6.96 KCAL/MOL
REMARK 923 INTER-LIGAND FREE ENERGY PREDICTED BY IDOCK:   -6.20 KCAL/MOL
REMARK 924 INTRA-LIGAND FREE ENERGY PREDICTED BY IDOCK:   -0.76 KCAL/MOL
REMARK 927      BINDING AFFINITY PREDICTED BY RF-SCORE:    0.00 PKD
ROOT
HETATM    1 CL   UNL     1      -7.473  10.245  65.532  1.00  0.00    -0.146 Cl 
HETATM    2  C   UNL     1      -8.503   9.634  66.766  1.00  0.00    -0.127 A  
HETATM    3  C   UNL     1      -9.682   8.986  66.421  1.00  0.00    -0.337 A  
HETATM    4  C   UNL     1     -10.510   8.482  67.425  1.00  0.00    -0.351 A  
HETATM    5  C   UNL     1     -10.169   8.605  68.779  1.00  0.00    -0.207 A  
HETATM    6  C   UNL     1      -8.157   9.791  68.108  1.00  0.00    -0.108 A  
HETATM    7  C   UNL     1      -8.995   9.289  69.113  1.00  0.00    -0.144 A  
ENDROOT
BRANCH   5   8
HETATM    8  N   UNL     1     -10.973   8.077  69.820  1.00  0.00    -0.397 N  
HETATM    9  H   UNL     1     -11.218   7.088  69.782  1.00  0.00     0.000 HD 
BRANCH   8  10
HETATM   10  C   UNL     1     -11.445   8.826  70.885  1.00  0.00    -0.284 C  
HETATM   11  O   UNL     1     -10.967   8.778  72.014  1.00  0.00    -0.339 OA 
BRANCH  10  12
HETATM   12  N   UNL     1     -12.516   9.639  70.547  1.00  0.00    -0.496 N  
HETATM   13  H   UNL     1     -13.401   9.192  70.307  1.00  0.00     0.000 HD 
BRANCH  12  14
HETATM   14  C   UNL     1     -12.451  11.054  70.516  1.00  0.00    -0.344 A  
HETATM   15  C   UNL     1     -12.974  11.856  71.541  1.00  0.00    -0.427 A  
HETATM   16  C   UNL     1     -12.865  13.250  71.499  1.00  0.00    -0.327 A  
HETATM   17 CL   UNL     1     -13.521  14.147  72.822  1.00  0.00    -0.621 Cl 
HETATM   18  C   UNL     1     -12.242  13.861  70.411  1.00  0.00    -0.368 A  
HETATM   19  C   UNL     1     -11.744  13.074  69.369  1.00  0.00    -0.386 A  
HETATM   20 CL   UNL     1     -12.063  15.574  70.292  1.00  0.00    -0.385 Cl 
HETATM   21  C   UNL     1     -11.857  11.677  69.415  1.00  0.00    -0.408 A  
ENDBRANCH  12  14
ENDBRANCH  10  12
ENDBRANCH   8  10
ENDBRANCH   5   8
TORSDOF 4
ENDMDL
MODEL       69
REMARK 921   NORMALIZED FREE ENERGY PREDICTED BY IDOCK:   -5.12 KCAL/MOL
REMARK 922        TOTAL FREE ENERGY PREDICTED BY IDOCK:   -6.93 KCAL/MOL
REMARK 923 INTER-LIGAND FREE ENERGY PREDICTED BY IDOCK:   -6.40 KCAL/MOL
REMARK 924 INTRA-LIGAND FREE ENERGY PREDICTED BY IDOCK:   -0.53 KCAL/MOL
REMARK 927      BINDING AFFINITY PREDICTED BY RF-SCORE:    0.00 PKD
ROOT
HETATM    1 CL   UNL     1     -12.144  10.047  71.555  1.00  0.00    -0.480 Cl 
HETATM    2  C   UNL     1     -12.069  11.277  70.355  1.00  0.00    -0.384 A  
HETATM    3  C   UNL     1     -11.751  10.943  69.046  1.00  0.00    -0.391 A  
HETATM    4  C   UNL     1     -11.701  11.943  68.073  1.00  0.00    -0.382 A  
HETATM    5  C   UNL     1     -11.980  13.280  68.390  1.00  0.00    -0.301 A  
HETATM    6  C   UNL     1     -12.323  12.604  70.698  1.00  0.00    -0.375 A  
HETATM    7  C   UNL     1     -12.266  13.607  69.719  1.00  0.00    -0.350 A  
ENDROOT
BRANCH   5   8
HETATM    8  N   UNL     1     -11.967  14.313  67.419  1.00  0.00    -0.489 N  
HETATM    9  H   UNL     1     -11.721  15.254  67.723  1.00  0.00     0.000 HD 
BRANCH   8  10
HETATM   10  C   UNL     1     -12.270  14.118  66.082  1.00  0.00    -0.442 C  
HETATM   11  O   UNL     1     -13.412  13.962  65.660  1.00  0.00    -0.590 OA 
BRANCH  10  12
HETATM   12  N   UNL     1     -11.152  14.119  65.264  1.00  0.00    -0.317 N  
HETATM   13  H   UNL     1     -10.741  15.018  65.013  1.00  0.00     0.000 HD 
BRANCH  12  14
HETATM   14  C   UNL     1     -10.546  12.942  64.756  1.00  0.00    -0.342 A  
HETATM   15  C   UNL     1      -9.583  12.220  65.474  1.00  0.00    -0.112 A  
HETATM   16  C   UNL     1      -9.027  11.043  64.961  1.00  0.00    -0.123 A  
HETATM   17 CL   UNL     1      -7.865  10.212  65.933  1.00  0.00    -0.126 Cl 
HETATM   18  C   UNL     1      -9.421  10.584  63.704  1.00  0.00    -0.304 A  
HETATM   19  C   UNL     1     -10.359  11.313  62.965  1.00  0.00    -0.248 A  
HETATM   20 CL   UNL     1      -8.787   9.137  63.008  1.00  0.00    -0.173 Cl 
HETATM   21  C   UNL     1     -10.911  12.493  63.484  1.00  0.00    -0.472 A  
ENDBRANCH  12  14
ENDBRANCH  10  12
ENDBRANCH   8  10
ENDBRANCH   5   8
TORSDOF 4
ENDMDL
MODEL       70
REMARK 921   NORMALIZED FREE ENERGY PREDICTED BY IDOCK:   -5.10 KCAL/MOL
REMARK 922        TOTAL FREE ENERGY PREDICTED BY IDOCK:   -6.90 KCAL/MOL
REMARK 923 INTER-LIGAND FREE ENERGY PREDICTED BY IDOCK:   -6.30 KCAL/MOL
REMARK 924 INTRA-LIGAND FREE ENERGY PREDICTED BY IDOCK:   -0.60 KCAL/MOL
REMARK 927      BINDING AFFINITY PREDICTED BY RF-SCORE:    0.00 PKD
ROOT
HETATM    1 CL   UNL     1     -11.401  14.872  69.660  1.00  0.00    -0.289 Cl 
HETATM    2  C   UNL     1     -12.095  13.508  70.444  1.00  0.00    -0.345 A  
HETATM    3  C   UNL     1     -11.875  12.235  69.935  1.00  0.00    -0.383 A  
HETATM    4  C   UNL     1     -12.431  11.129  70.581  1.00  0.00    -0.448 A  
HETATM    5  C   UNL     1     -13.198  11.277  71.745  1.00  0.00    -0.375 A  
HETATM    6  C   UNL     1     -12.878  13.680  71.585  1.00  0.00    -0.427 A  
HETATM    7  C   UNL     1     -13.440  12.568  72.228  1.00  0.00    -0.490 A  
ENDROOT
BRANCH   5   8
HETATM    8  N   UNL     1     -13.751  10.173  72.440  1.00  0.00    -0.534 N  
HETATM    9  H   UNL     1     -14.438  10.360  73.170  1.00  0.00     0.000 HD 
BRANCH   8  10
HETATM   10  C   UNL     1     -13.413   8.854  72.187  1.00  0.00    -0.448 C  
HETATM   11  O   UNL     1     -14.018   8.138  71.395  1.00  0.00    -0.335 OA 
BRANCH  10  12
HETATM   12  N   UNL     1     -12.317   8.422  72.917  1.00  0.00    -0.488 N  
HETATM   13  H   UNL     1     -12.374   8.458  73.935  1.00  0.00     0.000 HD 
BRANCH  12  14
HETATM   14  C   UNL     1     -11.122   7.934  72.332  1.00  0.00    -0.333 A  
HETATM   15  C   UNL     1     -10.135   8.783  71.813  1.00  0.00    -0.403 A  
HETATM   16  C   UNL     1      -8.950   8.273  71.272  1.00  0.00    -0.160 A  
HETATM   17 CL   UNL     1      -7.785   9.403  70.679  1.00  0.00    -0.171 Cl 
HETATM   18  C   UNL     1      -8.749   6.894  71.227  1.00  0.00    -0.134 A  
HETATM   19  C   UNL     1      -9.740   6.035  71.714  1.00  0.00    -0.171 A  
HETATM   20 CL   UNL     1      -7.311   6.189  70.582  1.00  0.00    -0.083 Cl 
HETATM   21  C   UNL     1     -10.927   6.552  72.254  1.00  0.00    -0.281 A  
ENDBRANCH  12  14
ENDBRANCH  10  12
ENDBRANCH   8  10
ENDBRANCH   5   8
TORSDOF 4
ENDMDL
MODEL       71
REMARK 921   NORMALIZED FREE ENERGY PREDICTED BY IDOCK:   -5.07 KCAL/MOL
REMARK 922        TOTAL FREE ENERGY PREDICTED BY IDOCK:   -6.87 KCAL/MOL
REMARK 923 INTER-LIGAND FREE ENERGY PREDICTED BY IDOCK:   -6.28 KCAL/MOL
REMARK 924 INTRA-LIGAND FREE ENERGY PREDICTED BY IDOCK:   -0.59 KCAL/MOL
REMARK 927      BINDING AFFINITY PREDICTED BY RF-SCORE:    0.00 PKD
ROOT
HETATM    1 CL   UNL     1      -9.258   8.022  73.520  1.00  0.00    -0.334 Cl 
HETATM    2  C   UNL     1      -9.883   8.593  72.023  1.00  0.00    -0.325 A  
HETATM    3  C   UNL     1     -11.234   8.893  71.911  1.00  0.00    -0.447 A  
HETATM    4  C   UNL     1     -11.735   9.367  70.697  1.00  0.00    -0.302 A  
HETATM    5  C   UNL     1     -10.897   9.560  69.590  1.00  0.00    -0.235 A  
HETATM    6  C   UNL     1      -9.037   8.751  70.927  1.00  0.00    -0.256 A  
HETATM    7  C   UNL     1      -9.545   9.222  69.708  1.00  0.00    -0.203 A  
ENDROOT
BRANCH   5   8
HETATM    8  N   UNL     1     -11.370  10.068  68.354  1.00  0.00    -0.521 N  
HETATM    9  H   UNL     1     -12.034   9.503  67.825  1.00  0.00     0.000 HD 
BRANCH   8  10
HETATM   10  C   UNL     1     -10.983  11.287  67.822  1.00  0.00    -0.252 C  
HETATM   11  O   UNL     1      -9.905  11.474  67.267  1.00  0.00    -0.188 OA 
BRANCH  10  12
HETATM   12  N   UNL     1     -11.939  12.278  67.979  1.00  0.00    -0.292 N  
HETATM   13  H   UNL     1     -12.722  12.297  67.326  1.00  0.00     0.000 HD 
BRANCH  12  14
HETATM   14  C   UNL     1     -11.890  13.266  68.994  1.00  0.00    -0.321 A  
HETATM   15  C   UNL     1     -11.332  14.535  68.785  1.00  0.00    -0.298 A  
HETATM   16  C   UNL     1     -11.329  15.502  69.796  1.00  0.00    -0.319 A  
HETATM   17 CL   UNL     1     -10.637  17.043  69.432  1.00  0.00    -0.310 Cl 
HETATM   18  C   UNL     1     -11.873  15.198  71.044  1.00  0.00    -0.333 A  
HETATM   19  C   UNL     1     -12.405  13.925  71.274  1.00  0.00    -0.419 A  
HETATM   20 CL   UNL     1     -11.912  16.340  72.338  1.00  0.00    -0.627 Cl 
HETATM   21  C   UNL     1     -12.404  12.959  70.257  1.00  0.00    -0.294 A  
ENDBRANCH  12  14
ENDBRANCH  10  12
ENDBRANCH   8  10
ENDBRANCH   5   8
TORSDOF 4
ENDMDL
MODEL       72
REMARK 921   NORMALIZED FREE ENERGY PREDICTED BY IDOCK:   -5.07 KCAL/MOL
REMARK 922        TOTAL FREE ENERGY PREDICTED BY IDOCK:   -6.86 KCAL/MOL
REMARK 923 INTER-LIGAND FREE ENERGY PREDICTED BY IDOCK:   -6.51 KCAL/MOL
REMARK 924 INTRA-LIGAND FREE ENERGY PREDICTED BY IDOCK:   -0.36 KCAL/MOL
REMARK 927      BINDING AFFINITY PREDICTED BY RF-SCORE:    0.00 PKD
ROOT
HETATM    1 CL   UNL     1     -12.449   8.352  72.447  1.00  0.00    -0.410 Cl 
HETATM    2  C   UNL     1     -11.945   9.598  71.374  1.00  0.00    -0.399 A  
HETATM    3  C   UNL     1     -12.609  10.817  71.374  1.00  0.00    -0.516 A  
HETATM    4  C   UNL     1     -12.190  11.830  70.509  1.00  0.00    -0.438 A  
HETATM    5  C   UNL     1     -11.100  11.645  69.648  1.00  0.00    -0.108 A  
HETATM    6  C   UNL     1     -10.875   9.383  70.506  1.00  0.00    -0.336 A  
HETATM    7  C   UNL     1     -10.461  10.401  69.635  1.00  0.00    -0.279 A  
ENDROOT
BRANCH   5   8
HETATM    8  N   UNL     1     -10.631  12.663  68.780  1.00  0.00    -0.351 N  
HETATM    9  H   UNL     1      -9.974  13.347  69.154  1.00  0.00     0.000 HD 
BRANCH   8  10
HETATM   10  C   UNL     1     -11.015  12.784  67.454  1.00  0.00    -0.253 C  
HETATM   11  O   UNL     1     -12.035  12.280  66.994  1.00  0.00    -0.576 OA 
BRANCH  10  12
HETATM   12  N   UNL     1     -10.129  13.533  66.697  1.00  0.00    -0.270 N  
HETATM   13  H   UNL     1      -9.370  13.045  66.222  1.00  0.00     0.000 HD 
BRANCH  12  14
HETATM   14  C   UNL     1     -10.217  14.940  66.545  1.00  0.00    -0.275 A  
HETATM   15  C   UNL     1      -9.729  15.835  67.507  1.00  0.00    -0.226 A  
HETATM   16  C   UNL     1      -9.800  17.219  67.314  1.00  0.00    -0.267 A  
HETATM   17 CL   UNL     1      -9.150  18.237  68.549  1.00  0.00    -0.326 Cl 
HETATM   18  C   UNL     1     -10.382  17.724  66.152  1.00  0.00    -0.340 A  
HETATM   19  C   UNL     1     -10.900  16.842  65.199  1.00  0.00    -0.150 A  
HETATM   20 CL   UNL     1     -10.499  19.418  65.838  1.00  0.00    -0.582 Cl 
HETATM   21  C   UNL     1     -10.828  15.455  65.398  1.00  0.00    -0.403 A  
ENDBRANCH  12  14
ENDBRANCH  10  12
ENDBRANCH   8  10
ENDBRANCH   5   8
TORSDOF 4
ENDMDL
MODEL       73
REMARK 921   NORMALIZED FREE ENERGY PREDICTED BY IDOCK:   -5.07 KCAL/MOL
REMARK 922        TOTAL FREE ENERGY PREDICTED BY IDOCK:   -6.86 KCAL/MOL
REMARK 923 INTER-LIGAND FREE ENERGY PREDICTED BY IDOCK:   -6.17 KCAL/MOL
REMARK 924 INTRA-LIGAND FREE ENERGY PREDICTED BY IDOCK:   -0.70 KCAL/MOL
REMARK 927      BINDING AFFINITY PREDICTED BY RF-SCORE:    0.00 PKD
ROOT
HETATM    1 CL   UNL     1      -8.113   8.868  64.461  1.00  0.00    -0.142 Cl 
HETATM    2  C   UNL     1      -9.391  10.014  64.561  1.00  0.00    -0.286 A  
HETATM    3  C   UNL     1      -9.771  10.722  63.429  1.00  0.00    -0.394 A  
HETATM    4  C   UNL     1     -10.816  11.644  63.512  1.00  0.00    -0.497 A  
HETATM    5  C   UNL     1     -11.501  11.861  64.715  1.00  0.00    -0.260 A  
HETATM    6  C   UNL     1     -10.040  10.234  65.775  1.00  0.00    -0.325 A  
HETATM    7  C   UNL     1     -11.085  11.165  65.856  1.00  0.00    -0.105 A  
ENDROOT
BRANCH   5   8
HETATM    8  N   UNL     1     -12.585  12.767  64.824  1.00  0.00    -0.638 N  
HETATM    9  H   UNL     1     -13.528  12.383  64.883  1.00  0.00     0.000 HD 
BRANCH   8  10
HETATM   10  C   UNL     1     -12.439  14.144  64.856  1.00  0.00    -0.401 C  
HETATM   11  O   UNL     1     -12.666  14.873  63.895  1.00  0.00    -0.789 OA 
BRANCH  10  12
HETATM   12  N   UNL     1     -12.012  14.619  66.086  1.00  0.00    -0.298 N  
HETATM   13  H   UNL     1     -12.668  14.589  66.866  1.00  0.00     0.000 HD 
BRANCH  12  14
HETATM   14  C   UNL     1     -10.717  15.144  66.321  1.00  0.00    -0.320 A  
HETATM   15  C   UNL     1      -9.643  14.344  66.739  1.00  0.00    -0.279 A  
HETATM   16  C   UNL     1      -8.367  14.884  66.930  1.00  0.00    -0.177 A  
HETATM   17 CL   UNL     1      -7.106  13.811  67.423  1.00  0.00    -0.159 Cl 
HETATM   18  C   UNL     1      -8.157  16.247  66.722  1.00  0.00    -0.264 A  
HETATM   19  C   UNL     1      -9.226  17.060  66.335  1.00  0.00    -0.298 A  
HETATM   20 CL   UNL     1      -6.609  16.985  66.930  1.00  0.00    -0.230 Cl 
HETATM   21  C   UNL     1     -10.504  16.514  66.146  1.00  0.00    -0.301 A  
ENDBRANCH  12  14
ENDBRANCH  10  12
ENDBRANCH   8  10
ENDBRANCH   5   8
TORSDOF 4
ENDMDL
MODEL       74
REMARK 921   NORMALIZED FREE ENERGY PREDICTED BY IDOCK:   -5.06 KCAL/MOL
REMARK 922        TOTAL FREE ENERGY PREDICTED BY IDOCK:   -6.86 KCAL/MOL
REMARK 923 INTER-LIGAND FREE ENERGY PREDICTED BY IDOCK:   -6.49 KCAL/MOL
REMARK 924 INTRA-LIGAND FREE ENERGY PREDICTED BY IDOCK:   -0.37 KCAL/MOL
REMARK 927      BINDING AFFINITY PREDICTED BY RF-SCORE:    0.00 PKD
ROOT
HETATM    1 CL   UNL     1     -12.563  16.176  74.393  1.00  0.00    -0.635 Cl 
HETATM    2  C   UNL     1     -12.528  15.420  72.849  1.00  0.00    -0.418 A  
HETATM    3  C   UNL     1     -13.326  14.310  72.608  1.00  0.00    -0.619 A  
HETATM    4  C   UNL     1     -13.303  13.706  71.349  1.00  0.00    -0.321 A  
HETATM    5  C   UNL     1     -12.499  14.207  70.317  1.00  0.00    -0.353 A  
HETATM    6  C   UNL     1     -11.700  15.920  71.845  1.00  0.00    -0.590 A  
HETATM    7  C   UNL     1     -11.676  15.306  70.584  1.00  0.00    -0.371 A  
ENDROOT
BRANCH   5   8
HETATM    8  N   UNL     1     -12.477  13.635  69.020  1.00  0.00    -0.231 N  
HETATM    9  H   UNL     1     -12.907  14.158  68.258  1.00  0.00     0.000 HD 
BRANCH   8  10
HETATM   10  C   UNL     1     -11.905  12.408  68.728  1.00  0.00    -0.311 C  
HETATM   11  O   UNL     1     -12.127  11.386  69.370  1.00  0.00    -0.315 OA 
BRANCH  10  12
HETATM   12  N   UNL     1     -11.056  12.449  67.635  1.00  0.00    -0.245 N  
HETATM   13  H   UNL     1     -10.867  11.577  67.141  1.00  0.00     0.000 HD 
BRANCH  12  14
HETATM   14  C   UNL     1     -10.434  13.632  67.163  1.00  0.00    -0.264 A  
HETATM   15  C   UNL     1     -11.010  14.445  66.176  1.00  0.00    -0.320 A  
HETATM   16  C   UNL     1     -10.389  15.625  65.755  1.00  0.00    -0.365 A  
HETATM   17 CL   UNL     1     -11.190  16.569  64.550  1.00  0.00    -0.265 Cl 
HETATM   18  C   UNL     1      -9.165  15.997  66.310  1.00  0.00    -0.333 A  
HETATM   19  C   UNL     1      -8.566  15.179  67.273  1.00  0.00    -0.218 A  
HETATM   20 CL   UNL     1      -8.341  17.443  65.848  1.00  0.00    -0.116 Cl 
HETATM   21  C   UNL     1      -9.192  13.996  67.691  1.00  0.00    -0.194 A  
ENDBRANCH  12  14
ENDBRANCH  10  12
ENDBRANCH   8  10
ENDBRANCH   5   8
TORSDOF 4
ENDMDL
MODEL       75
REMARK 921   NORMALIZED FREE ENERGY PREDICTED BY IDOCK:   -5.06 KCAL/MOL
REMARK 922        TOTAL FREE ENERGY PREDICTED BY IDOCK:   -6.85 KCAL/MOL
REMARK 923 INTER-LIGAND FREE ENERGY PREDICTED BY IDOCK:   -6.41 KCAL/MOL
REMARK 924 INTRA-LIGAND FREE ENERGY PREDICTED BY IDOCK:   -0.44 KCAL/MOL
REMARK 927      BINDING AFFINITY PREDICTED BY RF-SCORE:    0.00 PKD
ROOT
HETATM    1 CL   UNL     1      -9.724  18.842  66.430  1.00  0.00    -0.377 Cl 
HETATM    2  C   UNL     1     -10.386  17.259  66.536  1.00  0.00    -0.308 A  
HETATM    3  C   UNL     1     -10.617  16.530  65.377  1.00  0.00    -0.293 A  
HETATM    4  C   UNL     1     -11.145  15.241  65.468  1.00  0.00    -0.330 A  
HETATM    5  C   UNL     1     -11.434  14.659  66.710  1.00  0.00    -0.364 A  
HETATM    6  C   UNL     1     -10.691  16.710  67.781  1.00  0.00    -0.327 A  
HETATM    7  C   UNL     1     -11.226  15.417  67.867  1.00  0.00    -0.329 A  
ENDROOT
BRANCH   5   8
HETATM    8  N   UNL     1     -11.941  13.342  66.837  1.00  0.00    -0.387 N  
HETATM    9  H   UNL     1     -12.947  13.224  66.948  1.00  0.00     0.000 HD 
BRANCH   8  10
HETATM   10  C   UNL     1     -11.149  12.205  66.819  1.00  0.00    -0.300 C  
HETATM   11  O   UNL     1     -11.047  11.464  65.846  1.00  0.00    -0.257 OA 
BRANCH  10  12
HETATM   12  N   UNL     1     -10.480  11.989  68.013  1.00  0.00    -0.200 N  
HETATM   13  H   UNL     1      -9.522  12.330  68.095  1.00  0.00     0.000 HD 
BRANCH  12  14
HETATM   14  C   UNL     1     -11.049  11.320  69.125  1.00  0.00    -0.253 A  
HETATM   15  C   UNL     1     -11.884  11.966  70.048  1.00  0.00    -0.407 A  
HETATM   16  C   UNL     1     -12.459  11.271  71.117  1.00  0.00    -0.373 A  
HETATM   17 CL   UNL     1     -13.492  12.153  72.186  1.00  0.00    -0.531 Cl 
HETATM   18  C   UNL     1     -12.186   9.914  71.285  1.00  0.00    -0.387 A  
HETATM   19  C   UNL     1     -11.330   9.266  70.389  1.00  0.00    -0.283 A  
HETATM   20 CL   UNL     1     -12.863   8.987  72.575  1.00  0.00    -0.453 Cl 
HETATM   21  C   UNL     1     -10.755   9.967  69.320  1.00  0.00    -0.249 A  
ENDBRANCH  12  14
ENDBRANCH  10  12
ENDBRANCH   8  10
ENDBRANCH   5   8
TORSDOF 4
ENDMDL
MODEL       76
REMARK 921   NORMALIZED FREE ENERGY PREDICTED BY IDOCK:   -5.05 KCAL/MOL
REMARK 922        TOTAL FREE ENERGY PREDICTED BY IDOCK:   -6.84 KCAL/MOL
REMARK 923 INTER-LIGAND FREE ENERGY PREDICTED BY IDOCK:   -6.62 KCAL/MOL
REMARK 924 INTRA-LIGAND FREE ENERGY PREDICTED BY IDOCK:   -0.22 KCAL/MOL
REMARK 927      BINDING AFFINITY PREDICTED BY RF-SCORE:    0.00 PKD
ROOT
HETATM    1 CL   UNL     1      -8.147   6.520  68.774  1.00  0.00    -0.117 Cl 
HETATM    2  C   UNL     1      -9.330   7.078  69.891  1.00  0.00    -0.150 A  
HETATM    3  C   UNL     1     -10.488   6.339  70.094  1.00  0.00    -0.278 A  
HETATM    4  C   UNL     1     -11.441   6.790  71.010  1.00  0.00    -0.372 A  
HETATM    5  C   UNL     1     -11.245   7.970  71.740  1.00  0.00    -0.266 A  
HETATM    6  C   UNL     1      -9.128   8.269  70.587  1.00  0.00    -0.164 A  
HETATM    7  C   UNL     1     -10.090   8.721  71.501  1.00  0.00    -0.371 A  
ENDROOT
BRANCH   5   8
HETATM    8  N   UNL     1     -12.179   8.438  72.699  1.00  0.00    -0.537 N  
HETATM    9  H   UNL     1     -12.020   8.202  73.678  1.00  0.00     0.000 HD 
BRANCH   8  10
HETATM   10  C   UNL     1     -13.295   9.196  72.383  1.00  0.00    -0.463 C  
HETATM   11  O   UNL     1     -14.325   9.197  73.049  1.00  0.00    -0.439 OA 
BRANCH  10  12
HETATM   12  N   UNL     1     -13.130   9.956  71.236  1.00  0.00    -0.385 N  
HETATM   13  H   UNL     1     -13.134   9.476  70.337  1.00  0.00     0.000 HD 
BRANCH  12  14
HETATM   14  C   UNL     1     -12.956  11.363  71.242  1.00  0.00    -0.316 A  
HETATM   15  C   UNL     1     -12.269  12.042  70.226  1.00  0.00    -0.348 A  
HETATM   16  C   UNL     1     -12.142  13.435  70.242  1.00  0.00    -0.349 A  
HETATM   17 CL   UNL     1     -11.297  14.180  68.931  1.00  0.00    -0.286 Cl 
HETATM   18  C   UNL     1     -12.692  14.166  71.294  1.00  0.00    -0.361 A  
HETATM   19  C   UNL     1     -13.353  13.497  72.329  1.00  0.00    -0.628 A  
HETATM   20 CL   UNL     1     -12.584  15.888  71.379  1.00  0.00    -0.493 Cl 
HETATM   21  C   UNL     1     -13.476  12.100  72.309  1.00  0.00    -0.298 A  
ENDBRANCH  12  14
ENDBRANCH  10  12
ENDBRANCH   8  10
ENDBRANCH   5   8
TORSDOF 4
ENDMDL
MODEL       77
REMARK 921   NORMALIZED FREE ENERGY PREDICTED BY IDOCK:   -5.04 KCAL/MOL
REMARK 922        TOTAL FREE ENERGY PREDICTED BY IDOCK:   -6.82 KCAL/MOL
REMARK 923 INTER-LIGAND FREE ENERGY PREDICTED BY IDOCK:   -6.37 KCAL/MOL
REMARK 924 INTRA-LIGAND FREE ENERGY PREDICTED BY IDOCK:   -0.45 KCAL/MOL
REMARK 927      BINDING AFFINITY PREDICTED BY RF-SCORE:    0.00 PKD
ROOT
HETATM    1 CL   UNL     1      -9.994   5.090  65.910  1.00  0.00    -0.198 Cl 
HETATM    2  C   UNL     1     -10.191   6.137  67.260  1.00  0.00    -0.191 A  
HETATM    3  C   UNL     1     -10.409   5.601  68.521  1.00  0.00    -0.265 A  
HETATM    4  C   UNL     1     -10.559   6.455  69.616  1.00  0.00    -0.309 A  
HETATM    5  C   UNL     1     -10.479   7.846  69.469  1.00  0.00    -0.226 A  
HETATM    6  C   UNL     1     -10.136   7.520  67.086  1.00  0.00    -0.317 A  
HETATM    7  C   UNL     1     -10.292   8.374  68.187  1.00  0.00    -0.255 A  
ENDROOT
BRANCH   5   8
HETATM    8  N   UNL     1     -10.596   8.738  70.565  1.00  0.00    -0.207 N  
HETATM    9  H   UNL     1      -9.757   9.226  70.878  1.00  0.00     0.000 HD 
BRANCH   8  10
HETATM   10  C   UNL     1     -11.782   8.984  71.236  1.00  0.00    -0.313 C  
HETATM   11  O   UNL     1     -12.062   8.490  72.324  1.00  0.00    -0.358 OA 
BRANCH  10  12
HETATM   12  N   UNL     1     -12.625   9.848  70.554  1.00  0.00    -0.508 N  
HETATM   13  H   UNL     1     -13.244   9.455  69.845  1.00  0.00     0.000 HD 
BRANCH  12  14
HETATM   14  C   UNL     1     -12.675  11.245  70.785  1.00  0.00    -0.269 A  
HETATM   15  C   UNL     1     -12.032  12.171  69.952  1.00  0.00    -0.380 A  
HETATM   16  C   UNL     1     -12.128  13.547  70.186  1.00  0.00    -0.354 A  
HETATM   17 CL   UNL     1     -11.318  14.608  69.087  1.00  0.00    -0.284 Cl 
HETATM   18  C   UNL     1     -12.859  14.012  71.278  1.00  0.00    -0.358 A  
HETATM   19  C   UNL     1     -13.478  13.097  72.135  1.00  0.00    -0.653 A  
HETATM   20 CL   UNL     1     -13.029  15.695  71.628  1.00  0.00    -0.523 Cl 
HETATM   21  C   UNL     1     -13.378  11.719  71.896  1.00  0.00    -0.401 A  
ENDBRANCH  12  14
ENDBRANCH  10  12
ENDBRANCH   8  10
ENDBRANCH   5   8
TORSDOF 4
ENDMDL
MODEL       78
REMARK 921   NORMALIZED FREE ENERGY PREDICTED BY IDOCK:   -5.02 KCAL/MOL
REMARK 922        TOTAL FREE ENERGY PREDICTED BY IDOCK:   -6.80 KCAL/MOL
REMARK 923 INTER-LIGAND FREE ENERGY PREDICTED BY IDOCK:   -6.28 KCAL/MOL
REMARK 924 INTRA-LIGAND FREE ENERGY PREDICTED BY IDOCK:   -0.53 KCAL/MOL
REMARK 927      BINDING AFFINITY PREDICTED BY RF-SCORE:    0.00 PKD
ROOT
HETATM    1 CL   UNL     1     -12.251  14.242  64.595  1.00  0.00    -0.466 Cl 
HETATM    2  C   UNL     1     -12.009  13.569  66.159  1.00  0.00    -0.412 A  
HETATM    3  C   UNL     1     -11.718  12.217  66.289  1.00  0.00    -0.431 A  
HETATM    4  C   UNL     1     -11.512  11.677  67.560  1.00  0.00    -0.360 A  
HETATM    5  C   UNL     1     -11.577  12.476  68.709  1.00  0.00    -0.322 A  
HETATM    6  C   UNL     1     -12.106  14.377  67.291  1.00  0.00    -0.358 A  
HETATM    7  C   UNL     1     -11.903  13.828  68.566  1.00  0.00    -0.406 A  
ENDROOT
BRANCH   5   8
HETATM    8  N   UNL     1     -11.342  11.963  70.010  1.00  0.00    -0.510 N  
HETATM    9  H   UNL     1     -10.699  12.471  70.617  1.00  0.00     0.000 HD 
BRANCH   8  10
HETATM   10  C   UNL     1     -11.934  10.813  70.504  1.00  0.00    -0.361 C  
HETATM   11  O   UNL     1     -13.143  10.691  70.677  1.00  0.00    -0.318 OA 
BRANCH  10  12
HETATM   12  N   UNL     1     -11.022   9.808  70.784  1.00  0.00    -0.315 N  
HETATM   13  H   UNL     1     -10.453   9.896  71.626  1.00  0.00     0.000 HD 
BRANCH  12  14
HETATM   14  C   UNL     1     -10.833   8.665  69.966  1.00  0.00    -0.221 A  
HETATM   15  C   UNL     1     -10.292   8.742  68.675  1.00  0.00    -0.230 A  
HETATM   16  C   UNL     1     -10.086   7.592  67.905  1.00  0.00    -0.185 A  
HETATM   17 CL   UNL     1      -9.393   7.791  66.335  1.00  0.00    -0.239 Cl 
HETATM   18  C   UNL     1     -10.442   6.345  68.418  1.00  0.00    -0.222 A  
HETATM   19  C   UNL     1     -11.010   6.259  69.692  1.00  0.00    -0.440 A  
HETATM   20 CL   UNL     1     -10.211   4.881  67.531  1.00  0.00    -0.184 Cl 
HETATM   21  C   UNL     1     -11.216   7.414  70.460  1.00  0.00    -0.296 A  
ENDBRANCH  12  14
ENDBRANCH  10  12
ENDBRANCH   8  10
ENDBRANCH   5   8
TORSDOF 4
ENDMDL
MODEL       79
REMARK 921   NORMALIZED FREE ENERGY PREDICTED BY IDOCK:   -4.99 KCAL/MOL
REMARK 922        TOTAL FREE ENERGY PREDICTED BY IDOCK:   -6.76 KCAL/MOL
REMARK 923 INTER-LIGAND FREE ENERGY PREDICTED BY IDOCK:   -6.14 KCAL/MOL
REMARK 924 INTRA-LIGAND FREE ENERGY PREDICTED BY IDOCK:   -0.62 KCAL/MOL
REMARK 927      BINDING AFFINITY PREDICTED BY RF-SCORE:    0.00 PKD
ROOT
HETATM    1 CL   UNL     1     -10.888   9.727  67.494  1.00  0.00    -0.332 Cl 
HETATM    2  C   UNL     1     -11.346  11.225  68.204  1.00  0.00    -0.303 A  
HETATM    3  C   UNL     1     -11.442  12.362  67.414  1.00  0.00    -0.418 A  
HETATM    4  C   UNL     1     -11.824  13.573  67.993  1.00  0.00    -0.400 A  
HETATM    5  C   UNL     1     -12.128  13.662  69.358  1.00  0.00    -0.314 A  
HETATM    6  C   UNL     1     -11.617  11.297  69.570  1.00  0.00    -0.398 A  
HETATM    7  C   UNL     1     -11.995  12.517  70.149  1.00  0.00    -0.377 A  
ENDROOT
BRANCH   5   8
HETATM    8  N   UNL     1     -12.548  14.870  69.969  1.00  0.00    -0.547 N  
HETATM    9  H   UNL     1     -13.534  15.123  69.905  1.00  0.00     0.000 HD 
BRANCH   8  10
HETATM   10  C   UNL     1     -11.698  15.728  70.648  1.00  0.00    -0.385 C  
HETATM   11  O   UNL     1     -11.324  15.540  71.802  1.00  0.00    -0.404 OA 
BRANCH  10  12
HETATM   12  N   UNL     1     -11.310  16.822  69.891  1.00  0.00    -0.275 N  
HETATM   13  H   UNL     1     -11.923  17.636  69.874  1.00  0.00     0.000 HD 
BRANCH  12  14
HETATM   14  C   UNL     1     -10.109  16.873  69.140  1.00  0.00    -0.269 A  
HETATM   15  C   UNL     1      -9.797  17.943  68.289  1.00  0.00    -0.348 A  
HETATM   16  C   UNL     1      -8.588  17.982  67.585  1.00  0.00    -0.247 A  
HETATM   17 CL   UNL     1      -8.288  19.355  66.580  1.00  0.00    -0.321 Cl 
HETATM   18  C   UNL     1      -7.680  16.932  67.715  1.00  0.00    -0.173 A  
HETATM   19  C   UNL     1      -7.993  15.845  68.537  1.00  0.00    -0.152 A  
HETATM   20 CL   UNL     1      -6.165  16.912  66.886  1.00  0.00    -0.215 Cl 
HETATM   21  C   UNL     1      -9.207  15.810  69.239  1.00  0.00    -0.266 A  
ENDBRANCH  12  14
ENDBRANCH  10  12
ENDBRANCH   8  10
ENDBRANCH   5   8
TORSDOF 4
ENDMDL
MODEL       80
REMARK 921   NORMALIZED FREE ENERGY PREDICTED BY IDOCK:   -4.97 KCAL/MOL
REMARK 922        TOTAL FREE ENERGY PREDICTED BY IDOCK:   -6.75 KCAL/MOL
REMARK 923 INTER-LIGAND FREE ENERGY PREDICTED BY IDOCK:   -6.38 KCAL/MOL
REMARK 924 INTRA-LIGAND FREE ENERGY PREDICTED BY IDOCK:   -0.36 KCAL/MOL
REMARK 927      BINDING AFFINITY PREDICTED BY RF-SCORE:    0.00 PKD
ROOT
HETATM    1 CL   UNL     1     -11.490   6.476  72.125  1.00  0.00    -0.315 Cl 
HETATM    2  C   UNL     1     -11.132   6.862  70.488  1.00  0.00    -0.288 A  
HETATM    3  C   UNL     1     -11.030   5.846  69.547  1.00  0.00    -0.438 A  
HETATM    4  C   UNL     1     -10.749   6.165  68.217  1.00  0.00    -0.361 A  
HETATM    5  C   UNL     1     -10.581   7.495  67.808  1.00  0.00    -0.206 A  
HETATM    6  C   UNL     1     -10.941   8.190  70.108  1.00  0.00    -0.223 A  
HETATM    7  C   UNL     1     -10.653   8.506  68.772  1.00  0.00    -0.162 A  
ENDROOT
BRANCH   5   8
HETATM    8  N   UNL     1     -10.326   7.853  66.461  1.00  0.00    -0.483 N  
HETATM    9  H   UNL     1     -10.992   7.553  65.750  1.00  0.00     0.000 HD 
BRANCH   8  10
HETATM   10  C   UNL     1      -9.223   8.585  66.053  1.00  0.00    -0.202 C  
HETATM   11  O   UNL     1      -8.152   8.591  66.652  1.00  0.00    -0.101 OA 
BRANCH  10  12
HETATM   12  N   UNL     1      -9.450   9.312  64.895  1.00  0.00    -0.449 N  
HETATM   13  H   UNL     1      -9.094   8.939  64.016  1.00  0.00     0.000 HD 
BRANCH  12  14
HETATM   14  C   UNL     1     -10.148  10.545  64.863  1.00  0.00    -0.333 A  
HETATM   15  C   UNL     1     -10.610  11.181  66.025  1.00  0.00    -0.298 A  
HETATM   16  C   UNL     1     -11.267  12.415  65.965  1.00  0.00    -0.335 A  
HETATM   17 CL   UNL     1     -11.777  13.127  67.454  1.00  0.00    -0.400 Cl 
HETATM   18  C   UNL     1     -11.486  13.020  64.728  1.00  0.00    -0.327 A  
HETATM   19  C   UNL     1     -11.057  12.382  63.560  1.00  0.00    -0.521 A  
HETATM   20 CL   UNL     1     -12.281  14.545  64.573  1.00  0.00    -0.492 Cl 
HETATM   21  C   UNL     1     -10.401  11.144  63.626  1.00  0.00    -0.449 A  
ENDBRANCH  12  14
ENDBRANCH  10  12
ENDBRANCH   8  10
ENDBRANCH   5   8
TORSDOF 4
ENDMDL
MODEL       81
REMARK 921   NORMALIZED FREE ENERGY PREDICTED BY IDOCK:   -4.96 KCAL/MOL
REMARK 922        TOTAL FREE ENERGY PREDICTED BY IDOCK:   -6.73 KCAL/MOL
REMARK 923 INTER-LIGAND FREE ENERGY PREDICTED BY IDOCK:   -6.57 KCAL/MOL
REMARK 924 INTRA-LIGAND FREE ENERGY PREDICTED BY IDOCK:   -0.15 KCAL/MOL
REMARK 927      BINDING AFFINITY PREDICTED BY RF-SCORE:    0.00 PKD
ROOT
HETATM    1 CL   UNL     1     -12.872   7.604  71.658  1.00  0.00    -0.363 Cl 
HETATM    2  C   UNL     1     -12.473   9.203  71.165  1.00  0.00    -0.254 A  
HETATM    3  C   UNL     1     -13.051  10.287  71.812  1.00  0.00    -0.570 A  
HETATM    4  C   UNL     1     -12.716  11.583  71.416  1.00  0.00    -0.469 A  
HETATM    5  C   UNL     1     -11.795  11.814  70.386  1.00  0.00    -0.271 A  
HETATM    6  C   UNL     1     -11.575   9.409  70.119  1.00  0.00    -0.117 A  
HETATM    7  C   UNL     1     -11.245  10.713  69.721  1.00  0.00    -0.363 A  
ENDROOT
BRANCH   5   8
HETATM    8  N   UNL     1     -11.411  13.117  69.982  1.00  0.00    -0.519 N  
HETATM    9  H   UNL     1     -10.417  13.310  69.863  1.00  0.00     0.000 HD 
BRANCH   8  10
HETATM   10  C   UNL     1     -12.308  14.145  69.740  1.00  0.00    -0.299 C  
HETATM   11  O   UNL     1     -13.237  14.426  70.491  1.00  0.00    -0.266 OA 
BRANCH  10  12
HETATM   12  N   UNL     1     -12.050  14.827  68.562  1.00  0.00    -0.578 N  
HETATM   13  H   UNL     1     -12.193  15.836  68.550  1.00  0.00     0.000 HD 
BRANCH  12  14
HETATM   14  C   UNL     1     -11.598  14.202  67.372  1.00  0.00    -0.372 A  
HETATM   15  C   UNL     1     -12.468  13.556  66.482  1.00  0.00    -0.309 A  
HETATM   16  C   UNL     1     -11.997  12.978  65.299  1.00  0.00    -0.407 A  
HETATM   17 CL   UNL     1     -13.153  12.226  64.257  1.00  0.00    -0.279 Cl 
HETATM   18  C   UNL     1     -10.636  13.024  65.002  1.00  0.00    -0.319 A  
HETATM   19  C   UNL     1      -9.754  13.639  65.896  1.00  0.00    -0.206 A  
HETATM   20 CL   UNL     1      -9.981  12.340  63.558  1.00  0.00    -0.352 Cl 
HETATM   21  C   UNL     1     -10.231  14.216  67.082  1.00  0.00    -0.258 A  
ENDBRANCH  12  14
ENDBRANCH  10  12
ENDBRANCH   8  10
ENDBRANCH   5   8
TORSDOF 4
ENDMDL
MODEL       82
REMARK 921   NORMALIZED FREE ENERGY PREDICTED BY IDOCK:   -4.95 KCAL/MOL
REMARK 922        TOTAL FREE ENERGY PREDICTED BY IDOCK:   -6.72 KCAL/MOL
REMARK 923 INTER-LIGAND FREE ENERGY PREDICTED BY IDOCK:   -6.35 KCAL/MOL
REMARK 924 INTRA-LIGAND FREE ENERGY PREDICTED BY IDOCK:   -0.37 KCAL/MOL
REMARK 927      BINDING AFFINITY PREDICTED BY RF-SCORE:    0.00 PKD
ROOT
HETATM    1 CL   UNL     1     -10.479   4.547  72.848  1.00  0.00    -0.239 Cl 
HETATM    2  C   UNL     1     -10.841   6.054  72.104  1.00  0.00    -0.251 A  
HETATM    3  C   UNL     1     -10.894   6.143  70.719  1.00  0.00    -0.350 A  
HETATM    4  C   UNL     1     -11.198   7.367  70.119  1.00  0.00    -0.239 A  
HETATM    5  C   UNL     1     -11.466   8.508  70.889  1.00  0.00    -0.267 A  
HETATM    6  C   UNL     1     -11.076   7.183  72.888  1.00  0.00    -0.338 A  
HETATM    7  C   UNL     1     -11.376   8.411  72.281  1.00  0.00    -0.448 A  
ENDROOT
BRANCH   5   8
HETATM    8  N   UNL     1     -11.807   9.756  70.310  1.00  0.00    -0.431 N  
HETATM    9  H   UNL     1     -12.658  10.216  70.631  1.00  0.00     0.000 HD 
BRANCH   8  10
HETATM   10  C   UNL     1     -11.053  10.386  69.334  1.00  0.00    -0.254 C  
HETATM   11  O   UNL     1      -9.842  10.567  69.424  1.00  0.00    -0.221 OA 
BRANCH  10  12
HETATM   12  N   UNL     1     -11.803  10.792  68.243  1.00  0.00    -0.399 N  
HETATM   13  H   UNL     1     -12.550  10.178  67.918  1.00  0.00     0.000 HD 
BRANCH  12  14
HETATM   14  C   UNL     1     -11.592  12.011  67.551  1.00  0.00    -0.330 A  
HETATM   15  C   UNL     1     -11.665  13.260  68.185  1.00  0.00    -0.397 A  
HETATM   16  C   UNL     1     -11.419  14.445  67.484  1.00  0.00    -0.349 A  
HETATM   17 CL   UNL     1     -11.511  15.932  68.360  1.00  0.00    -0.367 Cl 
HETATM   18  C   UNL     1     -11.113  14.392  66.124  1.00  0.00    -0.330 A  
HETATM   19  C   UNL     1     -11.067  13.154  65.475  1.00  0.00    -0.299 A  
HETATM   20 CL   UNL     1     -10.789  15.810  65.193  1.00  0.00    -0.435 Cl 
HETATM   21  C   UNL     1     -11.317  11.969  66.182  1.00  0.00    -0.407 A  
ENDBRANCH  12  14
ENDBRANCH  10  12
ENDBRANCH   8  10
ENDBRANCH   5   8
TORSDOF 4
ENDMDL
MODEL       83
REMARK 921   NORMALIZED FREE ENERGY PREDICTED BY IDOCK:   -4.95 KCAL/MOL
REMARK 922        TOTAL FREE ENERGY PREDICTED BY IDOCK:   -6.72 KCAL/MOL
REMARK 923 INTER-LIGAND FREE ENERGY PREDICTED BY IDOCK:   -6.19 KCAL/MOL
REMARK 924 INTRA-LIGAND FREE ENERGY PREDICTED BY IDOCK:   -0.53 KCAL/MOL
REMARK 927      BINDING AFFINITY PREDICTED BY RF-SCORE:    0.00 PKD
ROOT
HETATM    1 CL   UNL     1     -11.184  14.417  64.633  1.00  0.00    -0.378 Cl 
HETATM    2  C   UNL     1     -10.549  12.820  64.690  1.00  0.00    -0.349 A  
HETATM    3  C   UNL     1     -10.042  12.322  65.883  1.00  0.00    -0.272 A  
HETATM    4  C   UNL     1      -9.537  11.022  65.927  1.00  0.00    -0.255 A  
HETATM    5  C   UNL     1      -9.544  10.200  64.791  1.00  0.00    -0.314 A  
HETATM    6  C   UNL     1     -10.540  12.030  63.541  1.00  0.00    -0.514 A  
HETATM    7  C   UNL     1     -10.027  10.726  63.589  1.00  0.00    -0.405 A  
ENDROOT
BRANCH   5   8
HETATM    8  N   UNL     1      -9.067   8.866  64.812  1.00  0.00    -0.436 N  
HETATM    9  H   UNL     1      -8.765   8.450  63.931  1.00  0.00     0.000 HD 
BRANCH   8  10
HETATM   10  C   UNL     1      -8.986   8.093  65.959  1.00  0.00    -0.171 C  
HETATM   11  O   UNL     1      -7.927   7.788  66.499  1.00  0.00    -0.102 OA 
BRANCH  10  12
HETATM   12  N   UNL     1     -10.225   7.697  66.437  1.00  0.00    -0.485 N  
HETATM   13  H   UNL     1     -10.964   7.509  65.759  1.00  0.00     0.000 HD 
BRANCH  12  14
HETATM   14  C   UNL     1     -10.524   7.538  67.813  1.00  0.00    -0.223 A  
HETATM   15  C   UNL     1     -10.524   8.612  68.714  1.00  0.00    -0.209 A  
HETATM   16  C   UNL     1     -10.856   8.430  70.061  1.00  0.00    -0.225 A  
HETATM   17 CL   UNL     1     -10.849   9.822  71.085  1.00  0.00    -0.389 Cl 
HETATM   18  C   UNL     1     -11.177   7.156  70.526  1.00  0.00    -0.290 A  
HETATM   19  C   UNL     1     -11.151   6.071  69.644  1.00  0.00    -0.474 A  
HETATM   20 CL   UNL     1     -11.606   6.853  72.171  1.00  0.00    -0.307 Cl 
HETATM   21  C   UNL     1     -10.816   6.259  68.295  1.00  0.00    -0.397 A  
ENDBRANCH  12  14
ENDBRANCH  10  12
ENDBRANCH   8  10
ENDBRANCH   5   8
TORSDOF 4
ENDMDL
MODEL       84
REMARK 921   NORMALIZED FREE ENERGY PREDICTED BY IDOCK:   -4.91 KCAL/MOL
REMARK 922        TOTAL FREE ENERGY PREDICTED BY IDOCK:   -6.67 KCAL/MOL
REMARK 923 INTER-LIGAND FREE ENERGY PREDICTED BY IDOCK:   -6.25 KCAL/MOL
REMARK 924 INTRA-LIGAND FREE ENERGY PREDICTED BY IDOCK:   -0.42 KCAL/MOL
REMARK 927      BINDING AFFINITY PREDICTED BY RF-SCORE:    0.00 PKD
ROOT
HETATM    1 CL   UNL     1     -11.150   3.954  73.941  1.00  0.00    -0.277 Cl 
HETATM    2  C   UNL     1     -11.125   5.036  72.605  1.00  0.00    -0.197 A  
HETATM    3  C   UNL     1     -10.197   4.854  71.588  1.00  0.00    -0.267 A  
HETATM    4  C   UNL     1     -10.188   5.729  70.500  1.00  0.00    -0.284 A  
HETATM    5  C   UNL     1     -11.109   6.781  70.405  1.00  0.00    -0.308 A  
HETATM    6  C   UNL     1     -12.033   6.093  72.544  1.00  0.00    -0.171 A  
HETATM    7  C   UNL     1     -12.016   6.972  71.452  1.00  0.00    -0.380 A  
ENDROOT
BRANCH   5   8
HETATM    8  N   UNL     1     -11.144   7.666  69.299  1.00  0.00    -0.437 N  
HETATM    9  H   UNL     1     -11.582   7.341  68.437  1.00  0.00     0.000 HD 
BRANCH   8  10
HETATM   10  C   UNL     1     -10.619   8.948  69.319  1.00  0.00    -0.207 C  
HETATM   11  O   UNL     1      -9.601   9.254  69.932  1.00  0.00    -0.175 OA 
BRANCH  10  12
HETATM   12  N   UNL     1     -11.358   9.852  68.574  1.00  0.00    -0.514 N  
HETATM   13  H   UNL     1     -11.669   9.568  67.645  1.00  0.00     0.000 HD 
BRANCH  12  14
HETATM   14  C   UNL     1     -11.708  11.148  69.028  1.00  0.00    -0.339 A  
HETATM   15  C   UNL     1     -12.277  11.378  70.289  1.00  0.00    -0.433 A  
HETATM   16  C   UNL     1     -12.580  12.672  70.724  1.00  0.00    -0.217 A  
HETATM   17 CL   UNL     1     -13.259  12.851  72.303  1.00  0.00    -0.566 Cl 
HETATM   18  C   UNL     1     -12.331  13.758  69.885  1.00  0.00    -0.275 A  
HETATM   19  C   UNL     1     -11.791  13.539  68.614  1.00  0.00    -0.404 A  
HETATM   20 CL   UNL     1     -12.670  15.385  70.353  1.00  0.00    -0.434 Cl 
HETATM   21  C   UNL     1     -11.491  12.239  68.182  1.00  0.00    -0.371 A  
ENDBRANCH  12  14
ENDBRANCH  10  12
ENDBRANCH   8  10
ENDBRANCH   5   8
TORSDOF 4
ENDMDL
MODEL       85
REMARK 921   NORMALIZED FREE ENERGY PREDICTED BY IDOCK:   -4.91 KCAL/MOL
REMARK 922        TOTAL FREE ENERGY PREDICTED BY IDOCK:   -6.67 KCAL/MOL
REMARK 923 INTER-LIGAND FREE ENERGY PREDICTED BY IDOCK:   -6.54 KCAL/MOL
REMARK 924 INTRA-LIGAND FREE ENERGY PREDICTED BY IDOCK:   -0.13 KCAL/MOL
REMARK 927      BINDING AFFINITY PREDICTED BY RF-SCORE:    0.00 PKD
ROOT
HETATM    1 CL   UNL     1     -10.807   6.802  73.228  1.00  0.00    -0.308 Cl 
HETATM    2  C   UNL     1     -11.310   8.203  72.367  1.00  0.00    -0.391 A  
HETATM    3  C   UNL     1     -10.426   8.834  71.503  1.00  0.00    -0.373 A  
HETATM    4  C   UNL     1     -10.841   9.965  70.797  1.00  0.00    -0.387 A  
HETATM    5  C   UNL     1     -12.142  10.470  70.933  1.00  0.00    -0.383 A  
HETATM    6  C   UNL     1     -12.600   8.704  72.538  1.00  0.00    -0.367 A  
HETATM    7  C   UNL     1     -13.011   9.843  71.832  1.00  0.00    -0.545 A  
ENDROOT
BRANCH   5   8
HETATM    8  N   UNL     1     -12.603  11.597  70.209  1.00  0.00    -0.139 N  
HETATM    9  H   UNL     1     -13.188  11.434  69.389  1.00  0.00     0.000 HD 
BRANCH   8  10
HETATM   10  C   UNL     1     -12.307  12.906  70.548  1.00  0.00    -0.283 C  
HETATM   11  O   UNL     1     -12.945  13.556  71.371  1.00  0.00    -0.348 OA 
BRANCH  10  12
HETATM   12  N   UNL     1     -11.213  13.412  69.864  1.00  0.00    -0.482 N  
HETATM   13  H   UNL     1     -10.309  13.415  70.338  1.00  0.00     0.000 HD 
BRANCH  12  14
HETATM   14  C   UNL     1     -11.277  13.927  68.545  1.00  0.00    -0.270 A  
HETATM   15  C   UNL     1     -10.667  15.134  68.175  1.00  0.00    -0.254 A  
HETATM   16  C   UNL     1     -10.719  15.600  66.857  1.00  0.00    -0.307 A  
HETATM   17 CL   UNL     1      -9.916  17.087  66.498  1.00  0.00    -0.300 Cl 
HETATM   18  C   UNL     1     -11.405  14.863  65.892  1.00  0.00    -0.306 A  
HETATM   19  C   UNL     1     -12.043  13.673  66.255  1.00  0.00    -0.477 A  
HETATM   20 CL   UNL     1     -11.506  15.369  64.244  1.00  0.00    -0.248 Cl 
HETATM   21  C   UNL     1     -11.989  13.212  67.578  1.00  0.00    -0.367 A  
ENDBRANCH  12  14
ENDBRANCH  10  12
ENDBRANCH   8  10
ENDBRANCH   5   8
TORSDOF 4
ENDMDL
MODEL       86
REMARK 921   NORMALIZED FREE ENERGY PREDICTED BY IDOCK:   -4.90 KCAL/MOL
REMARK 922        TOTAL FREE ENERGY PREDICTED BY IDOCK:   -6.66 KCAL/MOL
REMARK 923 INTER-LIGAND FREE ENERGY PREDICTED BY IDOCK:   -6.11 KCAL/MOL
REMARK 924 INTRA-LIGAND FREE ENERGY PREDICTED BY IDOCK:   -0.55 KCAL/MOL
REMARK 927      BINDING AFFINITY PREDICTED BY RF-SCORE:    0.00 PKD
ROOT
HETATM    1 CL   UNL     1      -7.765  18.442  67.833  1.00  0.00    -0.252 Cl 
HETATM    2  C   UNL     1      -8.983  17.260  67.558  1.00  0.00    -0.222 A  
HETATM    3  C   UNL     1      -8.835  16.345  66.525  1.00  0.00    -0.316 A  
HETATM    4  C   UNL     1      -9.821  15.380  66.312  1.00  0.00    -0.320 A  
HETATM    5  C   UNL     1     -10.955  15.307  67.132  1.00  0.00    -0.331 A  
HETATM    6  C   UNL     1     -10.117  17.223  68.369  1.00  0.00    -0.333 A  
HETATM    7  C   UNL     1     -11.108  16.255  68.149  1.00  0.00    -0.329 A  
ENDROOT
BRANCH   5   8
HETATM    8  N   UNL     1     -11.958  14.320  66.962  1.00  0.00    -0.431 N  
HETATM    9  H   UNL     1     -12.442  13.978  67.792  1.00  0.00     0.000 HD 
BRANCH   8  10
HETATM   10  C   UNL     1     -12.320  13.792  65.733  1.00  0.00    -0.486 C  
HETATM   11  O   UNL     1     -12.745  14.470  64.802  1.00  0.00    -0.606 OA 
BRANCH  10  12
HETATM   12  N   UNL     1     -12.152  12.419  65.659  1.00  0.00    -0.398 N  
HETATM   13  H   UNL     1     -12.892  11.824  66.031  1.00  0.00     0.000 HD 
BRANCH  12  14
HETATM   14  C   UNL     1     -11.011  11.794  65.095  1.00  0.00    -0.294 A  
HETATM   15  C   UNL     1     -10.010  11.203  65.879  1.00  0.00    -0.285 A  
HETATM   16  C   UNL     1      -8.913  10.564  65.294  1.00  0.00    -0.189 A  
HETATM   17 CL   UNL     1      -7.745   9.846  66.347  1.00  0.00    -0.102 Cl 
HETATM   18  C   UNL     1      -8.796  10.526  63.905  1.00  0.00    -0.194 A  
HETATM   19  C   UNL     1      -9.772  11.139  63.113  1.00  0.00    -0.401 A  
HETATM   20 CL   UNL     1      -7.475   9.750  63.109  1.00  0.00    -0.115 Cl 
HETATM   21  C   UNL     1     -10.870  11.780  63.705  1.00  0.00    -0.508 A  
ENDBRANCH  12  14
ENDBRANCH  10  12
ENDBRANCH   8  10
ENDBRANCH   5   8
TORSDOF 4
ENDMDL
MODEL       87
REMARK 921   NORMALIZED FREE ENERGY PREDICTED BY IDOCK:   -4.88 KCAL/MOL
REMARK 922        TOTAL FREE ENERGY PREDICTED BY IDOCK:   -6.63 KCAL/MOL
REMARK 923 INTER-LIGAND FREE ENERGY PREDICTED BY IDOCK:   -6.32 KCAL/MOL
REMARK 924 INTRA-LIGAND FREE ENERGY PREDICTED BY IDOCK:   -0.31 KCAL/MOL
REMARK 927      BINDING AFFINITY PREDICTED BY RF-SCORE:    0.00 PKD
ROOT
HETATM    1 CL   UNL     1     -10.085  18.998  67.590  1.00  0.00    -0.413 Cl 
HETATM    2  C   UNL     1     -10.153  17.311  67.918  1.00  0.00    -0.317 A  
HETATM    3  C   UNL     1     -10.812  16.465  67.037  1.00  0.00    -0.145 A  
HETATM    4  C   UNL     1     -10.856  15.094  67.301  1.00  0.00    -0.316 A  
HETATM    5  C   UNL     1     -10.234  14.552  68.434  1.00  0.00    -0.239 A  
HETATM    6  C   UNL     1      -9.552  16.797  69.066  1.00  0.00    -0.230 A  
HETATM    7  C   UNL     1      -9.603  15.421  69.331  1.00  0.00    -0.270 A  
ENDROOT
BRANCH   5   8
HETATM    8  N   UNL     1     -10.235  13.163  68.714  1.00  0.00    -0.410 N  
HETATM    9  H   UNL     1      -9.335  12.692  68.811  1.00  0.00     0.000 HD 
BRANCH   8  10
HETATM   10  C   UNL     1     -11.385  12.406  68.864  1.00  0.00    -0.294 C  
HETATM   11  O   UNL     1     -12.114  12.086  67.929  1.00  0.00    -0.531 OA 
BRANCH  10  12
HETATM   12  N   UNL     1     -11.633  12.045  70.178  1.00  0.00    -0.531 N  
HETATM   13  H   UNL     1     -11.617  12.776  70.889  1.00  0.00     0.000 HD 
BRANCH  12  14
HETATM   14  C   UNL     1     -11.906  10.717  70.592  1.00  0.00    -0.363 A  
HETATM   15  C   UNL     1     -11.009   9.661  70.380  1.00  0.00    -0.356 A  
HETATM   16  C   UNL     1     -11.291   8.367  70.830  1.00  0.00    -0.268 A  
HETATM   17 CL   UNL     1     -10.110   7.139  70.540  1.00  0.00    -0.198 Cl 
HETATM   18  C   UNL     1     -12.495   8.112  71.486  1.00  0.00    -0.307 A  
HETATM   19  C   UNL     1     -13.412   9.151  71.676  1.00  0.00    -0.452 A  
HETATM   20 CL   UNL     1     -12.912   6.544  72.077  1.00  0.00    -0.183 Cl 
HETATM   21  C   UNL     1     -13.124  10.446  71.221  1.00  0.00    -0.494 A  
ENDBRANCH  12  14
ENDBRANCH  10  12
ENDBRANCH   8  10
ENDBRANCH   5   8
TORSDOF 4
ENDMDL
MODEL       88
REMARK 921   NORMALIZED FREE ENERGY PREDICTED BY IDOCK:   -4.86 KCAL/MOL
REMARK 922        TOTAL FREE ENERGY PREDICTED BY IDOCK:   -6.61 KCAL/MOL
REMARK 923 INTER-LIGAND FREE ENERGY PREDICTED BY IDOCK:   -6.30 KCAL/MOL
REMARK 924 INTRA-LIGAND FREE ENERGY PREDICTED BY IDOCK:   -0.31 KCAL/MOL
REMARK 927      BINDING AFFINITY PREDICTED BY RF-SCORE:    0.00 PKD
ROOT
HETATM    1 CL   UNL     1      -8.352  20.695  67.159  1.00  0.00    -0.346 Cl 
HETATM    2  C   UNL     1      -8.966  19.199  67.743  1.00  0.00    -0.296 A  
HETATM    3  C   UNL     1     -10.336  18.977  67.761  1.00  0.00    -0.498 A  
HETATM    4  C   UNL     1     -10.830  17.756  68.226  1.00  0.00    -0.155 A  
HETATM    5  C   UNL     1      -9.967  16.742  68.664  1.00  0.00    -0.276 A  
HETATM    6  C   UNL     1      -8.090  18.215  68.201  1.00  0.00    -0.289 A  
HETATM    7  C   UNL     1      -8.591  16.993  68.672  1.00  0.00    -0.265 A  
ENDROOT
BRANCH   5   8
HETATM    8  N   UNL     1     -10.435  15.482  69.113  1.00  0.00    -0.218 N  
HETATM    9  H   UNL     1      -9.946  15.037  69.889  1.00  0.00     0.000 HD 
BRANCH   8  10
HETATM   10  C   UNL     1     -11.519  14.820  68.560  1.00  0.00    -0.308 C  
HETATM   11  O   UNL     1     -11.652  14.625  67.355  1.00  0.00    -0.363 OA 
BRANCH  10  12
HETATM   12  N   UNL     1     -12.440  14.398  69.505  1.00  0.00    -0.540 N  
HETATM   13  H   UNL     1     -13.187  15.040  69.769  1.00  0.00     0.000 HD 
BRANCH  12  14
HETATM   14  C   UNL     1     -12.403  13.124  70.126  1.00  0.00    -0.213 A  
HETATM   15  C   UNL     1     -11.725  12.031  69.567  1.00  0.00    -0.408 A  
HETATM   16  C   UNL     1     -11.679  10.795  70.220  1.00  0.00    -0.352 A  
HETATM   17 CL   UNL     1     -10.797   9.517  69.460  1.00  0.00    -0.246 Cl 
HETATM   18  C   UNL     1     -12.332  10.635  71.441  1.00  0.00    -0.350 A  
HETATM   19  C   UNL     1     -13.038  11.708  71.993  1.00  0.00    -0.433 A  
HETATM   20 CL   UNL     1     -12.314   9.143  72.310  1.00  0.00    -0.412 Cl 
HETATM   21  C   UNL     1     -13.083  12.945  71.334  1.00  0.00    -0.331 A  
ENDBRANCH  12  14
ENDBRANCH  10  12
ENDBRANCH   8  10
ENDBRANCH   5   8
TORSDOF 4
ENDMDL
MODEL       89
REMARK 921   NORMALIZED FREE ENERGY PREDICTED BY IDOCK:   -4.85 KCAL/MOL
REMARK 922        TOTAL FREE ENERGY PREDICTED BY IDOCK:   -6.59 KCAL/MOL
REMARK 923 INTER-LIGAND FREE ENERGY PREDICTED BY IDOCK:   -6.18 KCAL/MOL
REMARK 924 INTRA-LIGAND FREE ENERGY PREDICTED BY IDOCK:   -0.41 KCAL/MOL
REMARK 927      BINDING AFFINITY PREDICTED BY RF-SCORE:    0.00 PKD
ROOT
HETATM    1 CL   UNL     1     -12.906  11.723  63.330  1.00  0.00    -0.539 Cl 
HETATM    2  C   UNL     1     -12.115  12.445  64.675  1.00  0.00    -0.415 A  
HETATM    3  C   UNL     1     -10.915  11.918  65.133  1.00  0.00    -0.365 A  
HETATM    4  C   UNL     1     -10.270  12.513  66.219  1.00  0.00    -0.265 A  
HETATM    5  C   UNL     1     -10.804  13.645  66.850  1.00  0.00    -0.283 A  
HETATM    6  C   UNL     1     -12.678  13.554  65.305  1.00  0.00    -0.481 A  
HETATM    7  C   UNL     1     -12.030  14.146  66.399  1.00  0.00    -0.457 A  
ENDROOT
BRANCH   5   8
HETATM    8  N   UNL     1     -10.159  14.291  67.934  1.00  0.00    -0.230 N  
HETATM    9  H   UNL     1     -10.636  14.308  68.835  1.00  0.00     0.000 HD 
BRANCH   8  10
HETATM   10  C   UNL     1      -8.919  14.901  67.841  1.00  0.00    -0.177 C  
HETATM   11  O   UNL     1      -8.040  14.785  68.690  1.00  0.00    -0.139 OA 
BRANCH  10  12
HETATM   12  N   UNL     1      -8.767  15.655  66.689  1.00  0.00    -0.273 N  
HETATM   13  H   UNL     1      -9.003  15.222  65.796  1.00  0.00     0.000 HD 
BRANCH  12  14
HETATM   14  C   UNL     1      -8.304  16.995  66.680  1.00  0.00    -0.250 A  
HETATM   15  C   UNL     1      -9.145  18.086  66.941  1.00  0.00    -0.273 A  
HETATM   16  C   UNL     1      -8.651  19.395  66.958  1.00  0.00    -0.289 A  
HETATM   17 CL   UNL     1      -9.764  20.669  67.313  1.00  0.00    -0.611 Cl 
HETATM   18  C   UNL     1      -7.302  19.627  66.693  1.00  0.00    -0.242 A  
HETATM   19  C   UNL     1      -6.460  18.550  66.401  1.00  0.00    -0.228 A  
HETATM   20 CL   UNL     1      -6.618  21.213  66.704  1.00  0.00    -0.354 Cl 
HETATM   21  C   UNL     1      -6.960  17.240  66.383  1.00  0.00    -0.310 A  
ENDBRANCH  12  14
ENDBRANCH  10  12
ENDBRANCH   8  10
ENDBRANCH   5   8
TORSDOF 4
ENDMDL
MODEL       90
REMARK 921   NORMALIZED FREE ENERGY PREDICTED BY IDOCK:   -4.84 KCAL/MOL
REMARK 922        TOTAL FREE ENERGY PREDICTED BY IDOCK:   -6.58 KCAL/MOL
REMARK 923 INTER-LIGAND FREE ENERGY PREDICTED BY IDOCK:   -6.12 KCAL/MOL
REMARK 924 INTRA-LIGAND FREE ENERGY PREDICTED BY IDOCK:   -0.46 KCAL/MOL
REMARK 927      BINDING AFFINITY PREDICTED BY RF-SCORE:    0.00 PKD
ROOT
HETATM    1 CL   UNL     1     -13.663   8.667  73.034  1.00  0.00    -0.042 Cl 
HETATM    2  C   UNL     1     -12.775   9.605  71.899  1.00  0.00    -0.411 A  
HETATM    3  C   UNL     1     -13.091  10.944  71.714  1.00  0.00    -0.564 A  
HETATM    4  C   UNL     1     -12.361  11.704  70.799  1.00  0.00    -0.454 A  
HETATM    5  C   UNL     1     -11.301  11.146  70.072  1.00  0.00    -0.243 A  
HETATM    6  C   UNL     1     -11.742   9.022  71.166  1.00  0.00    -0.366 A  
HETATM    7  C   UNL     1     -11.014   9.788  70.244  1.00  0.00    -0.352 A  
ENDROOT
BRANCH   5   8
HETATM    8  N   UNL     1     -10.521  11.899  69.159  1.00  0.00    -0.421 N  
HETATM    9  H   UNL     1      -9.615  12.245  69.474  1.00  0.00     0.000 HD 
BRANCH   8  10
HETATM   10  C   UNL     1     -10.917  12.193  67.864  1.00  0.00    -0.229 C  
HETATM   11  O   UNL     1     -11.880  11.667  67.314  1.00  0.00    -0.609 OA 
BRANCH  10  12
HETATM   12  N   UNL     1     -10.116  13.143  67.252  1.00  0.00    -0.231 N  
HETATM   13  H   UNL     1      -9.549  12.851  66.456  1.00  0.00     0.000 HD 
BRANCH  12  14
HETATM   14  C   UNL     1     -10.040  14.496  67.667  1.00  0.00    -0.228 A  
HETATM   15  C   UNL     1      -8.847  15.082  68.112  1.00  0.00    -0.167 A  
HETATM   16  C   UNL     1      -8.795  16.430  68.483  1.00  0.00    -0.224 A  
HETATM   17 CL   UNL     1      -7.272  17.064  68.996  1.00  0.00    -0.236 Cl 
HETATM   18  C   UNL     1      -9.953  17.205  68.430  1.00  0.00    -0.310 A  
HETATM   19  C   UNL     1     -11.156  16.624  68.018  1.00  0.00    -0.255 A  
HETATM   20 CL   UNL     1      -9.967  18.876  68.865  1.00  0.00    -0.459 Cl 
HETATM   21  C   UNL     1     -11.202  15.272  67.648  1.00  0.00    -0.320 A  
ENDBRANCH  12  14
ENDBRANCH  10  12
ENDBRANCH   8  10
ENDBRANCH   5   8
TORSDOF 4
ENDMDL
MODEL       91
REMARK 921   NORMALIZED FREE ENERGY PREDICTED BY IDOCK:   -4.83 KCAL/MOL
REMARK 922        TOTAL FREE ENERGY PREDICTED BY IDOCK:   -6.57 KCAL/MOL
REMARK 923 INTER-LIGAND FREE ENERGY PREDICTED BY IDOCK:   -6.20 KCAL/MOL
REMARK 924 INTRA-LIGAND FREE ENERGY PREDICTED BY IDOCK:   -0.36 KCAL/MOL
REMARK 927      BINDING AFFINITY PREDICTED BY RF-SCORE:    0.00 PKD
ROOT
HETATM    1 CL   UNL     1     -12.256  13.134  63.316  1.00  0.00    -0.575 Cl 
HETATM    2  C   UNL     1     -11.824  12.720  64.928  1.00  0.00    -0.379 A  
HETATM    3  C   UNL     1     -10.982  11.640  65.159  1.00  0.00    -0.326 A  
HETATM    4  C   UNL     1     -10.624  11.314  66.469  1.00  0.00    -0.315 A  
HETATM    5  C   UNL     1     -11.088  12.065  67.558  1.00  0.00    -0.275 A  
HETATM    6  C   UNL     1     -12.319  13.463  65.998  1.00  0.00    -0.471 A  
HETATM    7  C   UNL     1     -11.962  13.129  67.312  1.00  0.00    -0.389 A  
ENDROOT
BRANCH   5   8
HETATM    8  N   UNL     1     -10.719  11.777  68.896  1.00  0.00    -0.260 N  
HETATM    9  H   UNL     1     -10.830  12.513  69.593  1.00  0.00     0.000 HD 
BRANCH   8  10
HETATM   10  C   UNL     1     -10.217  10.556  69.312  1.00  0.00    -0.225 C  
HETATM   11  O   UNL     1      -9.023  10.341  69.501  1.00  0.00    -0.197 OA 
BRANCH  10  12
HETATM   12  N   UNL     1     -11.199   9.596  69.496  1.00  0.00    -0.404 N  
HETATM   13  H   UNL     1     -12.017   9.624  68.888  1.00  0.00     0.000 HD 
BRANCH  12  14
HETATM   14  C   UNL     1     -11.133   8.580  70.482  1.00  0.00    -0.244 A  
HETATM   15  C   UNL     1     -10.623   7.302  70.214  1.00  0.00    -0.243 A  
HETATM   16  C   UNL     1     -10.539   6.329  71.216  1.00  0.00    -0.236 A  
HETATM   17 CL   UNL     1      -9.874   4.792  70.791  1.00  0.00    -0.265 Cl 
HETATM   18  C   UNL     1     -10.987   6.624  72.504  1.00  0.00    -0.247 A  
HETATM   19  C   UNL     1     -11.525   7.885  72.775  1.00  0.00    -0.428 A  
HETATM   20 CL   UNL     1     -10.908   5.480  73.794  1.00  0.00    -0.299 Cl 
HETATM   21  C   UNL     1     -11.609   8.856  71.767  1.00  0.00    -0.422 A  
ENDBRANCH  12  14
ENDBRANCH  10  12
ENDBRANCH   8  10
ENDBRANCH   5   8
TORSDOF 4
ENDMDL
MODEL       92
REMARK 921   NORMALIZED FREE ENERGY PREDICTED BY IDOCK:   -4.82 KCAL/MOL
REMARK 922        TOTAL FREE ENERGY PREDICTED BY IDOCK:   -6.56 KCAL/MOL
REMARK 923 INTER-LIGAND FREE ENERGY PREDICTED BY IDOCK:   -6.20 KCAL/MOL
REMARK 924 INTRA-LIGAND FREE ENERGY PREDICTED BY IDOCK:   -0.37 KCAL/MOL
REMARK 927      BINDING AFFINITY PREDICTED BY RF-SCORE:    0.00 PKD
ROOT
HETATM    1 CL   UNL     1      -9.368   3.117  70.492  1.00  0.00    -0.215 Cl 
HETATM    2  C   UNL     1     -10.207   4.610  70.642  1.00  0.00    -0.141 A  
HETATM    3  C   UNL     1     -10.514   5.346  69.506  1.00  0.00    -0.343 A  
HETATM    4  C   UNL     1     -11.204   6.553  69.631  1.00  0.00    -0.446 A  
HETATM    5  C   UNL     1     -11.609   7.031  70.885  1.00  0.00    -0.328 A  
HETATM    6  C   UNL     1     -10.576   5.081  71.902  1.00  0.00    -0.224 A  
HETATM    7  C   UNL     1     -11.265   6.297  72.024  1.00  0.00    -0.327 A  
ENDROOT
BRANCH   5   8
HETATM    8  N   UNL     1     -12.339   8.236  71.043  1.00  0.00    -0.478 N  
HETATM    9  H   UNL     1     -13.318   8.172  71.321  1.00  0.00     0.000 HD 
BRANCH   8  10
HETATM   10  C   UNL     1     -11.800   9.496  70.842  1.00  0.00    -0.309 C  
HETATM   11  O   UNL     1     -10.685   9.828  71.234  1.00  0.00    -0.304 OA 
BRANCH  10  12
HETATM   12  N   UNL     1     -12.646  10.347  70.149  1.00  0.00    -0.526 N  
HETATM   13  H   UNL     1     -13.629  10.086  70.069  1.00  0.00     0.000 HD 
BRANCH  12  14
HETATM   14  C   UNL     1     -12.225  11.558  69.546  1.00  0.00    -0.221 A  
HETATM   15  C   UNL     1     -11.759  11.621  68.225  1.00  0.00    -0.374 A  
HETATM   16  C   UNL     1     -11.383  12.837  67.645  1.00  0.00    -0.310 A  
HETATM   17 CL   UNL     1     -10.844  12.812  66.003  1.00  0.00    -0.294 Cl 
HETATM   18  C   UNL     1     -11.451  14.010  68.396  1.00  0.00    -0.306 A  
HETATM   19  C   UNL     1     -11.884  13.956  69.725  1.00  0.00    -0.390 A  
HETATM   20 CL   UNL     1     -11.011  15.549  67.749  1.00  0.00    -0.309 Cl 
HETATM   21  C   UNL     1     -12.259  12.734  70.301  1.00  0.00    -0.351 A  
ENDBRANCH  12  14
ENDBRANCH  10  12
ENDBRANCH   8  10
ENDBRANCH   5   8
TORSDOF 4
ENDMDL
MODEL       93
REMARK 921   NORMALIZED FREE ENERGY PREDICTED BY IDOCK:   -4.82 KCAL/MOL
REMARK 922        TOTAL FREE ENERGY PREDICTED BY IDOCK:   -6.56 KCAL/MOL
REMARK 923 INTER-LIGAND FREE ENERGY PREDICTED BY IDOCK:   -6.23 KCAL/MOL
REMARK 924 INTRA-LIGAND FREE ENERGY PREDICTED BY IDOCK:   -0.33 KCAL/MOL
REMARK 927      BINDING AFFINITY PREDICTED BY RF-SCORE:    0.00 PKD
ROOT
HETATM    1 CL   UNL     1      -9.598   4.548  74.023  1.00  0.00    -0.125 Cl 
HETATM    2  C   UNL     1     -10.286   5.761  73.017  1.00  0.00    -0.187 A  
HETATM    3  C   UNL     1     -10.642   6.987  73.563  1.00  0.00    -0.405 A  
HETATM    4  C   UNL     1     -11.191   7.974  72.741  1.00  0.00    -0.448 A  
HETATM    5  C   UNL     1     -11.377   7.756  71.369  1.00  0.00    -0.251 A  
HETATM    6  C   UNL     1     -10.488   5.513  71.660  1.00  0.00    -0.292 A  
HETATM    7  C   UNL     1     -11.044   6.505  70.839  1.00  0.00    -0.345 A  
ENDROOT
BRANCH   5   8
HETATM    8  N   UNL     1     -11.902   8.747  70.503  1.00  0.00    -0.469 N  
HETATM    9  H   UNL     1     -12.915   8.850  70.450  1.00  0.00     0.000 HD 
BRANCH   8  10
HETATM   10  C   UNL     1     -11.120   9.585  69.725  1.00  0.00    -0.191 C  
HETATM   11  O   UNL     1      -9.898   9.651  69.815  1.00  0.00    -0.199 OA 
BRANCH  10  12
HETATM   12  N   UNL     1     -11.858  10.343  68.829  1.00  0.00    -0.514 N  
HETATM   13  H   UNL     1     -12.492   9.855  68.196  1.00  0.00     0.000 HD 
BRANCH  12  14
HETATM   14  C   UNL     1     -11.782  11.755  68.743  1.00  0.00    -0.329 A  
HETATM   15  C   UNL     1     -11.722  12.434  67.517  1.00  0.00    -0.425 A  
HETATM   16  C   UNL     1     -11.682  13.831  67.462  1.00  0.00    -0.375 A  
HETATM   17 CL   UNL     1     -11.632  14.573  65.902  1.00  0.00    -0.353 Cl 
HETATM   18  C   UNL     1     -11.682  14.568  68.646  1.00  0.00    -0.329 A  
HETATM   19  C   UNL     1     -11.711  13.902  69.875  1.00  0.00    -0.358 A  
HETATM   20 CL   UNL     1     -11.642  16.295  68.659  1.00  0.00    -0.304 Cl 
HETATM   21  C   UNL     1     -11.749  12.501  69.924  1.00  0.00    -0.327 A  
ENDBRANCH  12  14
ENDBRANCH  10  12
ENDBRANCH   8  10
ENDBRANCH   5   8
TORSDOF 4
ENDMDL
MODEL       94
REMARK 921   NORMALIZED FREE ENERGY PREDICTED BY IDOCK:   -4.80 KCAL/MOL
REMARK 922        TOTAL FREE ENERGY PREDICTED BY IDOCK:   -6.54 KCAL/MOL
REMARK 923 INTER-LIGAND FREE ENERGY PREDICTED BY IDOCK:   -6.04 KCAL/MOL
REMARK 924 INTRA-LIGAND FREE ENERGY PREDICTED BY IDOCK:   -0.50 KCAL/MOL
REMARK 927      BINDING AFFINITY PREDICTED BY RF-SCORE:    0.00 PKD
ROOT
HETATM    1 CL   UNL     1     -13.649  15.666  72.843  1.00  0.00    -0.644 Cl 
HETATM    2  C   UNL     1     -13.222  14.215  72.026  1.00  0.00    -0.402 A  
HETATM    3  C   UNL     1     -13.567  12.988  72.575  1.00  0.00    -0.537 A  
HETATM    4  C   UNL     1     -13.227  11.812  71.903  1.00  0.00    -0.468 A  
HETATM    5  C   UNL     1     -12.555  11.846  70.673  1.00  0.00    -0.181 A  
HETATM    6  C   UNL     1     -12.528  14.271  70.817  1.00  0.00    -0.428 A  
HETATM    7  C   UNL     1     -12.184  13.088  70.148  1.00  0.00    -0.342 A  
ENDROOT
BRANCH   5   8
HETATM    8  N   UNL     1     -12.223  10.672  69.952  1.00  0.00    -0.453 N  
HETATM    9  H   UNL     1     -12.912   9.920  69.917  1.00  0.00     0.000 HD 
BRANCH   8  10
HETATM   10  C   UNL     1     -11.020  10.485  69.293  1.00  0.00    -0.244 C  
HETATM   11  O   UNL     1     -10.884  10.608  68.079  1.00  0.00    -0.219 OA 
BRANCH  10  12
HETATM   12  N   UNL     1      -9.980  10.146  70.143  1.00  0.00    -0.413 N  
HETATM   13  H   UNL     1      -9.312  10.873  70.399  1.00  0.00     0.000 HD 
BRANCH  12  14
HETATM   14  C   UNL     1      -9.790   8.847  70.678  1.00  0.00    -0.212 A  
HETATM   15  C   UNL     1      -9.999   8.551  72.032  1.00  0.00    -0.383 A  
HETATM   16  C   UNL     1      -9.837   7.251  72.524  1.00  0.00    -0.159 A  
HETATM   17 CL   UNL     1     -10.141   6.984  74.204  1.00  0.00    -0.346 Cl 
HETATM   18  C   UNL     1      -9.442   6.230  71.660  1.00  0.00    -0.147 A  
HETATM   19  C   UNL     1      -9.201   6.520  70.313  1.00  0.00    -0.156 A  
HETATM   20 CL   UNL     1      -9.229   4.601  72.190  1.00  0.00    -0.150 Cl 
HETATM   21  C   UNL     1      -9.364   7.824  69.826  1.00  0.00    -0.153 A  
ENDBRANCH  12  14
ENDBRANCH  10  12
ENDBRANCH   8  10
ENDBRANCH   5   8
TORSDOF 4
ENDMDL
MODEL       95
REMARK 921   NORMALIZED FREE ENERGY PREDICTED BY IDOCK:   -4.79 KCAL/MOL
REMARK 922        TOTAL FREE ENERGY PREDICTED BY IDOCK:   -6.52 KCAL/MOL
REMARK 923 INTER-LIGAND FREE ENERGY PREDICTED BY IDOCK:   -5.96 KCAL/MOL
REMARK 924 INTRA-LIGAND FREE ENERGY PREDICTED BY IDOCK:   -0.56 KCAL/MOL
REMARK 927      BINDING AFFINITY PREDICTED BY RF-SCORE:    0.00 PKD
ROOT
HETATM    1 CL   UNL     1     -10.084  17.920  67.574  1.00  0.00    -0.327 Cl 
HETATM    2  C   UNL     1     -10.604  16.378  67.019  1.00  0.00    -0.260 A  
HETATM    3  C   UNL     1     -10.281  15.964  65.734  1.00  0.00    -0.389 A  
HETATM    4  C   UNL     1     -10.696  14.707  65.291  1.00  0.00    -0.396 A  
HETATM    5  C   UNL     1     -11.423  13.845  66.125  1.00  0.00    -0.345 A  
HETATM    6  C   UNL     1     -11.350  15.549  67.856  1.00  0.00    -0.309 A  
HETATM    7  C   UNL     1     -11.770  14.289  67.405  1.00  0.00    -0.422 A  
ENDROOT
BRANCH   5   8
HETATM    8  N   UNL     1     -11.832  12.552  65.715  1.00  0.00    -0.429 N  
HETATM    9  H   UNL     1     -12.808  12.291  65.852  1.00  0.00     0.000 HD 
BRANCH   8  10
HETATM   10  C   UNL     1     -10.983  11.620  65.140  1.00  0.00    -0.266 C  
HETATM   11  O   UNL     1     -11.085  11.234  63.979  1.00  0.00    -0.372 OA 
BRANCH  10  12
HETATM   12  N   UNL     1     -10.003  11.167  66.007  1.00  0.00    -0.226 N  
HETATM   13  H   UNL     1      -9.082  11.604  65.961  1.00  0.00     0.000 HD 
BRANCH  12  14
HETATM   14  C   UNL     1     -10.205  10.133  66.955  1.00  0.00    -0.236 A  
HETATM   15  C   UNL     1     -10.442  10.389  68.313  1.00  0.00    -0.221 A  
HETATM   16  C   UNL     1     -10.673   9.349  69.218  1.00  0.00    -0.211 A  
HETATM   17 CL   UNL     1     -10.978   9.770  70.866  1.00  0.00    -0.396 Cl 
HETATM   18  C   UNL     1     -10.650   8.028  68.772  1.00  0.00    -0.118 A  
HETATM   19  C   UNL     1     -10.384   7.758  67.426  1.00  0.00    -0.354 A  
HETATM   20 CL   UNL     1     -10.932   6.691  69.828  1.00  0.00    -0.333 Cl 
HETATM   21  C   UNL     1     -10.152   8.805  66.523  1.00  0.00    -0.349 A  
ENDBRANCH  12  14
ENDBRANCH  10  12
ENDBRANCH   8  10
ENDBRANCH   5   8
TORSDOF 4
ENDMDL
MODEL       96
REMARK 921   NORMALIZED FREE ENERGY PREDICTED BY IDOCK:   -4.74 KCAL/MOL
REMARK 922        TOTAL FREE ENERGY PREDICTED BY IDOCK:   -6.47 KCAL/MOL
REMARK 923 INTER-LIGAND FREE ENERGY PREDICTED BY IDOCK:   -5.77 KCAL/MOL
REMARK 924 INTRA-LIGAND FREE ENERGY PREDICTED BY IDOCK:   -0.69 KCAL/MOL
REMARK 927      BINDING AFFINITY PREDICTED BY RF-SCORE:    0.00 PKD
ROOT
HETATM    1 CL   UNL     1      -8.314  13.137  67.391  1.00  0.00    -0.180 Cl 
HETATM    2  C   UNL     1      -9.630  12.337  68.156  1.00  0.00    -0.213 A  
HETATM    3  C   UNL     1      -9.499  11.010  68.543  1.00  0.00    -0.188 A  
HETATM    4  C   UNL     1     -10.566  10.367  69.173  1.00  0.00    -0.255 A  
HETATM    5  C   UNL     1     -11.767  11.041  69.437  1.00  0.00    -0.323 A  
HETATM    6  C   UNL     1     -10.826  13.018  68.385  1.00  0.00    -0.280 A  
HETATM    7  C   UNL     1     -11.897  12.367  69.013  1.00  0.00    -0.349 A  
ENDROOT
BRANCH   5   8
HETATM    8  N   UNL     1     -12.857  10.426  70.103  1.00  0.00    -0.540 N  
HETATM    9  H   UNL     1     -13.544   9.927  69.538  1.00  0.00     0.000 HD 
BRANCH   8  10
HETATM   10  C   UNL     1     -13.043  10.462  71.475  1.00  0.00    -0.431 C  
HETATM   11  O   UNL     1     -13.189  11.500  72.113  1.00  0.00    -0.505 OA 
BRANCH  10  12
HETATM   12  N   UNL     1     -13.050   9.205  72.057  1.00  0.00    -0.394 N  
HETATM   13  H   UNL     1     -13.829   8.964  72.670  1.00  0.00     0.000 HD 
BRANCH  12  14
HETATM   14  C   UNL     1     -12.038   8.234  71.850  1.00  0.00    -0.332 A  
HETATM   15  C   UNL     1     -10.708   8.435  72.247  1.00  0.00    -0.417 A  
HETATM   16  C   UNL     1      -9.737   7.445  72.059  1.00  0.00    -0.154 A  
HETATM   17 CL   UNL     1      -8.132   7.781  72.604  1.00  0.00    -0.141 Cl 
HETATM   18  C   UNL     1     -10.088   6.241  71.450  1.00  0.00    -0.191 A  
HETATM   19  C   UNL     1     -11.404   6.041  71.022  1.00  0.00    -0.299 A  
HETATM   20 CL   UNL     1      -8.949   4.969  71.191  1.00  0.00    -0.155 Cl 
HETATM   21  C   UNL     1     -12.373   7.038  71.211  1.00  0.00    -0.426 A  
ENDBRANCH  12  14
ENDBRANCH  10  12
ENDBRANCH   8  10
ENDBRANCH   5   8
TORSDOF 4
ENDMDL
MODEL       97
REMARK 921   NORMALIZED FREE ENERGY PREDICTED BY IDOCK:   -4.74 KCAL/MOL
REMARK 922        TOTAL FREE ENERGY PREDICTED BY IDOCK:   -6.46 KCAL/MOL
REMARK 923 INTER-LIGAND FREE ENERGY PREDICTED BY IDOCK:   -6.08 KCAL/MOL
REMARK 924 INTRA-LIGAND FREE ENERGY PREDICTED BY IDOCK:   -0.38 KCAL/MOL
REMARK 927      BINDING AFFINITY PREDICTED BY RF-SCORE:    0.00 PKD
ROOT
HETATM    1 CL   UNL     1      -8.889   3.253  70.586  1.00  0.00    -0.131 Cl 
HETATM    2  C   UNL     1      -9.843   4.683  70.595  1.00  0.00    -0.226 A  
HETATM    3  C   UNL     1     -10.301   5.198  71.800  1.00  0.00    -0.274 A  
HETATM    4  C   UNL     1     -11.067   6.366  71.804  1.00  0.00    -0.311 A  
HETATM    5  C   UNL     1     -11.371   7.039  70.613  1.00  0.00    -0.307 A  
HETATM    6  C   UNL     1     -10.158   5.322  69.396  1.00  0.00    -0.311 A  
HETATM    7  C   UNL     1     -10.932   6.492  69.404  1.00  0.00    -0.395 A  
ENDROOT
BRANCH   5   8
HETATM    8  N   UNL     1     -12.120   8.243  70.587  1.00  0.00    -0.491 N  
HETATM    9  H   UNL     1     -13.134   8.175  70.510  1.00  0.00     0.000 HD 
BRANCH   8  10
HETATM   10  C   UNL     1     -11.554   9.505  70.660  1.00  0.00    -0.283 C  
HETATM   11  O   UNL     1     -10.377   9.706  70.944  1.00  0.00    -0.300 OA 
BRANCH  10  12
HETATM   12  N   UNL     1     -12.452  10.522  70.378  1.00  0.00    -0.394 N  
HETATM   13  H   UNL     1     -13.399  10.442  70.746  1.00  0.00     0.000 HD 
BRANCH  12  14
HETATM   14  C   UNL     1     -12.128  11.667  69.607  1.00  0.00    -0.280 A  
HETATM   15  C   UNL     1     -12.098  12.958  70.151  1.00  0.00    -0.373 A  
HETATM   16  C   UNL     1     -11.743  14.065  69.373  1.00  0.00    -0.315 A  
HETATM   17 CL   UNL     1     -11.713  15.612  70.143  1.00  0.00    -0.340 Cl 
HETATM   18  C   UNL     1     -11.429  13.890  68.026  1.00  0.00    -0.307 A  
HETATM   19  C   UNL     1     -11.486  12.610  67.464  1.00  0.00    -0.397 A  
HETATM   20 CL   UNL     1     -10.974  15.205  67.004  1.00  0.00    -0.319 Cl 
HETATM   21  C   UNL     1     -11.844  11.504  68.248  1.00  0.00    -0.327 A  
ENDBRANCH  12  14
ENDBRANCH  10  12
ENDBRANCH   8  10
ENDBRANCH   5   8
TORSDOF 4
ENDMDL
MODEL       98
REMARK 921   NORMALIZED FREE ENERGY PREDICTED BY IDOCK:   -4.72 KCAL/MOL
REMARK 922        TOTAL FREE ENERGY PREDICTED BY IDOCK:   -6.44 KCAL/MOL
REMARK 923 INTER-LIGAND FREE ENERGY PREDICTED BY IDOCK:   -6.07 KCAL/MOL
REMARK 924 INTRA-LIGAND FREE ENERGY PREDICTED BY IDOCK:   -0.36 KCAL/MOL
REMARK 927      BINDING AFFINITY PREDICTED BY RF-SCORE:    0.00 PKD
ROOT
HETATM    1 CL   UNL     1     -12.623  14.716  64.653  1.00  0.00    -0.309 Cl 
HETATM    2  C   UNL     1     -11.925  13.393  65.500  1.00  0.00    -0.398 A  
HETATM    3  C   UNL     1     -11.331  12.357  64.791  1.00  0.00    -0.360 A  
HETATM    4  C   UNL     1     -10.755  11.290  65.483  1.00  0.00    -0.283 A  
HETATM    5  C   UNL     1     -10.752  11.249  66.884  1.00  0.00    -0.273 A  
HETATM    6  C   UNL     1     -11.957  13.359  66.894  1.00  0.00    -0.437 A  
HETATM    7  C   UNL     1     -11.383  12.282  67.585  1.00  0.00    -0.374 A  
ENDROOT
BRANCH   5   8
HETATM    8  N   UNL     1     -10.149  10.196  67.616  1.00  0.00    -0.180 N  
HETATM    9  H   UNL     1     -10.566   9.267  67.552  1.00  0.00     0.000 HD 
BRANCH   8  10
HETATM   10  C   UNL     1      -9.027  10.353  68.413  1.00  0.00    -0.137 C  
HETATM   11  O   UNL     1      -7.894  10.507  67.967  1.00  0.00    -0.102 OA 
BRANCH  10  12
HETATM   12  N   UNL     1      -9.313  10.321  69.768  1.00  0.00    -0.401 N  
HETATM   13  H   UNL     1      -8.616  10.692  70.415  1.00  0.00     0.000 HD 
BRANCH  12  14
HETATM   14  C   UNL     1     -10.516   9.802  70.308  1.00  0.00    -0.288 A  
HETATM   15  C   UNL     1     -10.703   8.436  70.559  1.00  0.00    -0.247 A  
HETATM   16  C   UNL     1     -11.890   7.957  71.124  1.00  0.00    -0.287 A  
HETATM   17 CL   UNL     1     -12.014   6.258  71.416  1.00  0.00    -0.293 Cl 
HETATM   18  C   UNL     1     -12.918   8.849  71.428  1.00  0.00    -0.278 A  
HETATM   19  C   UNL     1     -12.755  10.210  71.154  1.00  0.00    -0.494 A  
HETATM   20 CL   UNL     1     -14.408   8.336  72.134  1.00  0.00    -0.503 Cl 
HETATM   21  C   UNL     1     -11.564  10.685  70.586  1.00  0.00    -0.432 A  
ENDBRANCH  12  14
ENDBRANCH  10  12
ENDBRANCH   8  10
ENDBRANCH   5   8
TORSDOF 4
ENDMDL
MODEL       99
REMARK 921   NORMALIZED FREE ENERGY PREDICTED BY IDOCK:   -4.72 KCAL/MOL
REMARK 922        TOTAL FREE ENERGY PREDICTED BY IDOCK:   -6.43 KCAL/MOL
REMARK 923 INTER-LIGAND FREE ENERGY PREDICTED BY IDOCK:   -5.85 KCAL/MOL
REMARK 924 INTRA-LIGAND FREE ENERGY PREDICTED BY IDOCK:   -0.58 KCAL/MOL
REMARK 927      BINDING AFFINITY PREDICTED BY RF-SCORE:    0.00 PKD
ROOT
HETATM    1 CL   UNL     1      -9.879   4.021  72.366  1.00  0.00    -0.210 Cl 
HETATM    2  C   UNL     1     -10.660   5.485  71.914  1.00  0.00    -0.234 A  
HETATM    3  C   UNL     1     -10.804   6.505  72.845  1.00  0.00    -0.288 A  
HETATM    4  C   UNL     1     -11.429   7.696  72.470  1.00  0.00    -0.405 A  
HETATM    5  C   UNL     1     -11.902   7.890  71.165  1.00  0.00    -0.287 A  
HETATM    6  C   UNL     1     -11.148   5.646  70.617  1.00  0.00    -0.195 A  
HETATM    7  C   UNL     1     -11.779   6.842  70.247  1.00  0.00    -0.397 A  
ENDROOT
BRANCH   5   8
HETATM    8  N   UNL     1     -12.512   9.098  70.746  1.00  0.00    -0.499 N  
HETATM    9  H   UNL     1     -13.288   9.041  70.087  1.00  0.00     0.000 HD 
BRANCH   8  10
HETATM   10  C   UNL     1     -12.117  10.353  71.180  1.00  0.00    -0.386 C  
HETATM   11  O   UNL     1     -12.688  10.974  72.072  1.00  0.00    -0.305 OA 
BRANCH  10  12
HETATM   12  N   UNL     1     -11.009  10.839  70.505  1.00  0.00    -0.395 N  
HETATM   13  H   UNL     1     -10.222  11.179  71.057  1.00  0.00     0.000 HD 
BRANCH  12  14
HETATM   14  C   UNL     1     -10.907  10.891  69.092  1.00  0.00    -0.235 A  
HETATM   15  C   UNL     1     -10.178   9.948  68.353  1.00  0.00    -0.203 A  
HETATM   16  C   UNL     1     -10.123  10.005  66.957  1.00  0.00    -0.219 A  
HETATM   17 CL   UNL     1      -9.217   8.783  66.137  1.00  0.00    -0.250 Cl 
HETATM   18  C   UNL     1     -10.789  11.028  66.282  1.00  0.00    -0.170 A  
HETATM   19  C   UNL     1     -11.494  11.991  67.009  1.00  0.00    -0.402 A  
HETATM   20 CL   UNL     1     -10.774  11.161  64.560  1.00  0.00    -0.394 Cl 
HETATM   21  C   UNL     1     -11.544  11.930  68.409  1.00  0.00    -0.376 A  
ENDBRANCH  12  14
ENDBRANCH  10  12
ENDBRANCH   8  10
ENDBRANCH   5   8
TORSDOF 4
ENDMDL
MODEL      100
REMARK 921   NORMALIZED FREE ENERGY PREDICTED BY IDOCK:   -4.70 KCAL/MOL
REMARK 922        TOTAL FREE ENERGY PREDICTED BY IDOCK:   -6.41 KCAL/MOL
REMARK 923 INTER-LIGAND FREE ENERGY PREDICTED BY IDOCK:   -6.31 KCAL/MOL
REMARK 924 INTRA-LIGAND FREE ENERGY PREDICTED BY IDOCK:   -0.10 KCAL/MOL
REMARK 927      BINDING AFFINITY PREDICTED BY RF-SCORE:    0.00 PKD
ROOT
HETATM    1 CL   UNL     1     -12.129  12.150  69.622  1.00  0.00    -0.318 Cl 
HETATM    2  C   UNL     1     -11.527  13.240  68.436  1.00  0.00    -0.314 A  
HETATM    3  C   UNL     1     -10.924  12.745  67.288  1.00  0.00    -0.294 A  
HETATM    4  C   UNL     1     -10.446  13.633  66.322  1.00  0.00    -0.291 A  
HETATM    5  C   UNL     1     -10.576  15.019  66.483  1.00  0.00    -0.305 A  
HETATM    6  C   UNL     1     -11.642  14.617  68.629  1.00  0.00    -0.343 A  
HETATM    7  C   UNL     1     -11.156  15.505  67.659  1.00  0.00    -0.311 A  
ENDROOT
BRANCH   5   8
HETATM    8  N   UNL     1     -10.130  15.946  65.507  1.00  0.00    -0.344 N  
HETATM    9  H   UNL     1      -9.156  15.895  65.208  1.00  0.00     0.000 HD 
BRANCH   8  10
HETATM   10  C   UNL     1     -10.938  16.916  64.937  1.00  0.00    -0.001 C  
HETATM   11  O   UNL     1     -11.716  16.695  64.014  1.00  0.00    -1.143 OA 
BRANCH  10  12
HETATM   12  N   UNL     1     -10.781  18.165  65.516  1.00  0.00    -0.170 N  
HETATM   13  H   UNL     1     -11.431  18.903  65.249  1.00  0.00     0.000 HD 
BRANCH  12  14
HETATM   14  C   UNL     1      -9.768  18.475  66.458  1.00  0.00    -0.343 A  
HETATM   15  C   UNL     1      -8.402  18.362  66.161  1.00  0.00    -0.161 A  
HETATM   16  C   UNL     1      -7.424  18.708  67.100  1.00  0.00    -0.222 A  
HETATM   17 CL   UNL     1      -5.768  18.555  66.630  1.00  0.00    -0.165 Cl 
HETATM   18  C   UNL     1      -7.809  19.157  68.363  1.00  0.00    -0.335 A  
HETATM   19  C   UNL     1      -9.168  19.245  68.681  1.00  0.00    -0.436 A  
HETATM   20 CL   UNL     1      -6.662  19.610  69.572  1.00  0.00    -0.386 Cl 
HETATM   21  C   UNL     1     -10.144  18.895  67.737  1.00  0.00    -0.430 A  
ENDBRANCH  12  14
ENDBRANCH  10  12
ENDBRANCH   8  10
ENDBRANCH   5   8
TORSDOF 4
ENDMDL
MODEL      101
REMARK 921   NORMALIZED FREE ENERGY PREDICTED BY IDOCK:   -4.70 KCAL/MOL
REMARK 922        TOTAL FREE ENERGY PREDICTED BY IDOCK:   -6.41 KCAL/MOL
REMARK 923 INTER-LIGAND FREE ENERGY PREDICTED BY IDOCK:   -5.91 KCAL/MOL
REMARK 924 INTRA-LIGAND FREE ENERGY PREDICTED BY IDOCK:   -0.49 KCAL/MOL
REMARK 927      BINDING AFFINITY PREDICTED BY RF-SCORE:    0.00 PKD
ROOT
HETATM    1 CL   UNL     1     -10.760  16.628  69.544  1.00  0.00    -0.327 Cl 
HETATM    2  C   UNL     1     -11.295  15.010  69.775  1.00  0.00    -0.283 A  
HETATM    3  C   UNL     1     -12.060  14.690  70.888  1.00  0.00    -0.393 A  
HETATM    4  C   UNL     1     -12.502  13.378  71.067  1.00  0.00    -0.437 A  
HETATM    5  C   UNL     1     -12.200  12.376  70.134  1.00  0.00    -0.229 A  
HETATM    6  C   UNL     1     -10.960  14.023  68.849  1.00  0.00    -0.283 A  
HETATM    7  C   UNL     1     -11.401  12.705  69.034  1.00  0.00    -0.345 A  
ENDROOT
BRANCH   5   8
HETATM    8  N   UNL     1     -12.659  11.042  70.271  1.00  0.00    -0.276 N  
HETATM    9  H   UNL     1     -13.287  10.675  69.556  1.00  0.00     0.000 HD 
BRANCH   8  10
HETATM   10  C   UNL     1     -12.306  10.208  71.318  1.00  0.00    -0.400 C  
HETATM   11  O   UNL     1     -12.973  10.083  72.341  1.00  0.00    -0.329 OA 
BRANCH  10  12
HETATM   12  N   UNL     1     -11.121   9.525  71.096  1.00  0.00    -0.352 N  
HETATM   13  H   UNL     1     -10.320   9.747  71.687  1.00  0.00     0.000 HD 
BRANCH  12  14
HETATM   14  C   UNL     1     -10.958   8.537  70.093  1.00  0.00    -0.216 A  
HETATM   15  C   UNL     1     -10.492   8.838  68.805  1.00  0.00    -0.214 A  
HETATM   16  C   UNL     1     -10.309   7.835  67.847  1.00  0.00    -0.217 A  
HETATM   17 CL   UNL     1      -9.709   8.306  66.296  1.00  0.00    -0.287 Cl 
HETATM   18  C   UNL     1     -10.611   6.512  68.166  1.00  0.00    -0.251 A  
HETATM   19  C   UNL     1     -11.105   6.204  69.437  1.00  0.00    -0.479 A  
HETATM   20 CL   UNL     1     -10.404   5.219  67.040  1.00  0.00    -0.270 Cl 
HETATM   21  C   UNL     1     -11.289   7.213  70.394  1.00  0.00    -0.325 A  
ENDBRANCH  12  14
ENDBRANCH  10  12
ENDBRANCH   8  10
ENDBRANCH   5   8
TORSDOF 4
ENDMDL
MODEL      102
REMARK 921   NORMALIZED FREE ENERGY PREDICTED BY IDOCK:   -4.69 KCAL/MOL
REMARK 922        TOTAL FREE ENERGY PREDICTED BY IDOCK:   -6.39 KCAL/MOL
REMARK 923 INTER-LIGAND FREE ENERGY PREDICTED BY IDOCK:   -5.64 KCAL/MOL
REMARK 924 INTRA-LIGAND FREE ENERGY PREDICTED BY IDOCK:   -0.76 KCAL/MOL
REMARK 927      BINDING AFFINITY PREDICTED BY RF-SCORE:    0.00 PKD
ROOT
HETATM    1 CL   UNL     1     -10.973   8.134  69.935  1.00  0.00    -0.213 Cl 
HETATM    2  C   UNL     1     -10.392   9.015  68.577  1.00  0.00    -0.203 A  
HETATM    3  C   UNL     1     -10.492   8.466  67.306  1.00  0.00    -0.373 A  
HETATM    4  C   UNL     1     -10.029   9.189  66.205  1.00  0.00    -0.352 A  
HETATM    5  C   UNL     1      -9.475  10.468  66.356  1.00  0.00    -0.171 A  
HETATM    6  C   UNL     1      -9.819  10.274  68.754  1.00  0.00    -0.184 A  
HETATM    7  C   UNL     1      -9.350  10.995  67.646  1.00  0.00    -0.162 A  
ENDROOT
BRANCH   5   8
HETATM    8  N   UNL     1      -9.024  11.240  65.256  1.00  0.00    -0.363 N  
HETATM    9  H   UNL     1      -8.020  11.290  65.084  1.00  0.00     0.000 HD 
BRANCH   8  10
HETATM   10  C   UNL     1      -9.867  11.929  64.400  1.00  0.00    -0.178 C  
HETATM   11  O   UNL     1     -10.561  11.385  63.547  1.00  0.00    -0.368 OA 
BRANCH  10  12
HETATM   12  N   UNL     1      -9.850  13.300  64.606  1.00  0.00    -0.604 N  
HETATM   13  H   UNL     1      -9.456  13.890  63.873  1.00  0.00     0.000 HD 
BRANCH  12  14
HETATM   14  C   UNL     1     -10.347  13.927  65.775  1.00  0.00    -0.316 A  
HETATM   15  C   UNL     1      -9.630  14.915  66.464  1.00  0.00    -0.297 A  
HETATM   16  C   UNL     1     -10.162  15.542  67.597  1.00  0.00    -0.255 A  
HETATM   17 CL   UNL     1      -9.208  16.763  68.362  1.00  0.00    -0.221 Cl 
HETATM   18  C   UNL     1     -11.421  15.167  68.065  1.00  0.00    -0.342 A  
HETATM   19  C   UNL     1     -12.133  14.162  67.404  1.00  0.00    -0.379 A  
HETATM   20 CL   UNL     1     -12.147  15.899  69.450  1.00  0.00    -0.280 Cl 
HETATM   21  C   UNL     1     -11.594  13.536  66.270  1.00  0.00    -0.374 A  
ENDBRANCH  12  14
ENDBRANCH  10  12
ENDBRANCH   8  10
ENDBRANCH   5   8
TORSDOF 4
ENDMDL
MODEL      103
REMARK 921   NORMALIZED FREE ENERGY PREDICTED BY IDOCK:   -4.68 KCAL/MOL
REMARK 922        TOTAL FREE ENERGY PREDICTED BY IDOCK:   -6.39 KCAL/MOL
REMARK 923 INTER-LIGAND FREE ENERGY PREDICTED BY IDOCK:   -5.90 KCAL/MOL
REMARK 924 INTRA-LIGAND FREE ENERGY PREDICTED BY IDOCK:   -0.49 KCAL/MOL
REMARK 927      BINDING AFFINITY PREDICTED BY RF-SCORE:    0.00 PKD
ROOT
HETATM    1 CL   UNL     1      -5.639  11.463  68.082  1.00  0.00    -0.042 Cl 
HETATM    2  C   UNL     1      -7.047  12.247  67.480  1.00  0.00    -0.142 A  
HETATM    3  C   UNL     1      -7.197  13.617  67.648  1.00  0.00    -0.179 A  
HETATM    4  C   UNL     1      -8.336  14.251  67.148  1.00  0.00    -0.202 A  
HETATM    5  C   UNL     1      -9.328  13.533  66.466  1.00  0.00    -0.215 A  
HETATM    6  C   UNL     1      -8.034  11.508  66.829  1.00  0.00    -0.152 A  
HETATM    7  C   UNL     1      -9.180  12.148  66.334  1.00  0.00    -0.207 A  
ENDROOT
BRANCH   5   8
HETATM    8  N   UNL     1     -10.480  14.152  65.921  1.00  0.00    -0.296 N  
HETATM    9  H   UNL     1     -10.386  14.644  65.033  1.00  0.00     0.000 HD 
BRANCH   8  10
HETATM   10  C   UNL     1     -11.727  14.129  66.524  1.00  0.00    -0.397 C  
HETATM   11  O   UNL     1     -12.766  13.871  65.925  1.00  0.00    -0.489 OA 
BRANCH  10  12
HETATM   12  N   UNL     1     -11.684  14.426  67.877  1.00  0.00    -0.343 N  
HETATM   13  H   UNL     1     -11.426  15.373  68.153  1.00  0.00     0.000 HD 
BRANCH  12  14
HETATM   14  C   UNL     1     -11.976  13.488  68.899  1.00  0.00    -0.341 A  
HETATM   15  C   UNL     1     -12.554  13.861  70.121  1.00  0.00    -0.285 A  
HETATM   16  C   UNL     1     -12.863  12.908  71.098  1.00  0.00    -0.238 A  
HETATM   17 CL   UNL     1     -13.595  13.465  72.561  1.00  0.00    -0.687 Cl 
HETATM   18  C   UNL     1     -12.576  11.563  70.866  1.00  0.00    -0.341 A  
HETATM   19  C   UNL     1     -11.972  11.184  69.663  1.00  0.00    -0.429 A  
HETATM   20 CL   UNL     1     -12.935  10.329  72.019  1.00  0.00    -0.528 Cl 
HETATM   21  C   UNL     1     -11.662  12.143  68.688  1.00  0.00    -0.382 A  
ENDBRANCH  12  14
ENDBRANCH  10  12
ENDBRANCH   8  10
ENDBRANCH   5   8
TORSDOF 4
ENDMDL
MODEL      104
REMARK 921   NORMALIZED FREE ENERGY PREDICTED BY IDOCK:   -4.68 KCAL/MOL
REMARK 922        TOTAL FREE ENERGY PREDICTED BY IDOCK:   -6.38 KCAL/MOL
REMARK 923 INTER-LIGAND FREE ENERGY PREDICTED BY IDOCK:   -5.91 KCAL/MOL
REMARK 924 INTRA-LIGAND FREE ENERGY PREDICTED BY IDOCK:   -0.47 KCAL/MOL
REMARK 927      BINDING AFFINITY PREDICTED BY RF-SCORE:    0.00 PKD
ROOT
HETATM    1 CL   UNL     1     -11.240   5.838  71.959  1.00  0.00    -0.321 Cl 
HETATM    2  C   UNL     1     -10.916   6.321  70.341  1.00  0.00    -0.322 A  
HETATM    3  C   UNL     1     -10.908   7.670  70.013  1.00  0.00    -0.250 A  
HETATM    4  C   UNL     1     -10.635   8.058  68.700  1.00  0.00    -0.143 A  
HETATM    5  C   UNL     1     -10.353   7.111  67.706  1.00  0.00    -0.202 A  
HETATM    6  C   UNL     1     -10.666   5.361  69.361  1.00  0.00    -0.226 A  
HETATM    7  C   UNL     1     -10.397   5.755  68.043  1.00  0.00    -0.258 A  
ENDROOT
BRANCH   5   8
HETATM    8  N   UNL     1     -10.041   7.475  66.372  1.00  0.00    -0.476 N  
HETATM    9  H   UNL     1     -10.638   7.119  65.626  1.00  0.00     0.000 HD 
BRANCH   8  10
HETATM   10  C   UNL     1      -8.974   8.287  66.023  1.00  0.00    -0.181 C  
HETATM   11  O   UNL     1      -7.858   8.192  66.523  1.00  0.00    -0.091 OA 
BRANCH  10  12
HETATM   12  N   UNL     1      -9.294   9.218  65.048  1.00  0.00    -0.440 N  
HETATM   13  H   UNL     1      -8.951   9.058  64.101  1.00  0.00     0.000 HD 
BRANCH  12  14
HETATM   14  C   UNL     1     -10.070  10.379  65.291  1.00  0.00    -0.300 A  
HETATM   15  C   UNL     1     -10.702  11.093  64.264  1.00  0.00    -0.403 A  
HETATM   16  C   UNL     1     -11.489  12.216  64.538  1.00  0.00    -0.334 A  
HETATM   17 CL   UNL     1     -12.245  13.014  63.204  1.00  0.00    -0.503 Cl 
HETATM   18  C   UNL     1     -11.637  12.650  65.855  1.00  0.00    -0.396 A  
HETATM   19  C   UNL     1     -10.987  11.964  66.886  1.00  0.00    -0.335 A  
HETATM   20 CL   UNL     1     -12.598  14.022  66.274  1.00  0.00    -0.443 Cl 
HETATM   21  C   UNL     1     -10.197  10.840  66.605  1.00  0.00    -0.283 A  
ENDBRANCH  12  14
ENDBRANCH  10  12
ENDBRANCH   8  10
ENDBRANCH   5   8
TORSDOF 4
ENDMDL
MODEL      105
REMARK 921   NORMALIZED FREE ENERGY PREDICTED BY IDOCK:   -4.67 KCAL/MOL
REMARK 922        TOTAL FREE ENERGY PREDICTED BY IDOCK:   -6.37 KCAL/MOL
REMARK 923 INTER-LIGAND FREE ENERGY PREDICTED BY IDOCK:   -6.08 KCAL/MOL
REMARK 924 INTRA-LIGAND FREE ENERGY PREDICTED BY IDOCK:   -0.29 KCAL/MOL
REMARK 927      BINDING AFFINITY PREDICTED BY RF-SCORE:    0.00 PKD
ROOT
HETATM    1 CL   UNL     1     -10.265  19.660  68.595  1.00  0.00    -0.531 Cl 
HETATM    2  C   UNL     1     -10.443  18.115  67.863  1.00  0.00    -0.392 A  
HETATM    3  C   UNL     1     -10.886  17.040  68.622  1.00  0.00    -0.284 A  
HETATM    4  C   UNL     1     -11.040  15.789  68.021  1.00  0.00    -0.337 A  
HETATM    5  C   UNL     1     -10.770  15.599  66.659  1.00  0.00    -0.296 A  
HETATM    6  C   UNL     1     -10.142  17.941  66.512  1.00  0.00    -0.370 A  
HETATM    7  C   UNL     1     -10.292  16.682  65.914  1.00  0.00    -0.355 A  
ENDROOT
BRANCH   5   8
HETATM    8  N   UNL     1     -10.945  14.349  66.013  1.00  0.00    -0.310 N  
HETATM    9  H   UNL     1     -10.194  14.009  65.413  1.00  0.00     0.000 HD 
BRANCH   8  10
HETATM   10  C   UNL     1     -12.077  13.563  66.149  1.00  0.00    -0.436 C  
HETATM   11  O   UNL     1     -13.156  13.830  65.629  1.00  0.00    -0.591 OA 
BRANCH  10  12
HETATM   12  N   UNL     1     -11.870  12.440  66.933  1.00  0.00    -0.360 N  
HETATM   13  H   UNL     1     -12.414  12.345  67.790  1.00  0.00     0.000 HD 
BRANCH  12  14
HETATM   14  C   UNL     1     -10.943  11.416  66.613  1.00  0.00    -0.285 A  
HETATM   15  C   UNL     1     -10.292  10.654  67.594  1.00  0.00    -0.246 A  
HETATM   16  C   UNL     1      -9.408   9.627  67.247  1.00  0.00    -0.138 A  
HETATM   17 CL   UNL     1      -8.673   8.732  68.529  1.00  0.00    -0.134 Cl 
HETATM   18  C   UNL     1      -9.152   9.362  65.902  1.00  0.00    -0.195 A  
HETATM   19  C   UNL     1      -9.772  10.135  64.916  1.00  0.00    -0.392 A  
HETATM   20 CL   UNL     1      -8.080   8.107  65.395  1.00  0.00    -0.122 Cl 
HETATM   21  C   UNL     1     -10.656  11.165  65.269  1.00  0.00    -0.303 A  
ENDBRANCH  12  14
ENDBRANCH  10  12
ENDBRANCH   8  10
ENDBRANCH   5   8
TORSDOF 4
ENDMDL
MODEL      106
REMARK 921   NORMALIZED FREE ENERGY PREDICTED BY IDOCK:   -4.66 KCAL/MOL
REMARK 922        TOTAL FREE ENERGY PREDICTED BY IDOCK:   -6.36 KCAL/MOL
REMARK 923 INTER-LIGAND FREE ENERGY PREDICTED BY IDOCK:   -6.02 KCAL/MOL
REMARK 924 INTRA-LIGAND FREE ENERGY PREDICTED BY IDOCK:   -0.34 KCAL/MOL
REMARK 927      BINDING AFFINITY PREDICTED BY RF-SCORE:    0.00 PKD
ROOT
HETATM    1 CL   UNL     1     -10.751   6.822  73.784  1.00  0.00    -0.311 Cl 
HETATM    2  C   UNL     1     -10.583   7.972  72.517  1.00  0.00    -0.329 A  
HETATM    3  C   UNL     1      -9.316   8.358  72.101  1.00  0.00    -0.339 A  
HETATM    4  C   UNL     1      -9.183   9.285  71.065  1.00  0.00    -0.273 A  
HETATM    5  C   UNL     1     -10.307   9.823  70.424  1.00  0.00    -0.293 A  
HETATM    6  C   UNL     1     -11.715   8.516  71.912  1.00  0.00    -0.409 A  
HETATM    7  C   UNL     1     -11.578   9.451  70.875  1.00  0.00    -0.380 A  
ENDROOT
BRANCH   5   8
HETATM    8  N   UNL     1     -10.206  10.742  69.349  1.00  0.00    -0.361 N  
HETATM    9  H   UNL     1     -10.119  11.733  69.571  1.00  0.00     0.000 HD 
BRANCH   8  10
HETATM   10  C   UNL     1     -10.217  10.371  68.014  1.00  0.00    -0.169 C  
HETATM   11  O   UNL     1      -9.356   9.665  67.498  1.00  0.00    -0.129 OA 
BRANCH  10  12
HETATM   12  N   UNL     1     -11.301  10.878  67.317  1.00  0.00    -0.242 N  
HETATM   13  H   UNL     1     -12.143  10.306  67.256  1.00  0.00     0.000 HD 
BRANCH  12  14
HETATM   14  C   UNL     1     -11.308  12.146  66.684  1.00  0.00    -0.350 A  
HETATM   15  C   UNL     1     -11.360  13.349  67.404  1.00  0.00    -0.338 A  
HETATM   16  C   UNL     1     -11.331  14.586  66.752  1.00  0.00    -0.352 A  
HETATM   17 CL   UNL     1     -11.375  16.010  67.731  1.00  0.00    -0.233 Cl 
HETATM   18  C   UNL     1     -11.268  14.632  65.360  1.00  0.00    -0.347 A  
HETATM   19  C   UNL     1     -11.248  13.440  64.630  1.00  0.00    -0.377 A  
HETATM   20 CL   UNL     1     -11.222  16.120  64.486  1.00  0.00    -0.409 Cl 
HETATM   21  C   UNL     1     -11.279  12.202  65.288  1.00  0.00    -0.381 A  
ENDBRANCH  12  14
ENDBRANCH  10  12
ENDBRANCH   8  10
ENDBRANCH   5   8
TORSDOF 4
ENDMDL
MODEL      107
REMARK 921   NORMALIZED FREE ENERGY PREDICTED BY IDOCK:   -4.65 KCAL/MOL
REMARK 922        TOTAL FREE ENERGY PREDICTED BY IDOCK:   -6.35 KCAL/MOL
REMARK 923 INTER-LIGAND FREE ENERGY PREDICTED BY IDOCK:   -6.20 KCAL/MOL
REMARK 924 INTRA-LIGAND FREE ENERGY PREDICTED BY IDOCK:   -0.15 KCAL/MOL
REMARK 927      BINDING AFFINITY PREDICTED BY RF-SCORE:    0.00 PKD
ROOT
HETATM    1 CL   UNL     1      -7.436   8.656  62.946  1.00  0.00    -0.101 Cl 
HETATM    2  C   UNL     1      -8.675   9.668  63.576  1.00  0.00    -0.222 A  
HETATM    3  C   UNL     1      -9.095   9.508  64.889  1.00  0.00    -0.276 A  
HETATM    4  C   UNL     1     -10.094  10.340  65.400  1.00  0.00    -0.354 A  
HETATM    5  C   UNL     1     -10.674  11.346  64.614  1.00  0.00    -0.314 A  
HETATM    6  C   UNL     1      -9.258  10.645  62.768  1.00  0.00    -0.328 A  
HETATM    7  C   UNL     1     -10.265  11.474  63.283  1.00  0.00    -0.432 A  
ENDROOT
BRANCH   5   8
HETATM    8  N   UNL     1     -11.668  12.225  65.113  1.00  0.00    -0.370 N  
HETATM    9  H   UNL     1     -12.632  12.078  64.815  1.00  0.00     0.000 HD 
BRANCH   8  10
HETATM   10  C   UNL     1     -11.406  13.273  65.980  1.00  0.00    -0.305 C  
HETATM   11  O   UNL     1     -11.707  14.439  65.745  1.00  0.00    -0.353 OA 
BRANCH  10  12
HETATM   12  N   UNL     1     -10.770  12.871  67.143  1.00  0.00    -0.251 N  
HETATM   13  H   UNL     1      -9.825  12.494  67.068  1.00  0.00     0.000 HD 
BRANCH  12  14
HETATM   14  C   UNL     1     -11.356  12.955  68.431  1.00  0.00    -0.294 A  
HETATM   15  C   UNL     1     -11.459  14.163  69.136  1.00  0.00    -0.338 A  
HETATM   16  C   UNL     1     -12.073  14.221  70.391  1.00  0.00    -0.339 A  
HETATM   17 CL   UNL     1     -12.171  15.761  71.168  1.00  0.00    -0.442 Cl 
HETATM   18  C   UNL     1     -12.578  13.055  70.966  1.00  0.00    -0.299 A  
HETATM   19  C   UNL     1     -12.454  11.840  70.287  1.00  0.00    -0.237 A  
HETATM   20 CL   UNL     1     -13.356  13.048  72.508  1.00  0.00    -0.569 Cl 
HETATM   21  C   UNL     1     -11.835  11.787  69.029  1.00  0.00    -0.379 A  
ENDBRANCH  12  14
ENDBRANCH  10  12
ENDBRANCH   8  10
ENDBRANCH   5   8
TORSDOF 4
ENDMDL
MODEL      108
REMARK 921   NORMALIZED FREE ENERGY PREDICTED BY IDOCK:   -4.65 KCAL/MOL
REMARK 922        TOTAL FREE ENERGY PREDICTED BY IDOCK:   -6.35 KCAL/MOL
REMARK 923 INTER-LIGAND FREE ENERGY PREDICTED BY IDOCK:   -5.62 KCAL/MOL
REMARK 924 INTRA-LIGAND FREE ENERGY PREDICTED BY IDOCK:   -0.73 KCAL/MOL
REMARK 927      BINDING AFFINITY PREDICTED BY RF-SCORE:    0.00 PKD
ROOT
HETATM    1 CL   UNL     1     -12.054  15.062  68.760  1.00  0.00    -0.265 Cl 
HETATM    2  C   UNL     1     -11.302  13.895  67.745  1.00  0.00    -0.308 A  
HETATM    3  C   UNL     1     -12.029  13.299  66.724  1.00  0.00    -0.438 A  
HETATM    4  C   UNL     1     -11.412  12.360  65.896  1.00  0.00    -0.422 A  
HETATM    5  C   UNL     1     -10.063  12.016  66.065  1.00  0.00    -0.230 A  
HETATM    6  C   UNL     1      -9.966  13.548  67.949  1.00  0.00    -0.245 A  
HETATM    7  C   UNL     1      -9.352  12.600  67.118  1.00  0.00    -0.210 A  
ENDROOT
BRANCH   5   8
HETATM    8  N   UNL     1      -9.400  11.090  65.222  1.00  0.00    -0.211 N  
HETATM    9  H   UNL     1      -9.226  11.361  64.254  1.00  0.00     0.000 HD 
BRANCH   8  10
HETATM   10  C   UNL     1      -8.974   9.838  65.635  1.00  0.00    -0.163 C  
HETATM   11  O   UNL     1      -7.793   9.540  65.789  1.00  0.00    -0.101 OA 
BRANCH  10  12
HETATM   12  N   UNL     1     -10.017   8.954  65.858  1.00  0.00    -0.445 N  
HETATM   13  H   UNL     1     -10.621   8.715  65.072  1.00  0.00     0.000 HD 
BRANCH  12  14
HETATM   14  C   UNL     1     -10.292   8.363  67.117  1.00  0.00    -0.311 A  
HETATM   15  C   UNL     1     -10.165   9.064  68.324  1.00  0.00    -0.241 A  
HETATM   16  C   UNL     1     -10.477   8.464  69.548  1.00  0.00    -0.224 A  
HETATM   17 CL   UNL     1     -10.310   9.420  70.978  1.00  0.00    -0.378 Cl 
HETATM   18  C   UNL     1     -10.905   7.137  69.577  1.00  0.00    -0.225 A  
HETATM   19  C   UNL     1     -11.006   6.418  68.383  1.00  0.00    -0.390 A  
HETATM   20 CL   UNL     1     -11.316   6.330  71.048  1.00  0.00    -0.377 Cl 
HETATM   21  C   UNL     1     -10.691   7.024  67.158  1.00  0.00    -0.433 A  
ENDBRANCH  12  14
ENDBRANCH  10  12
ENDBRANCH   8  10
ENDBRANCH   5   8
TORSDOF 4
ENDMDL
MODEL      109
REMARK 921   NORMALIZED FREE ENERGY PREDICTED BY IDOCK:   -4.65 KCAL/MOL
REMARK 922        TOTAL FREE ENERGY PREDICTED BY IDOCK:   -6.34 KCAL/MOL
REMARK 923 INTER-LIGAND FREE ENERGY PREDICTED BY IDOCK:   -5.74 KCAL/MOL
REMARK 924 INTRA-LIGAND FREE ENERGY PREDICTED BY IDOCK:   -0.61 KCAL/MOL
REMARK 927      BINDING AFFINITY PREDICTED BY RF-SCORE:    0.00 PKD
ROOT
HETATM    1 CL   UNL     1      -9.874  18.172  68.840  1.00  0.00    -0.349 Cl 
HETATM    2  C   UNL     1     -10.416  16.918  67.796  1.00  0.00    -0.340 A  
HETATM    3  C   UNL     1     -10.129  16.978  66.440  1.00  0.00    -0.325 A  
HETATM    4  C   UNL     1     -10.562  15.952  65.597  1.00  0.00    -0.393 A  
HETATM    5  C   UNL     1     -11.271  14.851  66.098  1.00  0.00    -0.325 A  
HETATM    6  C   UNL     1     -11.144  15.846  68.311  1.00  0.00    -0.345 A  
HETATM    7  C   UNL     1     -11.582  14.820  67.461  1.00  0.00    -0.379 A  
ENDROOT
BRANCH   5   8
HETATM    8  N   UNL     1     -11.697  13.779  65.275  1.00  0.00    -0.326 N  
HETATM    9  H   UNL     1     -12.699  13.643  65.144  1.00  0.00     0.000 HD 
BRANCH   8  10
HETATM   10  C   UNL     1     -10.832  12.905  64.637  1.00  0.00    -0.342 C  
HETATM   11  O   UNL     1     -10.977  12.531  63.477  1.00  0.00    -0.445 OA 
BRANCH  10  12
HETATM   12  N   UNL     1      -9.781  12.494  65.441  1.00  0.00    -0.439 N  
HETATM   13  H   UNL     1      -8.880  12.957  65.328  1.00  0.00     0.000 HD 
BRANCH  12  14
HETATM   14  C   UNL     1      -9.887  11.467  66.412  1.00  0.00    -0.211 A  
HETATM   15  C   UNL     1     -10.107  10.125  66.070  1.00  0.00    -0.317 A  
HETATM   16  C   UNL     1     -10.173   9.128  67.049  1.00  0.00    -0.263 A  
HETATM   17 CL   UNL     1     -10.424   7.501  66.522  1.00  0.00    -0.181 Cl 
HETATM   18  C   UNL     1     -10.038   9.471  68.393  1.00  0.00    -0.175 A  
HETATM   19  C   UNL     1      -9.849  10.809  68.749  1.00  0.00    -0.200 A  
HETATM   20 CL   UNL     1     -10.101   8.296  69.658  1.00  0.00    -0.194 Cl 
HETATM   21  C   UNL     1      -9.785  11.806  67.764  1.00  0.00    -0.185 A  
ENDBRANCH  12  14
ENDBRANCH  10  12
ENDBRANCH   8  10
ENDBRANCH   5   8
TORSDOF 4
ENDMDL
MODEL      110
REMARK 921   NORMALIZED FREE ENERGY PREDICTED BY IDOCK:   -4.64 KCAL/MOL
REMARK 922        TOTAL FREE ENERGY PREDICTED BY IDOCK:   -6.33 KCAL/MOL
REMARK 923 INTER-LIGAND FREE ENERGY PREDICTED BY IDOCK:   -5.62 KCAL/MOL
REMARK 924 INTRA-LIGAND FREE ENERGY PREDICTED BY IDOCK:   -0.71 KCAL/MOL
REMARK 927      BINDING AFFINITY PREDICTED BY RF-SCORE:    0.00 PKD
ROOT
HETATM    1 CL   UNL     1     -12.060  12.988  63.385  1.00  0.00    -0.630 Cl 
HETATM    2  C   UNL     1     -11.793  12.764  65.068  1.00  0.00    -0.382 A  
HETATM    3  C   UNL     1     -11.141  11.623  65.517  1.00  0.00    -0.297 A  
HETATM    4  C   UNL     1     -10.917  11.450  66.884  1.00  0.00    -0.355 A  
HETATM    5  C   UNL     1     -11.325  12.415  67.815  1.00  0.00    -0.299 A  
HETATM    6  C   UNL     1     -12.232  13.724  65.980  1.00  0.00    -0.495 A  
HETATM    7  C   UNL     1     -12.010  13.544  67.353  1.00  0.00    -0.398 A  
ENDROOT
BRANCH   5   8
HETATM    8  N   UNL     1     -11.085  12.283  69.206  1.00  0.00    -0.406 N  
HETATM    9  H   UNL     1     -10.473  12.965  69.654  1.00  0.00     0.000 HD 
BRANCH   8  10
HETATM   10  C   UNL     1     -11.633  11.283  69.992  1.00  0.00    -0.321 C  
HETATM   11  O   UNL     1     -12.837  11.163  70.196  1.00  0.00    -0.156 OA 
BRANCH  10  12
HETATM   12  N   UNL     1     -10.683  10.427  70.525  1.00  0.00    -0.423 N  
HETATM   13  H   UNL     1     -10.451  10.522  71.513  1.00  0.00     0.000 HD 
BRANCH  12  14
HETATM   14  C   UNL     1     -10.015   9.426  69.775  1.00  0.00    -0.200 A  
HETATM   15  C   UNL     1     -10.698   8.511  68.962  1.00  0.00    -0.113 A  
HETATM   16  C   UNL     1     -10.009   7.556  68.207  1.00  0.00    -0.173 A  
HETATM   17 CL   UNL     1     -10.941   6.489  67.217  1.00  0.00    -0.458 Cl 
HETATM   18  C   UNL     1      -8.617   7.495  68.275  1.00  0.00    -0.124 A  
HETATM   19  C   UNL     1      -7.927   8.382  69.107  1.00  0.00    -0.110 A  
HETATM   20 CL   UNL     1      -7.697   6.350  67.368  1.00  0.00    -0.103 Cl 
HETATM   21  C   UNL     1      -8.623   9.337  69.863  1.00  0.00    -0.178 A  
ENDBRANCH  12  14
ENDBRANCH  10  12
ENDBRANCH   8  10
ENDBRANCH   5   8
TORSDOF 4
ENDMDL
MODEL      111
REMARK 921   NORMALIZED FREE ENERGY PREDICTED BY IDOCK:   -4.63 KCAL/MOL
REMARK 922        TOTAL FREE ENERGY PREDICTED BY IDOCK:   -6.33 KCAL/MOL
REMARK 923 INTER-LIGAND FREE ENERGY PREDICTED BY IDOCK:   -5.80 KCAL/MOL
REMARK 924 INTRA-LIGAND FREE ENERGY PREDICTED BY IDOCK:   -0.53 KCAL/MOL
REMARK 927      BINDING AFFINITY PREDICTED BY RF-SCORE:    0.00 PKD
ROOT
HETATM    1 CL   UNL     1     -13.405  11.754  72.178  1.00  0.00    -0.512 Cl 
HETATM    2  C   UNL     1     -12.846  10.194  71.718  1.00  0.00    -0.452 A  
HETATM    3  C   UNL     1     -11.569  10.047  71.193  1.00  0.00    -0.460 A  
HETATM    4  C   UNL     1     -11.115   8.777  70.831  1.00  0.00    -0.320 A  
HETATM    5  C   UNL     1     -11.920   7.642  70.999  1.00  0.00    -0.273 A  
HETATM    6  C   UNL     1     -13.674   9.082  71.868  1.00  0.00    -0.495 A  
HETATM    7  C   UNL     1     -13.216   7.809  71.498  1.00  0.00    -0.356 A  
ENDROOT
BRANCH   5   8
HETATM    8  N   UNL     1     -11.477   6.337  70.670  1.00  0.00    -0.354 N  
HETATM    9  H   UNL     1     -11.833   5.556  71.221  1.00  0.00     0.000 HD 
BRANCH   8  10
HETATM   10  C   UNL     1     -10.590   6.060  69.643  1.00  0.00    -0.300 C  
HETATM   11  O   UNL     1      -9.465   5.601  69.823  1.00  0.00    -0.141 OA 
BRANCH  10  12
HETATM   12  N   UNL     1     -11.100   6.351  68.388  1.00  0.00    -0.476 N  
HETATM   13  H   UNL     1     -12.023   5.989  68.149  1.00  0.00     0.000 HD 
BRANCH  12  14
HETATM   14  C   UNL     1     -10.413   7.123  67.418  1.00  0.00    -0.284 A  
HETATM   15  C   UNL     1     -10.682   8.482  67.206  1.00  0.00    -0.219 A  
HETATM   16  C   UNL     1      -9.964   9.227  66.264  1.00  0.00    -0.286 A  
HETATM   17 CL   UNL     1     -10.356  10.901  66.095  1.00  0.00    -0.302 Cl 
HETATM   18  C   UNL     1      -8.972   8.606  65.506  1.00  0.00    -0.158 A  
HETATM   19  C   UNL     1      -8.715   7.244  65.686  1.00  0.00    -0.092 A  
HETATM   20 CL   UNL     1      -8.038   9.460  64.330  1.00  0.00    -0.129 Cl 
HETATM   21  C   UNL     1      -9.439   6.502  66.630  1.00  0.00    -0.193 A  
ENDBRANCH  12  14
ENDBRANCH  10  12
ENDBRANCH   8  10
ENDBRANCH   5   8
TORSDOF 4
ENDMDL
MODEL      112
REMARK 921   NORMALIZED FREE ENERGY PREDICTED BY IDOCK:   -4.63 KCAL/MOL
REMARK 922        TOTAL FREE ENERGY PREDICTED BY IDOCK:   -6.32 KCAL/MOL
REMARK 923 INTER-LIGAND FREE ENERGY PREDICTED BY IDOCK:   -5.61 KCAL/MOL
REMARK 924 INTRA-LIGAND FREE ENERGY PREDICTED BY IDOCK:   -0.71 KCAL/MOL
REMARK 927      BINDING AFFINITY PREDICTED BY RF-SCORE:    0.00 PKD
ROOT
HETATM    1 CL   UNL     1      -7.733   6.737  66.782  1.00  0.00    -0.104 Cl 
HETATM    2  C   UNL     1      -8.761   6.588  68.153  1.00  0.00    -0.117 A  
HETATM    3  C   UNL     1      -8.312   7.005  69.399  1.00  0.00    -0.133 A  
HETATM    4  C   UNL     1      -9.153   6.892  70.507  1.00  0.00    -0.156 A  
HETATM    5  C   UNL     1     -10.452   6.379  70.385  1.00  0.00    -0.218 A  
HETATM    6  C   UNL     1     -10.039   6.049  68.013  1.00  0.00    -0.187 A  
HETATM    7  C   UNL     1     -10.879   5.933  69.130  1.00  0.00    -0.406 A  
ENDROOT
BRANCH   5   8
HETATM    8  N   UNL     1     -11.340   6.281  71.485  1.00  0.00    -0.289 N  
HETATM    9  H   UNL     1     -11.784   5.381  71.664  1.00  0.00     0.000 HD 
BRANCH   8  10
HETATM   10  C   UNL     1     -11.641   7.336  72.330  1.00  0.00    -0.268 C  
HETATM   11  O   UNL     1     -11.055   7.547  73.388  1.00  0.00    -0.344 OA 
BRANCH  10  12
HETATM   12  N   UNL     1     -12.671   8.134  71.861  1.00  0.00    -0.323 N  
HETATM   13  H   UNL     1     -13.606   7.730  71.809  1.00  0.00     0.000 HD 
BRANCH  12  14
HETATM   14  C   UNL     1     -12.501   9.480  71.448  1.00  0.00    -0.362 A  
HETATM   15  C   UNL     1     -13.223  10.540  72.014  1.00  0.00    -0.483 A  
HETATM   16  C   UNL     1     -13.008  11.862  71.610  1.00  0.00    -0.342 A  
HETATM   17 CL   UNL     1     -13.932  13.099  72.385  1.00  0.00    -0.600 Cl 
HETATM   18  C   UNL     1     -12.074  12.135  70.612  1.00  0.00    -0.250 A  
HETATM   19  C   UNL     1     -11.370  11.083  70.018  1.00  0.00    -0.358 A  
HETATM   20 CL   UNL     1     -11.748  13.740  70.065  1.00  0.00    -0.346 Cl 
HETATM   21  C   UNL     1     -11.590   9.759  70.426  1.00  0.00    -0.327 A  
ENDBRANCH  12  14
ENDBRANCH  10  12
ENDBRANCH   8  10
ENDBRANCH   5   8
TORSDOF 4
ENDMDL
MODEL      113
REMARK 921   NORMALIZED FREE ENERGY PREDICTED BY IDOCK:   -4.62 KCAL/MOL
REMARK 922        TOTAL FREE ENERGY PREDICTED BY IDOCK:   -6.31 KCAL/MOL
REMARK 923 INTER-LIGAND FREE ENERGY PREDICTED BY IDOCK:   -6.14 KCAL/MOL
REMARK 924 INTRA-LIGAND FREE ENERGY PREDICTED BY IDOCK:   -0.17 KCAL/MOL
REMARK 927      BINDING AFFINITY PREDICTED BY RF-SCORE:    0.00 PKD
ROOT
HETATM    1 CL   UNL     1     -10.736   5.205  71.991  1.00  0.00    -0.265 Cl 
HETATM    2  C   UNL     1     -10.703   6.829  71.429  1.00  0.00    -0.224 A  
HETATM    3  C   UNL     1     -10.988   7.867  72.305  1.00  0.00    -0.359 A  
HETATM    4  C   UNL     1     -10.949   9.186  71.847  1.00  0.00    -0.372 A  
HETATM    5  C   UNL     1     -10.614   9.485  70.520  1.00  0.00    -0.297 A  
HETATM    6  C   UNL     1     -10.394   7.102  70.097  1.00  0.00    -0.218 A  
HETATM    7  C   UNL     1     -10.362   8.427  69.639  1.00  0.00    -0.218 A  
ENDROOT
BRANCH   5   8
HETATM    8  N   UNL     1     -10.536  10.813  70.032  1.00  0.00    -0.459 N  
HETATM    9  H   UNL     1      -9.619  11.256  69.989  1.00  0.00     0.000 HD 
BRANCH   8  10
HETATM   10  C   UNL     1     -11.634  11.546  69.612  1.00  0.00    -0.333 C  
HETATM   11  O   UNL     1     -12.602  11.052  69.041  1.00  0.00    -0.378 OA 
BRANCH  10  12
HETATM   12  N   UNL     1     -11.531  12.897  69.902  1.00  0.00    -0.515 N  
HETATM   13  H   UNL     1     -11.628  13.188  70.875  1.00  0.00     0.000 HD 
BRANCH  12  14
HETATM   14  C   UNL     1     -11.299  13.898  68.925  1.00  0.00    -0.282 A  
HETATM   15  C   UNL     1     -10.968  15.218  69.262  1.00  0.00    -0.261 A  
HETATM   16  C   UNL     1     -10.711  16.176  68.275  1.00  0.00    -0.307 A  
HETATM   17 CL   UNL     1     -10.288  17.769  68.793  1.00  0.00    -0.362 Cl 
HETATM   18  C   UNL     1     -10.803  15.822  66.929  1.00  0.00    -0.265 A  
HETATM   19  C   UNL     1     -11.163  14.516  66.581  1.00  0.00    -0.346 A  
HETATM   20 CL   UNL     1     -10.494  16.945  65.655  1.00  0.00    -0.315 Cl 
HETATM   21  C   UNL     1     -11.421  13.560  67.575  1.00  0.00    -0.361 A  
ENDBRANCH  12  14
ENDBRANCH  10  12
ENDBRANCH   8  10
ENDBRANCH   5   8
TORSDOF 4
ENDMDL
MODEL      114
REMARK 921   NORMALIZED FREE ENERGY PREDICTED BY IDOCK:   -4.57 KCAL/MOL
REMARK 922        TOTAL FREE ENERGY PREDICTED BY IDOCK:   -6.25 KCAL/MOL
REMARK 923 INTER-LIGAND FREE ENERGY PREDICTED BY IDOCK:   -5.59 KCAL/MOL
REMARK 924 INTRA-LIGAND FREE ENERGY PREDICTED BY IDOCK:   -0.66 KCAL/MOL
REMARK 927      BINDING AFFINITY PREDICTED BY RF-SCORE:    0.00 PKD
ROOT
HETATM    1 CL   UNL     1      -5.679  14.026  71.087  1.00  0.00    -0.211 Cl 
HETATM    2  C   UNL     1      -6.583  14.318  69.653  1.00  0.00    -0.137 A  
HETATM    3  C   UNL     1      -7.221  15.538  69.478  1.00  0.00    -0.201 A  
HETATM    4  C   UNL     1      -7.945  15.776  68.308  1.00  0.00    -0.130 A  
HETATM    5  C   UNL     1      -8.029  14.809  67.297  1.00  0.00    -0.205 A  
HETATM    6  C   UNL     1      -6.676  13.332  68.672  1.00  0.00    -0.095 A  
HETATM    7  C   UNL     1      -7.409  13.572  67.501  1.00  0.00    -0.174 A  
ENDROOT
BRANCH   5   8
HETATM    8  N   UNL     1      -8.730  15.031  66.085  1.00  0.00    -0.436 N  
HETATM    9  H   UNL     1      -8.468  14.476  65.270  1.00  0.00     0.000 HD 
BRANCH   8  10
HETATM   10  C   UNL     1      -9.750  15.957  65.943  1.00  0.00    -0.351 C  
HETATM   11  O   UNL     1      -9.562  17.136  65.660  1.00  0.00    -0.535 OA 
BRANCH  10  12
HETATM   12  N   UNL     1     -11.009  15.417  66.150  1.00  0.00    -0.310 N  
HETATM   13  H   UNL     1     -11.679  15.452  65.382  1.00  0.00     0.000 HD 
BRANCH  12  14
HETATM   14  C   UNL     1     -11.420  14.820  67.369  1.00  0.00    -0.363 A  
HETATM   15  C   UNL     1     -11.488  13.430  67.542  1.00  0.00    -0.357 A  
HETATM   16  C   UNL     1     -11.864  12.869  68.767  1.00  0.00    -0.315 A  
HETATM   17 CL   UNL     1     -11.896  11.145  68.886  1.00  0.00    -0.400 Cl 
HETATM   18  C   UNL     1     -12.196  13.703  69.835  1.00  0.00    -0.304 A  
HETATM   19  C   UNL     1     -12.161  15.090  69.665  1.00  0.00    -0.337 A  
HETATM   20 CL   UNL     1     -12.662  13.086  71.379  1.00  0.00    -0.426 Cl 
HETATM   21  C   UNL     1     -11.785  15.647  68.434  1.00  0.00    -0.301 A  
ENDBRANCH  12  14
ENDBRANCH  10  12
ENDBRANCH   8  10
ENDBRANCH   5   8
TORSDOF 4
ENDMDL
MODEL      115
REMARK 921   NORMALIZED FREE ENERGY PREDICTED BY IDOCK:   -4.57 KCAL/MOL
REMARK 922        TOTAL FREE ENERGY PREDICTED BY IDOCK:   -6.24 KCAL/MOL
REMARK 923 INTER-LIGAND FREE ENERGY PREDICTED BY IDOCK:   -5.61 KCAL/MOL
REMARK 924 INTRA-LIGAND FREE ENERGY PREDICTED BY IDOCK:   -0.64 KCAL/MOL
REMARK 927      BINDING AFFINITY PREDICTED BY RF-SCORE:    0.00 PKD
ROOT
HETATM    1 CL   UNL     1     -14.377   8.138  71.883  1.00  0.00    -0.533 Cl 
HETATM    2  C   UNL     1     -12.889   8.767  71.295  1.00  0.00    -0.215 A  
HETATM    3  C   UNL     1     -12.836  10.064  70.803  1.00  0.00    -0.341 A  
HETATM    4  C   UNL     1     -11.623  10.575  70.336  1.00  0.00    -0.430 A  
HETATM    5  C   UNL     1     -10.451   9.808  70.368  1.00  0.00    -0.297 A  
HETATM    6  C   UNL     1     -11.740   7.977  71.310  1.00  0.00    -0.311 A  
HETATM    7  C   UNL     1     -10.525   8.492  70.835  1.00  0.00    -0.248 A  
ENDROOT
BRANCH   5   8
HETATM    8  N   UNL     1      -9.199  10.308  69.930  1.00  0.00    -0.404 N  
HETATM    9  H   UNL     1      -8.669  10.901  70.569  1.00  0.00     0.000 HD 
BRANCH   8  10
HETATM   10  C   UNL     1      -8.653  10.039  68.686  1.00  0.00    -0.123 C  
HETATM   11  O   UNL     1      -8.360   8.911  68.303  1.00  0.00    -0.123 OA 
BRANCH  10  12
HETATM   12  N   UNL     1      -8.471  11.175  67.913  1.00  0.00    -0.127 N  
HETATM   13  H   UNL     1      -7.517  11.488  67.737  1.00  0.00     0.000 HD 
BRANCH  12  14
HETATM   14  C   UNL     1      -9.535  11.927  67.355  1.00  0.00    -0.175 A  
HETATM   15  C   UNL     1      -9.806  13.248  67.736  1.00  0.00    -0.224 A  
HETATM   16  C   UNL     1     -10.843  13.977  67.142  1.00  0.00    -0.286 A  
HETATM   17 CL   UNL     1     -11.081  15.607  67.665  1.00  0.00    -0.323 Cl 
HETATM   18  C   UNL     1     -11.637  13.376  66.166  1.00  0.00    -0.346 A  
HETATM   19  C   UNL     1     -11.396  12.049  65.800  1.00  0.00    -0.384 A  
HETATM   20 CL   UNL     1     -12.929  14.212  65.383  1.00  0.00    -0.429 Cl 
HETATM   21  C   UNL     1     -10.357  11.322  66.399  1.00  0.00    -0.291 A  
ENDBRANCH  12  14
ENDBRANCH  10  12
ENDBRANCH   8  10
ENDBRANCH   5   8
TORSDOF 4
ENDMDL
MODEL      116
REMARK 921   NORMALIZED FREE ENERGY PREDICTED BY IDOCK:   -4.56 KCAL/MOL
REMARK 922        TOTAL FREE ENERGY PREDICTED BY IDOCK:   -6.24 KCAL/MOL
REMARK 923 INTER-LIGAND FREE ENERGY PREDICTED BY IDOCK:   -5.67 KCAL/MOL
REMARK 924 INTRA-LIGAND FREE ENERGY PREDICTED BY IDOCK:   -0.58 KCAL/MOL
REMARK 927      BINDING AFFINITY PREDICTED BY RF-SCORE:    0.00 PKD
ROOT
HETATM    1 CL   UNL     1     -12.314  13.089  63.246  1.00  0.00    -0.525 Cl 
HETATM    2  C   UNL     1     -11.111  12.450  64.296  1.00  0.00    -0.349 A  
HETATM    3  C   UNL     1     -10.505  13.277  65.232  1.00  0.00    -0.324 A  
HETATM    4  C   UNL     1      -9.536  12.752  66.090  1.00  0.00    -0.214 A  
HETATM    5  C   UNL     1      -9.173  11.399  66.036  1.00  0.00    -0.214 A  
HETATM    6  C   UNL     1     -10.745  11.108  64.206  1.00  0.00    -0.403 A  
HETATM    7  C   UNL     1      -9.768  10.586  65.066  1.00  0.00    -0.351 A  
ENDROOT
BRANCH   5   8
HETATM    8  N   UNL     1      -8.217  10.830  66.913  1.00  0.00    -0.126 N  
HETATM    9  H   UNL     1      -7.263  10.712  66.572  1.00  0.00     0.000 HD 
BRANCH   8  10
HETATM   10  C   UNL     1      -8.502  10.423  68.206  1.00  0.00    -0.123 C  
HETATM   11  O   UNL     1      -7.701  10.498  69.133  1.00  0.00    -0.109 OA 
BRANCH  10  12
HETATM   12  N   UNL     1      -9.786   9.923  68.350  1.00  0.00    -0.147 N  
HETATM   13  H   UNL     1     -10.067   9.143  67.756  1.00  0.00     0.000 HD 
BRANCH  12  14
HETATM   14  C   UNL     1     -10.732  10.433  69.274  1.00  0.00    -0.237 A  
HETATM   15  C   UNL     1     -11.228   9.673  70.342  1.00  0.00    -0.342 A  
HETATM   16  C   UNL     1     -12.136  10.215  71.259  1.00  0.00    -0.394 A  
HETATM   17 CL   UNL     1     -12.671   9.204  72.554  1.00  0.00    -0.405 Cl 
HETATM   18  C   UNL     1     -12.573  11.530  71.101  1.00  0.00    -0.359 A  
HETATM   19  C   UNL     1     -12.108  12.288  70.022  1.00  0.00    -0.346 A  
HETATM   20 CL   UNL     1     -13.685  12.271  72.195  1.00  0.00    -0.373 Cl 
HETATM   21  C   UNL     1     -11.200  11.740  69.106  1.00  0.00    -0.324 A  
ENDBRANCH  12  14
ENDBRANCH  10  12
ENDBRANCH   8  10
ENDBRANCH   5   8
TORSDOF 4
ENDMDL
MODEL      117
REMARK 921   NORMALIZED FREE ENERGY PREDICTED BY IDOCK:   -4.55 KCAL/MOL
REMARK 922        TOTAL FREE ENERGY PREDICTED BY IDOCK:   -6.23 KCAL/MOL
REMARK 923 INTER-LIGAND FREE ENERGY PREDICTED BY IDOCK:   -5.99 KCAL/MOL
REMARK 924 INTRA-LIGAND FREE ENERGY PREDICTED BY IDOCK:   -0.24 KCAL/MOL
REMARK 927      BINDING AFFINITY PREDICTED BY RF-SCORE:    0.00 PKD
ROOT
HETATM    1 CL   UNL     1      -8.152   8.834  62.576  1.00  0.00    -0.153 Cl 
HETATM    2  C   UNL     1      -9.143   9.887  63.506  1.00  0.00    -0.256 A  
HETATM    3  C   UNL     1      -9.740  10.984  62.900  1.00  0.00    -0.353 A  
HETATM    4  C   UNL     1     -10.552  11.831  63.657  1.00  0.00    -0.496 A  
HETATM    5  C   UNL     1     -10.789  11.588  65.017  1.00  0.00    -0.274 A  
HETATM    6  C   UNL     1      -9.342   9.642  64.864  1.00  0.00    -0.306 A  
HETATM    7  C   UNL     1     -10.154  10.499  65.622  1.00  0.00    -0.333 A  
ENDROOT
BRANCH   5   8
HETATM    8  N   UNL     1     -11.633  12.412  65.804  1.00  0.00    -0.380 N  
HETATM    9  H   UNL     1     -12.392  11.967  66.319  1.00  0.00     0.000 HD 
BRANCH   8  10
HETATM   10  C   UNL     1     -11.486  13.785  65.914  1.00  0.00    -0.322 C  
HETATM   11  O   UNL     1     -12.354  14.589  65.586  1.00  0.00    -0.340 OA 
BRANCH  10  12
HETATM   12  N   UNL     1     -10.258  14.162  66.434  1.00  0.00    -0.282 N  
HETATM   13  H   UNL     1      -9.554  13.438  66.577  1.00  0.00     0.000 HD 
BRANCH  12  14
HETATM   14  C   UNL     1      -9.924  15.495  66.778  1.00  0.00    -0.249 A  
HETATM   15  C   UNL     1      -8.860  16.185  66.181  1.00  0.00    -0.367 A  
HETATM   16  C   UNL     1      -8.576  17.513  66.517  1.00  0.00    -0.263 A  
HETATM   17 CL   UNL     1      -7.257  18.282  65.707  1.00  0.00    -0.265 Cl 
HETATM   18  C   UNL     1      -9.350  18.162  67.478  1.00  0.00    -0.258 A  
HETATM   19  C   UNL     1     -10.395  17.475  68.103  1.00  0.00    -0.375 A  
HETATM   20 CL   UNL     1      -9.066  19.802  67.940  1.00  0.00    -0.391 Cl 
HETATM   21  C   UNL     1     -10.675  16.144  67.763  1.00  0.00    -0.325 A  
ENDBRANCH  12  14
ENDBRANCH  10  12
ENDBRANCH   8  10
ENDBRANCH   5   8
TORSDOF 4
ENDMDL
MODEL      118
REMARK 921   NORMALIZED FREE ENERGY PREDICTED BY IDOCK:   -4.54 KCAL/MOL
REMARK 922        TOTAL FREE ENERGY PREDICTED BY IDOCK:   -6.21 KCAL/MOL
REMARK 923 INTER-LIGAND FREE ENERGY PREDICTED BY IDOCK:   -5.70 KCAL/MOL
REMARK 924 INTRA-LIGAND FREE ENERGY PREDICTED BY IDOCK:   -0.51 KCAL/MOL
REMARK 927      BINDING AFFINITY PREDICTED BY RF-SCORE:    0.00 PKD
ROOT
HETATM    1 CL   UNL     1      -9.587  11.903  67.132  1.00  0.00    -0.186 Cl 
HETATM    2  C   UNL     1     -10.352  11.193  68.498  1.00  0.00    -0.193 A  
HETATM    3  C   UNL     1      -9.667  10.258  69.262  1.00  0.00    -0.240 A  
HETATM    4  C   UNL     1     -10.287   9.691  70.377  1.00  0.00    -0.350 A  
HETATM    5  C   UNL     1     -11.587  10.059  70.751  1.00  0.00    -0.360 A  
HETATM    6  C   UNL     1     -11.656  11.553  68.836  1.00  0.00    -0.384 A  
HETATM    7  C   UNL     1     -12.278  10.977  69.954  1.00  0.00    -0.408 A  
ENDROOT
BRANCH   5   8
HETATM    8  N   UNL     1     -12.232   9.525  71.895  1.00  0.00    -0.374 N  
HETATM    9  H   UNL     1     -12.401  10.147  72.685  1.00  0.00     0.000 HD 
BRANCH   8  10
HETATM   10  C   UNL     1     -12.647   8.208  72.002  1.00  0.00    -0.330 C  
HETATM   11  O   UNL     1     -13.629   7.755  71.421  1.00  0.00    -0.329 OA 
BRANCH  10  12
HETATM   12  N   UNL     1     -11.838   7.448  72.832  1.00  0.00    -0.574 N  
HETATM   13  H   UNL     1     -11.669   7.787  73.779  1.00  0.00     0.000 HD 
BRANCH  12  14
HETATM   14  C   UNL     1     -11.232   6.228  72.441  1.00  0.00    -0.280 A  
HETATM   15  C   UNL     1     -10.864   5.960  71.115  1.00  0.00    -0.334 A  
HETATM   16  C   UNL     1     -10.237   4.760  70.764  1.00  0.00    -0.176 A  
HETATM   17 CL   UNL     1      -9.802   4.534  69.107  1.00  0.00    -0.247 Cl 
HETATM   18  C   UNL     1      -9.986   3.800  71.745  1.00  0.00    -0.157 A  
HETATM   19  C   UNL     1     -10.377   4.043  73.065  1.00  0.00    -0.240 A  
HETATM   20 CL   UNL     1      -9.210   2.299  71.391  1.00  0.00    -0.163 Cl 
HETATM   21  C   UNL     1     -11.007   5.247  73.411  1.00  0.00    -0.372 A  
ENDBRANCH  12  14
ENDBRANCH  10  12
ENDBRANCH   8  10
ENDBRANCH   5   8
TORSDOF 4
ENDMDL
MODEL      119
REMARK 921   NORMALIZED FREE ENERGY PREDICTED BY IDOCK:   -4.53 KCAL/MOL
REMARK 922        TOTAL FREE ENERGY PREDICTED BY IDOCK:   -6.20 KCAL/MOL
REMARK 923 INTER-LIGAND FREE ENERGY PREDICTED BY IDOCK:   -6.01 KCAL/MOL
REMARK 924 INTRA-LIGAND FREE ENERGY PREDICTED BY IDOCK:   -0.19 KCAL/MOL
REMARK 927      BINDING AFFINITY PREDICTED BY RF-SCORE:    0.00 PKD
ROOT
HETATM    1 CL   UNL     1      -5.892   9.587  65.378  1.00  0.00    -0.061 Cl 
HETATM    2  C   UNL     1      -7.391   9.640  66.219  1.00  0.00    -0.094 A  
HETATM    3  C   UNL     1      -8.546   9.185  65.598  1.00  0.00    -0.178 A  
HETATM    4  C   UNL     1      -9.759   9.219  66.288  1.00  0.00    -0.340 A  
HETATM    5  C   UNL     1      -9.833   9.692  67.606  1.00  0.00    -0.164 A  
HETATM    6  C   UNL     1      -7.446  10.139  67.520  1.00  0.00    -0.090 A  
HETATM    7  C   UNL     1      -8.667  10.177  68.208  1.00  0.00    -0.120 A  
ENDROOT
BRANCH   5   8
HETATM    8  N   UNL     1     -11.043   9.711  68.343  1.00  0.00    -0.481 N  
HETATM    9  H   UNL     1     -11.458   8.818  68.607  1.00  0.00     0.000 HD 
BRANCH   8  10
HETATM   10  C   UNL     1     -11.695  10.871  68.726  1.00  0.00    -0.286 C  
HETATM   11  O   UNL     1     -12.166  11.679  67.931  1.00  0.00    -0.560 OA 
BRANCH  10  12
HETATM   12  N   UNL     1     -11.764  11.030  70.101  1.00  0.00    -0.328 N  
HETATM   13  H   UNL     1     -11.467  10.251  70.689  1.00  0.00     0.000 HD 
BRANCH  12  14
HETATM   14  C   UNL     1     -12.223  12.211  70.736  1.00  0.00    -0.271 A  
HETATM   15  C   UNL     1     -11.702  13.478  70.439  1.00  0.00    -0.201 A  
HETATM   16  C   UNL     1     -12.199  14.630  71.058  1.00  0.00    -0.332 A  
HETATM   17 CL   UNL     1     -11.506  16.147  70.607  1.00  0.00    -0.408 Cl 
HETATM   18  C   UNL     1     -13.220  14.520  72.002  1.00  0.00    -0.362 A  
HETATM   19  C   UNL     1     -13.726  13.259  72.328  1.00  0.00    -0.686 A  
HETATM   20 CL   UNL     1     -13.890  15.896  72.802  1.00  0.00    -0.622 Cl 
HETATM   21  C   UNL     1     -13.223  12.107  71.706  1.00  0.00    -0.423 A  
ENDBRANCH  12  14
ENDBRANCH  10  12
ENDBRANCH   8  10
ENDBRANCH   5   8
TORSDOF 4
ENDMDL
MODEL      120
REMARK 921   NORMALIZED FREE ENERGY PREDICTED BY IDOCK:   -4.50 KCAL/MOL
REMARK 922        TOTAL FREE ENERGY PREDICTED BY IDOCK:   -6.16 KCAL/MOL
REMARK 923 INTER-LIGAND FREE ENERGY PREDICTED BY IDOCK:   -5.96 KCAL/MOL
REMARK 924 INTRA-LIGAND FREE ENERGY PREDICTED BY IDOCK:   -0.20 KCAL/MOL
REMARK 927      BINDING AFFINITY PREDICTED BY RF-SCORE:    0.00 PKD
ROOT
HETATM    1 CL   UNL     1      -9.286   9.537  68.074  1.00  0.00    -0.133 Cl 
HETATM    2  C   UNL     1     -10.219  10.574  67.069  1.00  0.00    -0.226 A  
HETATM    3  C   UNL     1     -11.150  11.432  67.639  1.00  0.00    -0.325 A  
HETATM    4  C   UNL     1     -11.898  12.280  66.820  1.00  0.00    -0.349 A  
HETATM    5  C   UNL     1     -11.718  12.293  65.431  1.00  0.00    -0.370 A  
HETATM    6  C   UNL     1     -10.043  10.552  65.686  1.00  0.00    -0.333 A  
HETATM    7  C   UNL     1     -10.800  11.401  64.866  1.00  0.00    -0.323 A  
ENDROOT
BRANCH   5   8
HETATM    8  N   UNL     1     -12.439  13.164  64.576  1.00  0.00    -0.599 N  
HETATM    9  H   UNL     1     -13.311  12.824  64.170  1.00  0.00     0.000 HD 
BRANCH   8  10
HETATM   10  C   UNL     1     -12.030  14.448  64.259  1.00  0.00    -0.410 C  
HETATM   11  O   UNL     1     -12.782  15.310  63.814  1.00  0.00    -0.687 OA 
BRANCH  10  12
HETATM   12  N   UNL     1     -10.682  14.665  64.497  1.00  0.00    -0.610 N  
HETATM   13  H   UNL     1     -10.009  14.283  63.833  1.00  0.00     0.000 HD 
BRANCH  12  14
HETATM   14  C   UNL     1     -10.185  15.388  65.611  1.00  0.00    -0.376 A  
HETATM   15  C   UNL     1      -9.794  14.762  66.803  1.00  0.00    -0.263 A  
HETATM   16  C   UNL     1      -9.275  15.499  67.873  1.00  0.00    -0.187 A  
HETATM   17 CL   UNL     1      -8.800  14.632  69.290  1.00  0.00    -0.031 Cl 
HETATM   18  C   UNL     1      -9.160  16.885  67.765  1.00  0.00    -0.229 A  
HETATM   19  C   UNL     1      -9.576  17.523  66.593  1.00  0.00    -0.290 A  
HETATM   20 CL   UNL     1      -8.523  17.861  69.039  1.00  0.00    -0.097 Cl 
HETATM   21  C   UNL     1     -10.097  16.780  65.524  1.00  0.00    -0.123 A  
ENDBRANCH  12  14
ENDBRANCH  10  12
ENDBRANCH   8  10
ENDBRANCH   5   8
TORSDOF 4
ENDMDL
MODEL      121
REMARK 921   NORMALIZED FREE ENERGY PREDICTED BY IDOCK:   -4.48 KCAL/MOL
REMARK 922        TOTAL FREE ENERGY PREDICTED BY IDOCK:   -6.14 KCAL/MOL
REMARK 923 INTER-LIGAND FREE ENERGY PREDICTED BY IDOCK:   -5.46 KCAL/MOL
REMARK 924 INTRA-LIGAND FREE ENERGY PREDICTED BY IDOCK:   -0.68 KCAL/MOL
REMARK 927      BINDING AFFINITY PREDICTED BY RF-SCORE:    0.00 PKD
ROOT
HETATM    1 CL   UNL     1     -10.631   5.673  72.385  1.00  0.00    -0.257 Cl 
HETATM    2  C   UNL     1     -10.277   7.059  71.432  1.00  0.00    -0.196 A  
HETATM    3  C   UNL     1     -10.321   8.321  72.009  1.00  0.00    -0.350 A  
HETATM    4  C   UNL     1     -10.023   9.444  71.234  1.00  0.00    -0.274 A  
HETATM    5  C   UNL     1      -9.666   9.321  69.884  1.00  0.00    -0.201 A  
HETATM    6  C   UNL     1      -9.951   6.917  70.083  1.00  0.00    -0.188 A  
HETATM    7  C   UNL     1      -9.658   8.047  69.307  1.00  0.00    -0.157 A  
ENDROOT
BRANCH   5   8
HETATM    8  N   UNL     1      -9.329  10.438  69.079  1.00  0.00    -0.185 N  
HETATM    9  H   UNL     1      -8.562  11.037  69.386  1.00  0.00     0.000 HD 
BRANCH   8  10
HETATM   10  C   UNL     1      -9.979  10.765  67.901  1.00  0.00    -0.174 C  
HETATM   11  O   UNL     1      -9.445  10.726  66.797  1.00  0.00    -0.169 OA 
BRANCH  10  12
HETATM   12  N   UNL     1     -11.299  11.140  68.093  1.00  0.00    -0.289 N  
HETATM   13  H   UNL     1     -12.024  10.612  67.608  1.00  0.00     0.000 HD 
BRANCH  12  14
HETATM   14  C   UNL     1     -11.699  12.217  68.924  1.00  0.00    -0.327 A  
HETATM   15  C   UNL     1     -12.369  12.022  70.141  1.00  0.00    -0.230 A  
HETATM   16  C   UNL     1     -12.721  13.102  70.957  1.00  0.00    -0.277 A  
HETATM   17 CL   UNL     1     -13.523  12.755  72.447  1.00  0.00    -0.620 Cl 
HETATM   18  C   UNL     1     -12.420  14.401  70.549  1.00  0.00    -0.350 A  
HETATM   19  C   UNL     1     -11.780  14.610  69.324  1.00  0.00    -0.348 A  
HETATM   20 CL   UNL     1     -12.815  15.784  71.504  1.00  0.00    -0.524 Cl 
HETATM   21  C   UNL     1     -11.430  13.524  68.509  1.00  0.00    -0.345 A  
ENDBRANCH  12  14
ENDBRANCH  10  12
ENDBRANCH   8  10
ENDBRANCH   5   8
TORSDOF 4
ENDMDL
MODEL      122
REMARK 921   NORMALIZED FREE ENERGY PREDICTED BY IDOCK:   -4.46 KCAL/MOL
REMARK 922        TOTAL FREE ENERGY PREDICTED BY IDOCK:   -6.12 KCAL/MOL
REMARK 923 INTER-LIGAND FREE ENERGY PREDICTED BY IDOCK:   -5.85 KCAL/MOL
REMARK 924 INTRA-LIGAND FREE ENERGY PREDICTED BY IDOCK:   -0.27 KCAL/MOL
REMARK 927      BINDING AFFINITY PREDICTED BY RF-SCORE:    0.00 PKD
ROOT
HETATM    1 CL   UNL     1      -7.202  18.309  68.887  1.00  0.00    -0.295 Cl 
HETATM    2  C   UNL     1      -8.117  16.992  68.269  1.00  0.00    -0.228 A  
HETATM    3  C   UNL     1      -9.502  17.082  68.212  1.00  0.00    -0.265 A  
HETATM    4  C   UNL     1     -10.241  16.014  67.700  1.00  0.00    -0.262 A  
HETATM    5  C   UNL     1      -9.611  14.854  67.227  1.00  0.00    -0.215 A  
HETATM    6  C   UNL     1      -7.472  15.836  67.830  1.00  0.00    -0.147 A  
HETATM    7  C   UNL     1      -8.218  14.763  67.322  1.00  0.00    -0.237 A  
ENDROOT
BRANCH   5   8
HETATM    8  N   UNL     1     -10.331  13.766  66.674  1.00  0.00    -0.275 N  
HETATM    9  H   UNL     1     -10.209  13.565  65.682  1.00  0.00     0.000 HD 
BRANCH   8  10
HETATM   10  C   UNL     1     -11.192  12.961  67.401  1.00  0.00    -0.291 C  
HETATM   11  O   UNL     1     -12.150  12.373  66.909  1.00  0.00    -0.564 OA 
BRANCH  10  12
HETATM   12  N   UNL     1     -10.861  12.883  68.744  1.00  0.00    -0.280 N  
HETATM   13  H   UNL     1     -10.188  13.555  69.113  1.00  0.00     0.000 HD 
BRANCH  12  14
HETATM   14  C   UNL     1     -11.403  11.923  69.635  1.00  0.00    -0.195 A  
HETATM   15  C   UNL     1     -11.029  10.572  69.606  1.00  0.00    -0.333 A  
HETATM   16  C   UNL     1     -11.556   9.653  70.521  1.00  0.00    -0.272 A  
HETATM   17 CL   UNL     1     -11.014   8.016  70.418  1.00  0.00    -0.249 Cl 
HETATM   18  C   UNL     1     -12.485  10.080  71.469  1.00  0.00    -0.419 A  
HETATM   19  C   UNL     1     -12.889  11.418  71.488  1.00  0.00    -0.508 A  
HETATM   20 CL   UNL     1     -13.174   9.008  72.635  1.00  0.00    -0.461 Cl 
HETATM   21  C   UNL     1     -12.359  12.334  70.568  1.00  0.00    -0.349 A  
ENDBRANCH  12  14
ENDBRANCH  10  12
ENDBRANCH   8  10
ENDBRANCH   5   8
TORSDOF 4
ENDMDL
MODEL      123
REMARK 921   NORMALIZED FREE ENERGY PREDICTED BY IDOCK:   -4.46 KCAL/MOL
REMARK 922        TOTAL FREE ENERGY PREDICTED BY IDOCK:   -6.11 KCAL/MOL
REMARK 923 INTER-LIGAND FREE ENERGY PREDICTED BY IDOCK:   -5.78 KCAL/MOL
REMARK 924 INTRA-LIGAND FREE ENERGY PREDICTED BY IDOCK:   -0.33 KCAL/MOL
REMARK 927      BINDING AFFINITY PREDICTED BY RF-SCORE:    0.00 PKD
ROOT
HETATM    1 CL   UNL     1      -7.492  19.653  68.946  1.00  0.00    -0.382 Cl 
HETATM    2  C   UNL     1      -8.450  18.512  68.088  1.00  0.00    -0.296 A  
HETATM    3  C   UNL     1      -9.832  18.537  68.217  1.00  0.00    -0.394 A  
HETATM    4  C   UNL     1     -10.608  17.616  67.510  1.00  0.00    -0.345 A  
HETATM    5  C   UNL     1     -10.018  16.672  66.658  1.00  0.00    -0.283 A  
HETATM    6  C   UNL     1      -7.841  17.563  67.267  1.00  0.00    -0.221 A  
HETATM    7  C   UNL     1      -8.623  16.636  66.563  1.00  0.00    -0.320 A  
ENDROOT
BRANCH   5   8
HETATM    8  N   UNL     1     -10.779  15.744  65.904  1.00  0.00    -0.325 N  
HETATM    9  H   UNL     1     -10.918  15.931  64.912  1.00  0.00     0.000 HD 
BRANCH   8  10
HETATM   10  C   UNL     1     -11.344  14.597  66.437  1.00  0.00    -0.348 C  
HETATM   11  O   UNL     1     -12.503  14.251  66.226  1.00  0.00    -0.445 OA 
BRANCH  10  12
HETATM   12  N   UNL     1     -10.468  13.875  67.231  1.00  0.00    -0.270 N  
HETATM   13  H   UNL     1      -9.772  14.391  67.770  1.00  0.00     0.000 HD 
BRANCH  12  14
HETATM   14  C   UNL     1     -10.484  12.462  67.339  1.00  0.00    -0.215 A  
HETATM   15  C   UNL     1     -10.844  11.799  68.520  1.00  0.00    -0.261 A  
HETATM   16  C   UNL     1     -10.883  10.402  68.586  1.00  0.00    -0.232 A  
HETATM   17 CL   UNL     1     -11.363   9.681  70.082  1.00  0.00    -0.281 Cl 
HETATM   18  C   UNL     1     -10.539   9.649  67.464  1.00  0.00    -0.277 A  
HETATM   19  C   UNL     1     -10.148  10.298  66.289  1.00  0.00    -0.300 A  
HETATM   20 CL   UNL     1     -10.570   7.922  67.466  1.00  0.00    -0.330 Cl 
HETATM   21  C   UNL     1     -10.110  11.699  66.229  1.00  0.00    -0.254 A  
ENDBRANCH  12  14
ENDBRANCH  10  12
ENDBRANCH   8  10
ENDBRANCH   5   8
TORSDOF 4
ENDMDL
MODEL      124
REMARK 921   NORMALIZED FREE ENERGY PREDICTED BY IDOCK:   -4.45 KCAL/MOL
REMARK 922        TOTAL FREE ENERGY PREDICTED BY IDOCK:   -6.10 KCAL/MOL
REMARK 923 INTER-LIGAND FREE ENERGY PREDICTED BY IDOCK:   -5.77 KCAL/MOL
REMARK 924 INTRA-LIGAND FREE ENERGY PREDICTED BY IDOCK:   -0.34 KCAL/MOL
REMARK 927      BINDING AFFINITY PREDICTED BY RF-SCORE:    0.00 PKD
ROOT
HETATM    1 CL   UNL     1     -12.265  13.102  63.163  1.00  0.00    -0.489 Cl 
HETATM    2  C   UNL     1     -11.675  12.384  64.610  1.00  0.00    -0.365 A  
HETATM    3  C   UNL     1     -10.722  11.377  64.540  1.00  0.00    -0.391 A  
HETATM    4  C   UNL     1     -10.237  10.804  65.718  1.00  0.00    -0.319 A  
HETATM    5  C   UNL     1     -10.685  11.236  66.974  1.00  0.00    -0.260 A  
HETATM    6  C   UNL     1     -12.155  12.810  65.848  1.00  0.00    -0.485 A  
HETATM    7  C   UNL     1     -11.670  12.228  67.028  1.00  0.00    -0.399 A  
ENDROOT
BRANCH   5   8
HETATM    8  N   UNL     1     -10.190  10.696  68.187  1.00  0.00    -0.162 N  
HETATM    9  H   UNL     1     -10.112  11.317  68.992  1.00  0.00     0.000 HD 
BRANCH   8  10
HETATM   10  C   UNL     1      -9.807   9.374  68.344  1.00  0.00    -0.160 C  
HETATM   11  O   UNL     1      -8.670   8.967  68.126  1.00  0.00    -0.133 OA 
BRANCH  10  12
HETATM   12  N   UNL     1     -10.838   8.555  68.774  1.00  0.00    -0.432 N  
HETATM   13  H   UNL     1     -11.774   8.728  68.407  1.00  0.00     0.000 HD 
BRANCH  12  14
HETATM   14  C   UNL     1     -10.667   7.491  69.694  1.00  0.00    -0.230 A  
HETATM   15  C   UNL     1     -10.692   7.683  71.083  1.00  0.00    -0.242 A  
HETATM   16  C   UNL     1     -10.555   6.607  71.967  1.00  0.00    -0.211 A  
HETATM   17 CL   UNL     1     -10.623   6.945  73.661  1.00  0.00    -0.384 Cl 
HETATM   18  C   UNL     1     -10.370   5.320  71.464  1.00  0.00    -0.221 A  
HETATM   19  C   UNL     1     -10.312   5.120  70.081  1.00  0.00    -0.340 A  
HETATM   20 CL   UNL     1     -10.200   3.942  72.491  1.00  0.00    -0.234 Cl 
HETATM   21  C   UNL     1     -10.449   6.202  69.200  1.00  0.00    -0.310 A  
ENDBRANCH  12  14
ENDBRANCH  10  12
ENDBRANCH   8  10
ENDBRANCH   5   8
TORSDOF 4
ENDMDL
MODEL      125
REMARK 921   NORMALIZED FREE ENERGY PREDICTED BY IDOCK:   -4.43 KCAL/MOL
REMARK 922        TOTAL FREE ENERGY PREDICTED BY IDOCK:   -6.08 KCAL/MOL
REMARK 923 INTER-LIGAND FREE ENERGY PREDICTED BY IDOCK:   -5.55 KCAL/MOL
REMARK 924 INTRA-LIGAND FREE ENERGY PREDICTED BY IDOCK:   -0.53 KCAL/MOL
REMARK 927      BINDING AFFINITY PREDICTED BY RF-SCORE:    0.00 PKD
ROOT
HETATM    1 CL   UNL     1      -8.263   8.223  69.121  1.00  0.00    -0.120 Cl 
HETATM    2  C   UNL     1      -9.148   9.165  67.987  1.00  0.00    -0.131 A  
HETATM    3  C   UNL     1     -10.399   9.660  68.330  1.00  0.00    -0.240 A  
HETATM    4  C   UNL     1     -11.110  10.432  67.410  1.00  0.00    -0.297 A  
HETATM    5  C   UNL     1     -10.579  10.732  66.147  1.00  0.00    -0.175 A  
HETATM    6  C   UNL     1      -8.612   9.427  66.726  1.00  0.00    -0.134 A  
HETATM    7  C   UNL     1      -9.332  10.199  65.803  1.00  0.00    -0.239 A  
ENDROOT
BRANCH   5   8
HETATM    8  N   UNL     1     -11.262  11.538  65.203  1.00  0.00    -0.201 N  
HETATM    9  H   UNL     1     -11.459  11.141  64.285  1.00  0.00     0.000 HD 
BRANCH   8  10
HETATM   10  C   UNL     1     -11.679  12.835  65.455  1.00  0.00    -0.395 C  
HETATM   11  O   UNL     1     -12.799  13.254  65.181  1.00  0.00    -0.670 OA 
BRANCH  10  12
HETATM   12  N   UNL     1     -10.701  13.616  66.051  1.00  0.00    -0.278 N  
HETATM   13  H   UNL     1      -9.794  13.684  65.590  1.00  0.00     0.000 HD 
BRANCH  12  14
HETATM   14  C   UNL     1     -10.889  14.324  67.264  1.00  0.00    -0.284 A  
HETATM   15  C   UNL     1     -10.540  15.674  67.411  1.00  0.00    -0.301 A  
HETATM   16  C   UNL     1     -10.769  16.357  68.610  1.00  0.00    -0.317 A  
HETATM   17 CL   UNL     1     -10.324  18.025  68.683  1.00  0.00    -0.363 Cl 
HETATM   18  C   UNL     1     -11.338  15.682  69.690  1.00  0.00    -0.329 A  
HETATM   19  C   UNL     1     -11.662  14.328  69.565  1.00  0.00    -0.366 A  
HETATM   20 CL   UNL     1     -11.658  16.458  71.199  1.00  0.00    -0.368 Cl 
HETATM   21  C   UNL     1     -11.429  13.648  68.361  1.00  0.00    -0.346 A  
ENDBRANCH  12  14
ENDBRANCH  10  12
ENDBRANCH   8  10
ENDBRANCH   5   8
TORSDOF 4
ENDMDL
MODEL      126
REMARK 921   NORMALIZED FREE ENERGY PREDICTED BY IDOCK:   -4.43 KCAL/MOL
REMARK 922        TOTAL FREE ENERGY PREDICTED BY IDOCK:   -6.08 KCAL/MOL
REMARK 923 INTER-LIGAND FREE ENERGY PREDICTED BY IDOCK:   -5.80 KCAL/MOL
REMARK 924 INTRA-LIGAND FREE ENERGY PREDICTED BY IDOCK:   -0.28 KCAL/MOL
REMARK 927      BINDING AFFINITY PREDICTED BY RF-SCORE:    0.00 PKD
ROOT
HETATM    1 CL   UNL     1     -11.164  16.395  64.517  1.00  0.00    -0.332 Cl 
HETATM    2  C   UNL     1     -10.866  15.243  65.758  1.00  0.00    -0.358 A  
HETATM    3  C   UNL     1     -10.907  15.637  67.088  1.00  0.00    -0.297 A  
HETATM    4  C   UNL     1     -10.674  14.696  68.093  1.00  0.00    -0.242 A  
HETATM    5  C   UNL     1     -10.414  13.353  67.785  1.00  0.00    -0.243 A  
HETATM    6  C   UNL     1     -10.582  13.918  65.428  1.00  0.00    -0.344 A  
HETATM    7  C   UNL     1     -10.344  12.977  66.440  1.00  0.00    -0.287 A  
ENDROOT
BRANCH   5   8
HETATM    8  N   UNL     1     -10.205  12.368  68.783  1.00  0.00    -0.393 N  
HETATM    9  H   UNL     1      -9.324  12.384  69.295  1.00  0.00     0.000 HD 
BRANCH   8  10
HETATM   10  C   UNL     1     -11.128  11.386  69.103  1.00  0.00    -0.258 C  
HETATM   11  O   UNL     1     -12.172  11.208  68.483  1.00  0.00    -0.600 OA 
BRANCH  10  12
HETATM   12  N   UNL     1     -10.752  10.621  70.195  1.00  0.00    -0.463 N  
HETATM   13  H   UNL     1     -10.565  11.100  71.076  1.00  0.00     0.000 HD 
BRANCH  12  14
HETATM   14  C   UNL     1     -10.613   9.211  70.158  1.00  0.00    -0.228 A  
HETATM   15  C   UNL     1     -11.225   8.367  71.097  1.00  0.00    -0.307 A  
HETATM   16  C   UNL     1     -11.098   6.977  71.015  1.00  0.00    -0.264 A  
HETATM   17 CL   UNL     1     -11.910   6.024  72.206  1.00  0.00    -0.355 Cl 
HETATM   18  C   UNL     1     -10.333   6.413  69.994  1.00  0.00    -0.198 A  
HETATM   19  C   UNL     1      -9.692   7.245  69.071  1.00  0.00    -0.152 A  
HETATM   20 CL   UNL     1     -10.134   4.706  69.823  1.00  0.00    -0.298 Cl 
HETATM   21  C   UNL     1      -9.822   8.638  69.158  1.00  0.00    -0.185 A  
ENDBRANCH  12  14
ENDBRANCH  10  12
ENDBRANCH   8  10
ENDBRANCH   5   8
TORSDOF 4
ENDMDL
MODEL      127
REMARK 921   NORMALIZED FREE ENERGY PREDICTED BY IDOCK:   -4.42 KCAL/MOL
REMARK 922        TOTAL FREE ENERGY PREDICTED BY IDOCK:   -6.07 KCAL/MOL
REMARK 923 INTER-LIGAND FREE ENERGY PREDICTED BY IDOCK:   -5.57 KCAL/MOL
REMARK 924 INTRA-LIGAND FREE ENERGY PREDICTED BY IDOCK:   -0.50 KCAL/MOL
REMARK 927      BINDING AFFINITY PREDICTED BY RF-SCORE:    0.00 PKD
ROOT
HETATM    1 CL   UNL     1     -11.904  14.949  67.955  1.00  0.00    -0.339 Cl 
HETATM    2  C   UNL     1     -11.663  13.828  66.674  1.00  0.00    -0.394 A  
HETATM    3  C   UNL     1     -12.610  13.721  65.664  1.00  0.00    -0.551 A  
HETATM    4  C   UNL     1     -12.406  12.817  64.620  1.00  0.00    -0.524 A  
HETATM    5  C   UNL     1     -11.253  12.022  64.563  1.00  0.00    -0.332 A  
HETATM    6  C   UNL     1     -10.522  13.026  66.651  1.00  0.00    -0.271 A  
HETATM    7  C   UNL     1     -10.323  12.115  65.603  1.00  0.00    -0.289 A  
ENDROOT
BRANCH   5   8
HETATM    8  N   UNL     1     -11.002  11.117  63.501  1.00  0.00    -0.668 N  
HETATM    9  H   UNL     1     -11.803  10.722  63.008  1.00  0.00     0.000 HD 
BRANCH   8  10
HETATM   10  C   UNL     1      -9.734  10.738  63.094  1.00  0.00    -0.357 C  
HETATM   11  O   UNL     1      -9.012  11.434  62.385  1.00  0.00    -0.307 OA 
BRANCH  10  12
HETATM   12  N   UNL     1      -9.359   9.492  63.569  1.00  0.00    -0.462 N  
HETATM   13  H   UNL     1      -9.499   8.684  62.962  1.00  0.00     0.000 HD 
BRANCH  12  14
HETATM   14  C   UNL     1      -8.792   9.274  64.849  1.00  0.00    -0.193 A  
HETATM   15  C   UNL     1      -9.501   8.668  65.896  1.00  0.00    -0.243 A  
HETATM   16  C   UNL     1      -8.903   8.436  67.139  1.00  0.00    -0.130 A  
HETATM   17 CL   UNL     1      -9.855   7.662  68.356  1.00  0.00    -0.168 Cl 
HETATM   18  C   UNL     1      -7.583   8.830  67.354  1.00  0.00    -0.090 A  
HETATM   19  C   UNL     1      -6.875   9.463  66.328  1.00  0.00    -0.086 A  
HETATM   20 CL   UNL     1      -6.775   8.570  68.858  1.00  0.00    -0.053 Cl 
HETATM   21  C   UNL     1      -7.480   9.695  65.084  1.00  0.00    -0.115 A  
ENDBRANCH  12  14
ENDBRANCH  10  12
ENDBRANCH   8  10
ENDBRANCH   5   8
TORSDOF 4
ENDMDL
MODEL      128
REMARK 921   NORMALIZED FREE ENERGY PREDICTED BY IDOCK:   -4.41 KCAL/MOL
REMARK 922        TOTAL FREE ENERGY PREDICTED BY IDOCK:   -6.06 KCAL/MOL
REMARK 923 INTER-LIGAND FREE ENERGY PREDICTED BY IDOCK:   -5.38 KCAL/MOL
REMARK 924 INTRA-LIGAND FREE ENERGY PREDICTED BY IDOCK:   -0.68 KCAL/MOL
REMARK 927      BINDING AFFINITY PREDICTED BY RF-SCORE:    0.00 PKD
ROOT
HETATM    1 CL   UNL     1     -12.773  12.261  63.448  1.00  0.00    -0.554 Cl 
HETATM    2  C   UNL     1     -11.834  12.336  64.887  1.00  0.00    -0.358 A  
HETATM    3  C   UNL     1     -10.864  11.372  65.128  1.00  0.00    -0.302 A  
HETATM    4  C   UNL     1     -10.097  11.443  66.293  1.00  0.00    -0.263 A  
HETATM    5  C   UNL     1     -10.277  12.479  67.220  1.00  0.00    -0.216 A  
HETATM    6  C   UNL     1     -12.048  13.360  65.809  1.00  0.00    -0.481 A  
HETATM    7  C   UNL     1     -11.280  13.424  66.980  1.00  0.00    -0.328 A  
ENDROOT
BRANCH   5   8
HETATM    8  N   UNL     1      -9.494  12.596  68.395  1.00  0.00    -0.325 N  
HETATM    9  H   UNL     1      -9.903  13.071  69.199  1.00  0.00     0.000 HD 
BRANCH   8  10
HETATM   10  C   UNL     1      -8.205  12.103  68.516  1.00  0.00    -0.104 C  
HETATM   11  O   UNL     1      -7.261  12.496  67.836  1.00  0.00    -0.091 OA 
BRANCH  10  12
HETATM   12  N   UNL     1      -8.086  11.119  69.484  1.00  0.00    -0.353 N  
HETATM   13  H   UNL     1      -7.399  11.254  70.225  1.00  0.00     0.000 HD 
BRANCH  12  14
HETATM   14  C   UNL     1      -8.865   9.935  69.504  1.00  0.00    -0.197 A  
HETATM   15  C   UNL     1      -9.888   9.720  70.439  1.00  0.00    -0.269 A  
HETATM   16  C   UNL     1     -10.663   8.556  70.413  1.00  0.00    -0.228 A  
HETATM   17 CL   UNL     1     -11.914   8.397  71.594  1.00  0.00    -0.333 Cl 
HETATM   18  C   UNL     1     -10.406   7.578  69.453  1.00  0.00    -0.213 A  
HETATM   19  C   UNL     1      -9.369   7.767  68.534  1.00  0.00    -0.147 A  
HETATM   20 CL   UNL     1     -11.324   6.118  69.352  1.00  0.00    -0.482 Cl 
HETATM   21  C   UNL     1      -8.594   8.935  68.566  1.00  0.00    -0.133 A  
ENDBRANCH  12  14
ENDBRANCH  10  12
ENDBRANCH   8  10
ENDBRANCH   5   8
TORSDOF 4
ENDMDL
MODEL      129
REMARK 921   NORMALIZED FREE ENERGY PREDICTED BY IDOCK:   -4.41 KCAL/MOL
REMARK 922        TOTAL FREE ENERGY PREDICTED BY IDOCK:   -6.06 KCAL/MOL
REMARK 923 INTER-LIGAND FREE ENERGY PREDICTED BY IDOCK:   -5.68 KCAL/MOL
REMARK 924 INTRA-LIGAND FREE ENERGY PREDICTED BY IDOCK:   -0.38 KCAL/MOL
REMARK 927      BINDING AFFINITY PREDICTED BY RF-SCORE:    0.00 PKD
ROOT
HETATM    1 CL   UNL     1     -10.296  19.598  65.946  1.00  0.00    -0.586 Cl 
HETATM    2  C   UNL     1     -10.469  18.010  66.581  1.00  0.00    -0.325 A  
HETATM    3  C   UNL     1     -10.307  16.913  65.745  1.00  0.00    -0.298 A  
HETATM    4  C   UNL     1     -10.438  15.624  66.266  1.00  0.00    -0.313 A  
HETATM    5  C   UNL     1     -10.716  15.414  67.624  1.00  0.00    -0.292 A  
HETATM    6  C   UNL     1     -10.774  17.824  67.929  1.00  0.00    -0.327 A  
HETATM    7  C   UNL     1     -10.910  16.528  68.447  1.00  0.00    -0.348 A  
ENDROOT
BRANCH   5   8
HETATM    8  N   UNL     1     -10.825  14.119  68.189  1.00  0.00    -0.243 N  
HETATM    9  H   UNL     1     -11.734  13.825  68.544  1.00  0.00     0.000 HD 
BRANCH   8  10
HETATM   10  C   UNL     1      -9.768  13.229  68.287  1.00  0.00    -0.225 C  
HETATM   11  O   UNL     1      -8.621  13.565  68.570  1.00  0.00    -0.160 OA 
BRANCH  10  12
HETATM   12  N   UNL     1     -10.135  11.917  68.035  1.00  0.00    -0.189 N  
HETATM   13  H   UNL     1     -10.193  11.613  67.064  1.00  0.00     0.000 HD 
BRANCH  12  14
HETATM   14  C   UNL     1     -10.433  10.974  69.050  1.00  0.00    -0.216 A  
HETATM   15  C   UNL     1      -9.477  10.082  69.557  1.00  0.00    -0.245 A  
HETATM   16  C   UNL     1      -9.792   9.185  70.583  1.00  0.00    -0.249 A  
HETATM   17 CL   UNL     1      -8.537   8.144  71.154  1.00  0.00    -0.139 Cl 
HETATM   18  C   UNL     1     -11.086   9.159  71.103  1.00  0.00    -0.323 A  
HETATM   19  C   UNL     1     -12.057  10.021  70.584  1.00  0.00    -0.381 A  
HETATM   20 CL   UNL     1     -11.549   8.086  72.374  1.00  0.00    -0.422 Cl 
HETATM   21  C   UNL     1     -11.735  10.918  69.555  1.00  0.00    -0.400 A  
ENDBRANCH  12  14
ENDBRANCH  10  12
ENDBRANCH   8  10
ENDBRANCH   5   8
TORSDOF 4
ENDMDL
MODEL      130
REMARK 921   NORMALIZED FREE ENERGY PREDICTED BY IDOCK:   -4.41 KCAL/MOL
REMARK 922        TOTAL FREE ENERGY PREDICTED BY IDOCK:   -6.05 KCAL/MOL
REMARK 923 INTER-LIGAND FREE ENERGY PREDICTED BY IDOCK:   -5.73 KCAL/MOL
REMARK 924 INTRA-LIGAND FREE ENERGY PREDICTED BY IDOCK:   -0.31 KCAL/MOL
REMARK 927      BINDING AFFINITY PREDICTED BY RF-SCORE:    0.00 PKD
ROOT
HETATM    1 CL   UNL     1     -10.414  17.285  69.145  1.00  0.00    -0.318 Cl 
HETATM    2  C   UNL     1     -10.875  15.628  69.168  1.00  0.00    -0.246 A  
HETATM    3  C   UNL     1     -11.587  15.126  70.249  1.00  0.00    -0.325 A  
HETATM    4  C   UNL     1     -11.968  13.783  70.259  1.00  0.00    -0.397 A  
HETATM    5  C   UNL     1     -11.658  12.931  69.189  1.00  0.00    -0.322 A  
HETATM    6  C   UNL     1     -10.532  14.792  68.106  1.00  0.00    -0.239 A  
HETATM    7  C   UNL     1     -10.912  13.442  68.122  1.00  0.00    -0.277 A  
ENDROOT
BRANCH   5   8
HETATM    8  N   UNL     1     -12.057  11.572  69.156  1.00  0.00    -0.309 N  
HETATM    9  H   UNL     1     -12.976  11.351  68.774  1.00  0.00     0.000 HD 
BRANCH   8  10
HETATM   10  C   UNL     1     -11.272  10.526  69.612  1.00  0.00    -0.282 C  
HETATM   11  O   UNL     1     -10.049  10.583  69.701  1.00  0.00    -0.214 OA 
BRANCH  10  12
HETATM   12  N   UNL     1     -12.008   9.405  69.961  1.00  0.00    -0.444 N  
HETATM   13  H   UNL     1     -12.946   9.306  69.574  1.00  0.00     0.000 HD 
BRANCH  12  14
HETATM   14  C   UNL     1     -11.531   8.387  70.826  1.00  0.00    -0.255 A  
HETATM   15  C   UNL     1     -11.079   7.147  70.354  1.00  0.00    -0.309 A  
HETATM   16  C   UNL     1     -10.582   6.175  71.229  1.00  0.00    -0.243 A  
HETATM   17 CL   UNL     1     -10.028   4.687  70.546  1.00  0.00    -0.299 Cl 
HETATM   18  C   UNL     1     -10.552   6.431  72.599  1.00  0.00    -0.224 A  
HETATM   19  C   UNL     1     -11.029   7.652  73.084  1.00  0.00    -0.411 A  
HETATM   20 CL   UNL     1      -9.947   5.285  73.740  1.00  0.00    -0.178 Cl 
HETATM   21  C   UNL     1     -11.527   8.623  72.203  1.00  0.00    -0.443 A  
ENDBRANCH  12  14
ENDBRANCH  10  12
ENDBRANCH   8  10
ENDBRANCH   5   8
TORSDOF 4
ENDMDL
MODEL      131
REMARK 921   NORMALIZED FREE ENERGY PREDICTED BY IDOCK:   -4.41 KCAL/MOL
REMARK 922        TOTAL FREE ENERGY PREDICTED BY IDOCK:   -6.05 KCAL/MOL
REMARK 923 INTER-LIGAND FREE ENERGY PREDICTED BY IDOCK:   -5.52 KCAL/MOL
REMARK 924 INTRA-LIGAND FREE ENERGY PREDICTED BY IDOCK:   -0.53 KCAL/MOL
REMARK 927      BINDING AFFINITY PREDICTED BY RF-SCORE:    0.00 PKD
ROOT
HETATM    1 CL   UNL     1      -9.131  20.993  67.402  1.00  0.00    -0.262 Cl 
HETATM    2  C   UNL     1      -9.086  19.343  67.881  1.00  0.00    -0.321 A  
HETATM    3  C   UNL     1     -10.259  18.602  67.913  1.00  0.00    -0.433 A  
HETATM    4  C   UNL     1     -10.217  17.259  68.293  1.00  0.00    -0.348 A  
HETATM    5  C   UNL     1      -9.006  16.637  68.629  1.00  0.00    -0.246 A  
HETATM    6  C   UNL     1      -7.874  18.751  68.239  1.00  0.00    -0.333 A  
HETATM    7  C   UNL     1      -7.836  17.404  68.624  1.00  0.00    -0.274 A  
ENDROOT
BRANCH   5   8
HETATM    8  N   UNL     1      -8.926  15.268  68.988  1.00  0.00    -0.211 N  
HETATM    9  H   UNL     1      -9.345  14.979  69.871  1.00  0.00     0.000 HD 
BRANCH   8  10
HETATM   10  C   UNL     1      -8.311  14.302  68.210  1.00  0.00    -0.165 C  
HETATM   11  O   UNL     1      -7.715  13.334  68.675  1.00  0.00    -0.129 OA 
BRANCH  10  12
HETATM   12  N   UNL     1      -8.436  14.535  66.850  1.00  0.00    -0.364 N  
HETATM   13  H   UNL     1      -7.786  15.187  66.413  1.00  0.00     0.000 HD 
BRANCH  12  14
HETATM   14  C   UNL     1      -9.417  13.921  66.032  1.00  0.00    -0.118 A  
HETATM   15  C   UNL     1      -9.485  12.532  65.849  1.00  0.00    -0.111 A  
HETATM   16  C   UNL     1     -10.485  11.951  65.063  1.00  0.00    -0.289 A  
HETATM   17 CL   UNL     1     -10.496  10.229  64.919  1.00  0.00    -0.164 Cl 
HETATM   18  C   UNL     1     -11.426  12.765  64.431  1.00  0.00    -0.354 A  
HETATM   19  C   UNL     1     -11.350  14.153  64.582  1.00  0.00    -0.374 A  
HETATM   20 CL   UNL     1     -12.694  12.122  63.452  1.00  0.00    -0.612 Cl 
HETATM   21  C   UNL     1     -10.344  14.730  65.370  1.00  0.00    -0.410 A  
ENDBRANCH  12  14
ENDBRANCH  10  12
ENDBRANCH   8  10
ENDBRANCH   5   8
TORSDOF 4
ENDMDL
MODEL      132
REMARK 921   NORMALIZED FREE ENERGY PREDICTED BY IDOCK:   -4.40 KCAL/MOL
REMARK 922        TOTAL FREE ENERGY PREDICTED BY IDOCK:   -6.05 KCAL/MOL
REMARK 923 INTER-LIGAND FREE ENERGY PREDICTED BY IDOCK:   -5.61 KCAL/MOL
REMARK 924 INTRA-LIGAND FREE ENERGY PREDICTED BY IDOCK:   -0.44 KCAL/MOL
REMARK 927      BINDING AFFINITY PREDICTED BY RF-SCORE:    0.00 PKD
ROOT
HETATM    1 CL   UNL     1     -10.045   6.593  67.910  1.00  0.00    -0.161 Cl 
HETATM    2  C   UNL     1     -10.236   8.264  68.267  1.00  0.00    -0.208 A  
HETATM    3  C   UNL     1      -9.773   8.767  69.476  1.00  0.00    -0.172 A  
HETATM    4  C   UNL     1      -9.920  10.126  69.758  1.00  0.00    -0.258 A  
HETATM    5  C   UNL     1     -10.515  10.999  68.836  1.00  0.00    -0.204 A  
HETATM    6  C   UNL     1     -10.855   9.110  67.348  1.00  0.00    -0.140 A  
HETATM    7  C   UNL     1     -11.006  10.473  67.637  1.00  0.00    -0.375 A  
ENDROOT
BRANCH   5   8
HETATM    8  N   UNL     1     -10.651  12.389  69.080  1.00  0.00    -0.427 N  
HETATM    9  H   UNL     1      -9.843  12.988  68.909  1.00  0.00     0.000 HD 
BRANCH   8  10
HETATM   10  C   UNL     1     -11.816  12.981  69.537  1.00  0.00    -0.323 C  
HETATM   11  O   UNL     1     -12.324  12.730  70.626  1.00  0.00    -0.360 OA 
BRANCH  10  12
HETATM   12  N   UNL     1     -12.353  13.891  68.640  1.00  0.00    -0.454 N  
HETATM   13  H   UNL     1     -13.341  13.805  68.403  1.00  0.00     0.000 HD 
BRANCH  12  14
HETATM   14  C   UNL     1     -11.608  14.934  68.035  1.00  0.00    -0.341 A  
HETATM   15  C   UNL     1     -11.234  16.094  68.727  1.00  0.00    -0.365 A  
HETATM   16  C   UNL     1     -10.469  17.091  68.113  1.00  0.00    -0.357 A  
HETATM   17 CL   UNL     1     -10.039  18.472  69.059  1.00  0.00    -0.370 Cl 
HETATM   18  C   UNL     1     -10.085  16.943  66.781  1.00  0.00    -0.294 A  
HETATM   19  C   UNL     1     -10.478  15.805  66.070  1.00  0.00    -0.350 A  
HETATM   20 CL   UNL     1      -9.135  18.126  65.956  1.00  0.00    -0.106 Cl 
HETATM   21  C   UNL     1     -11.246  14.809  66.691  1.00  0.00    -0.346 A  
ENDBRANCH  12  14
ENDBRANCH  10  12
ENDBRANCH   8  10
ENDBRANCH   5   8
TORSDOF 4
ENDMDL
MODEL      133
REMARK 921   NORMALIZED FREE ENERGY PREDICTED BY IDOCK:   -4.39 KCAL/MOL
REMARK 922        TOTAL FREE ENERGY PREDICTED BY IDOCK:   -6.03 KCAL/MOL
REMARK 923 INTER-LIGAND FREE ENERGY PREDICTED BY IDOCK:   -5.34 KCAL/MOL
REMARK 924 INTRA-LIGAND FREE ENERGY PREDICTED BY IDOCK:   -0.69 KCAL/MOL
REMARK 927      BINDING AFFINITY PREDICTED BY RF-SCORE:    0.00 PKD
ROOT
HETATM    1 CL   UNL     1      -9.803  18.554  68.325  1.00  0.00    -0.367 Cl 
HETATM    2  C   UNL     1      -9.831  17.112  67.388  1.00  0.00    -0.264 A  
HETATM    3  C   UNL     1     -11.030  16.665  66.848  1.00  0.00     0.050 A  
HETATM    4  C   UNL     1     -11.046  15.500  66.079  1.00  0.00    -0.185 A  
HETATM    5  C   UNL     1      -9.871  14.778  65.827  1.00  0.00    -0.342 A  
HETATM    6  C   UNL     1      -8.655  16.395  67.172  1.00  0.00    -0.204 A  
HETATM    7  C   UNL     1      -8.677  15.222  66.404  1.00  0.00    -0.265 A  
ENDROOT
BRANCH   5   8
HETATM    8  N   UNL     1      -9.850  13.610  65.025  1.00  0.00    -0.600 N  
HETATM    9  H   UNL     1      -9.435  13.673  64.096  1.00  0.00     0.000 HD 
BRANCH   8  10
HETATM   10  C   UNL     1     -10.362  12.388  65.429  1.00  0.00    -0.277 C  
HETATM   11  O   UNL     1     -11.362  11.874  64.937  1.00  0.00    -0.316 OA 
BRANCH  10  12
HETATM   12  N   UNL     1      -9.628  11.799  66.446  1.00  0.00    -0.212 N  
HETATM   13  H   UNL     1      -8.629  11.659  66.299  1.00  0.00     0.000 HD 
BRANCH  12  14
HETATM   14  C   UNL     1     -10.187  11.381  67.680  1.00  0.00    -0.180 A  
HETATM   15  C   UNL     1     -10.922  12.243  68.506  1.00  0.00    -0.275 A  
HETATM   16  C   UNL     1     -11.490  11.793  69.702  1.00  0.00    -0.270 A  
HETATM   17 CL   UNL     1     -12.398  12.927  70.638  1.00  0.00    -0.425 Cl 
HETATM   18  C   UNL     1     -11.309  10.468  70.096  1.00  0.00    -0.323 A  
HETATM   19  C   UNL     1     -10.552   9.606  69.296  1.00  0.00    -0.236 A  
HETATM   20 CL   UNL     1     -11.985   9.836  71.554  1.00  0.00    -0.472 Cl 
HETATM   21  C   UNL     1      -9.983  10.063  68.099  1.00  0.00    -0.176 A  
ENDBRANCH  12  14
ENDBRANCH  10  12
ENDBRANCH   8  10
ENDBRANCH   5   8
TORSDOF 4
ENDMDL
MODEL      134
REMARK 921   NORMALIZED FREE ENERGY PREDICTED BY IDOCK:   -4.39 KCAL/MOL
REMARK 922        TOTAL FREE ENERGY PREDICTED BY IDOCK:   -6.03 KCAL/MOL
REMARK 923 INTER-LIGAND FREE ENERGY PREDICTED BY IDOCK:   -5.57 KCAL/MOL
REMARK 924 INTRA-LIGAND FREE ENERGY PREDICTED BY IDOCK:   -0.46 KCAL/MOL
REMARK 927      BINDING AFFINITY PREDICTED BY RF-SCORE:    0.00 PKD
ROOT
HETATM    1 CL   UNL     1      -5.685  11.434  68.037  1.00  0.00    -0.042 Cl 
HETATM    2  C   UNL     1      -6.694  12.801  67.772  1.00  0.00    -0.134 A  
HETATM    3  C   UNL     1      -6.198  14.078  68.001  1.00  0.00    -0.145 A  
HETATM    4  C   UNL     1      -7.017  15.185  67.775  1.00  0.00    -0.190 A  
HETATM    5  C   UNL     1      -8.329  15.035  67.306  1.00  0.00    -0.205 A  
HETATM    6  C   UNL     1      -8.005  12.628  67.332  1.00  0.00    -0.177 A  
HETATM    7  C   UNL     1      -8.826  13.743  67.111  1.00  0.00    -0.240 A  
ENDROOT
BRANCH   5   8
HETATM    8  N   UNL     1      -9.175  16.141  67.037  1.00  0.00    -0.205 N  
HETATM    9  H   UNL     1      -9.093  16.598  66.129  1.00  0.00     0.000 HD 
BRANCH   8  10
HETATM   10  C   UNL     1     -10.106  16.636  67.935  1.00  0.00    -0.270 C  
HETATM   11  O   UNL     1     -11.024  17.387  67.617  1.00  0.00    -0.294 OA 
BRANCH  10  12
HETATM   12  N   UNL     1      -9.898  16.198  69.233  1.00  0.00    -0.246 N  
HETATM   13  H   UNL     1      -8.996  16.394  69.668  1.00  0.00     0.000 HD 
BRANCH  12  14
HETATM   14  C   UNL     1     -10.866  15.493  69.991  1.00  0.00    -0.318 A  
HETATM   15  C   UNL     1     -11.439  16.018  71.158  1.00  0.00    -0.470 A  
HETATM   16  C   UNL     1     -12.417  15.313  71.867  1.00  0.00    -0.353 A  
HETATM   17 CL   UNL     1     -13.078  16.056  73.280  1.00  0.00    -0.645 Cl 
HETATM   18  C   UNL     1     -12.821  14.055  71.420  1.00  0.00    -0.359 A  
HETATM   19  C   UNL     1     -12.235  13.508  70.275  1.00  0.00    -0.417 A  
HETATM   20 CL   UNL     1     -14.028  13.128  72.236  1.00  0.00    -0.571 Cl 
HETATM   21  C   UNL     1     -11.253  14.218  69.569  1.00  0.00    -0.286 A  
ENDBRANCH  12  14
ENDBRANCH  10  12
ENDBRANCH   8  10
ENDBRANCH   5   8
TORSDOF 4
ENDMDL
MODEL      135
REMARK 921   NORMALIZED FREE ENERGY PREDICTED BY IDOCK:   -4.39 KCAL/MOL
REMARK 922        TOTAL FREE ENERGY PREDICTED BY IDOCK:   -6.03 KCAL/MOL
REMARK 923 INTER-LIGAND FREE ENERGY PREDICTED BY IDOCK:   -5.61 KCAL/MOL
REMARK 924 INTRA-LIGAND FREE ENERGY PREDICTED BY IDOCK:   -0.41 KCAL/MOL
REMARK 927      BINDING AFFINITY PREDICTED BY RF-SCORE:    0.00 PKD
ROOT
HETATM    1 CL   UNL     1      -6.005  19.848  70.392  1.00  0.00    -0.345 Cl 
HETATM    2  C   UNL     1      -6.732  18.919  69.141  1.00  0.00    -0.297 A  
HETATM    3  C   UNL     1      -7.859  19.403  68.490  1.00  0.00    -0.389 A  
HETATM    4  C   UNL     1      -8.441  18.651  67.468  1.00  0.00    -0.280 A  
HETATM    5  C   UNL     1      -7.900  17.419  67.074  1.00  0.00    -0.210 A  
HETATM    6  C   UNL     1      -6.194  17.683  68.784  1.00  0.00    -0.197 A  
HETATM    7  C   UNL     1      -6.784  16.928  67.760  1.00  0.00    -0.161 A  
ENDROOT
BRANCH   5   8
HETATM    8  N   UNL     1      -8.448  16.647  66.020  1.00  0.00    -0.256 N  
HETATM    9  H   UNL     1      -7.807  16.128  65.421  1.00  0.00     0.000 HD 
BRANCH   8  10
HETATM   10  C   UNL     1      -9.805  16.556  65.755  1.00  0.00    -0.243 C  
HETATM   11  O   UNL     1     -10.425  17.387  65.098  1.00  0.00    -0.619 OA 
BRANCH  10  12
HETATM   12  N   UNL     1     -10.394  15.430  66.306  1.00  0.00    -0.281 N  
HETATM   13  H   UNL     1     -11.052  15.559  67.074  1.00  0.00     0.000 HD 
BRANCH  12  14
HETATM   14  C   UNL     1     -10.134  14.108  65.864  1.00  0.00    -0.321 A  
HETATM   15  C   UNL     1      -9.463  13.166  66.657  1.00  0.00    -0.260 A  
HETATM   16  C   UNL     1      -9.250  11.859  66.206  1.00  0.00    -0.214 A  
HETATM   17 CL   UNL     1      -8.434  10.766  67.267  1.00  0.00    -0.124 Cl 
HETATM   18  C   UNL     1      -9.696  11.485  64.939  1.00  0.00    -0.234 A  
HETATM   19  C   UNL     1     -10.339  12.424  64.128  1.00  0.00    -0.409 A  
HETATM   20 CL   UNL     1      -9.478   9.889  64.317  1.00  0.00    -0.330 Cl 
HETATM   21  C   UNL     1     -10.548  13.734  64.583  1.00  0.00    -0.443 A  
ENDBRANCH  12  14
ENDBRANCH  10  12
ENDBRANCH   8  10
ENDBRANCH   5   8
TORSDOF 4
ENDMDL
MODEL      136
REMARK 921   NORMALIZED FREE ENERGY PREDICTED BY IDOCK:   -4.38 KCAL/MOL
REMARK 922        TOTAL FREE ENERGY PREDICTED BY IDOCK:   -6.02 KCAL/MOL
REMARK 923 INTER-LIGAND FREE ENERGY PREDICTED BY IDOCK:   -5.78 KCAL/MOL
REMARK 924 INTRA-LIGAND FREE ENERGY PREDICTED BY IDOCK:   -0.24 KCAL/MOL
REMARK 927      BINDING AFFINITY PREDICTED BY RF-SCORE:    0.00 PKD
ROOT
HETATM    1 CL   UNL     1     -10.586   9.081  67.548  1.00  0.00    -0.332 Cl 
HETATM    2  C   UNL     1     -11.098  10.707  67.772  1.00  0.00    -0.321 A  
HETATM    3  C   UNL     1     -11.189  11.557  66.679  1.00  0.00    -0.336 A  
HETATM    4  C   UNL     1     -11.615  12.874  66.864  1.00  0.00    -0.425 A  
HETATM    5  C   UNL     1     -11.967  13.352  68.134  1.00  0.00    -0.321 A  
HETATM    6  C   UNL     1     -11.417  11.170  69.048  1.00  0.00    -0.364 A  
HETATM    7  C   UNL     1     -11.839  12.495  69.231  1.00  0.00    -0.360 A  
ENDROOT
BRANCH   5   8
HETATM    8  N   UNL     1     -12.432  14.674  68.349  1.00  0.00    -0.512 N  
HETATM    9  H   UNL     1     -13.015  15.101  67.630  1.00  0.00     0.000 HD 
BRANCH   8  10
HETATM   10  C   UNL     1     -12.142  15.419  69.481  1.00  0.00    -0.305 C  
HETATM   11  O   UNL     1     -12.426  15.062  70.620  1.00  0.00    -0.317 OA 
BRANCH  10  12
HETATM   12  N   UNL     1     -11.495  16.610  69.197  1.00  0.00    -0.210 N  
HETATM   13  H   UNL     1     -12.064  17.447  69.069  1.00  0.00     0.000 HD 
BRANCH  12  14
HETATM   14  C   UNL     1     -10.088  16.733  69.074  1.00  0.00    -0.283 A  
HETATM   15  C   UNL     1      -9.209  15.687  69.388  1.00  0.00    -0.279 A  
HETATM   16  C   UNL     1      -7.827  15.826  69.225  1.00  0.00    -0.233 A  
HETATM   17 CL   UNL     1      -6.830  14.470  69.618  1.00  0.00    -0.152 Cl 
HETATM   18  C   UNL     1      -7.305  17.033  68.759  1.00  0.00    -0.236 A  
HETATM   19  C   UNL     1      -8.169  18.094  68.472  1.00  0.00    -0.320 A  
HETATM   20 CL   UNL     1      -5.612  17.279  68.524  1.00  0.00    -0.144 Cl 
HETATM   21  C   UNL     1      -9.554  17.949  68.639  1.00  0.00    -0.331 A  
ENDBRANCH  12  14
ENDBRANCH  10  12
ENDBRANCH   8  10
ENDBRANCH   5   8
TORSDOF 4
ENDMDL
MODEL      137
REMARK 921   NORMALIZED FREE ENERGY PREDICTED BY IDOCK:   -4.37 KCAL/MOL
REMARK 922        TOTAL FREE ENERGY PREDICTED BY IDOCK:   -6.00 KCAL/MOL
REMARK 923 INTER-LIGAND FREE ENERGY PREDICTED BY IDOCK:   -5.57 KCAL/MOL
REMARK 924 INTRA-LIGAND FREE ENERGY PREDICTED BY IDOCK:   -0.43 KCAL/MOL
REMARK 927      BINDING AFFINITY PREDICTED BY RF-SCORE:    0.00 PKD
ROOT
HETATM    1 CL   UNL     1     -11.105  13.072  66.118  1.00  0.00    -0.301 Cl 
HETATM    2  C   UNL     1     -10.711  11.456  66.552  1.00  0.00    -0.277 A  
HETATM    3  C   UNL     1     -10.135  10.611  65.613  1.00  0.00    -0.335 A  
HETATM    4  C   UNL     1      -9.807   9.302  65.973  1.00  0.00    -0.363 A  
HETATM    5  C   UNL     1     -10.037   8.826  67.271  1.00  0.00    -0.236 A  
HETATM    6  C   UNL     1     -10.974  10.994  67.842  1.00  0.00    -0.317 A  
HETATM    7  C   UNL     1     -10.648   9.677  68.197  1.00  0.00    -0.273 A  
ENDROOT
BRANCH   5   8
HETATM    8  N   UNL     1      -9.687   7.513  67.675  1.00  0.00    -0.142 N  
HETATM    9  H   UNL     1      -8.727   7.342  67.972  1.00  0.00     0.000 HD 
BRANCH   8  10
HETATM   10  C   UNL     1     -10.574   6.449  67.691  1.00  0.00    -0.274 C  
HETATM   11  O   UNL     1     -10.546   5.530  66.878  1.00  0.00    -0.259 OA 
BRANCH  10  12
HETATM   12  N   UNL     1     -11.498   6.526  68.720  1.00  0.00    -0.589 N  
HETATM   13  H   UNL     1     -12.484   6.622  68.475  1.00  0.00     0.000 HD 
BRANCH  12  14
HETATM   14  C   UNL     1     -11.154   6.477  70.094  1.00  0.00    -0.351 A  
HETATM   15  C   UNL     1     -10.539   5.361  70.679  1.00  0.00    -0.302 A  
HETATM   16  C   UNL     1     -10.179   5.355  72.031  1.00  0.00    -0.203 A  
HETATM   17 CL   UNL     1      -9.406   3.939  72.650  1.00  0.00    -0.146 Cl 
HETATM   18  C   UNL     1     -10.452   6.470  72.822  1.00  0.00    -0.215 A  
HETATM   19  C   UNL     1     -11.092   7.578  72.257  1.00  0.00    -0.319 A  
HETATM   20 CL   UNL     1     -10.031   6.541  74.495  1.00  0.00    -0.362 Cl 
HETATM   21  C   UNL     1     -11.452   7.578  70.902  1.00  0.00    -0.303 A  
ENDBRANCH  12  14
ENDBRANCH  10  12
ENDBRANCH   8  10
ENDBRANCH   5   8
TORSDOF 4
ENDMDL
MODEL      138
REMARK 921   NORMALIZED FREE ENERGY PREDICTED BY IDOCK:   -4.36 KCAL/MOL
REMARK 922        TOTAL FREE ENERGY PREDICTED BY IDOCK:   -6.00 KCAL/MOL
REMARK 923 INTER-LIGAND FREE ENERGY PREDICTED BY IDOCK:   -5.70 KCAL/MOL
REMARK 924 INTRA-LIGAND FREE ENERGY PREDICTED BY IDOCK:   -0.29 KCAL/MOL
REMARK 927      BINDING AFFINITY PREDICTED BY RF-SCORE:    0.00 PKD
ROOT
HETATM    1 CL   UNL     1      -9.840   3.742  73.276  1.00  0.00    -0.156 Cl 
HETATM    2  C   UNL     1     -10.296   4.679  71.909  1.00  0.00    -0.150 A  
HETATM    3  C   UNL     1     -11.257   5.672  72.044  1.00  0.00    -0.271 A  
HETATM    4  C   UNL     1     -11.617   6.438  70.933  1.00  0.00    -0.393 A  
HETATM    5  C   UNL     1     -11.015   6.234  69.684  1.00  0.00    -0.374 A  
HETATM    6  C   UNL     1      -9.705   4.441  70.668  1.00  0.00    -0.283 A  
HETATM    7  C   UNL     1     -10.073   5.209  69.554  1.00  0.00    -0.316 A  
ENDROOT
BRANCH   5   8
HETATM    8  N   UNL     1     -11.337   7.016  68.546  1.00  0.00    -0.479 N  
HETATM    9  H   UNL     1     -12.282   7.391  68.473  1.00  0.00     0.000 HD 
BRANCH   8  10
HETATM   10  C   UNL     1     -10.442   7.299  67.527  1.00  0.00    -0.266 C  
HETATM   11  O   UNL     1     -10.213   6.536  66.593  1.00  0.00    -0.186 OA 
BRANCH  10  12
HETATM   12  N   UNL     1      -9.831   8.534  67.666  1.00  0.00    -0.163 N  
HETATM   13  H   UNL     1      -8.919   8.570  68.121  1.00  0.00     0.000 HD 
BRANCH  12  14
HETATM   14  C   UNL     1     -10.400   9.751  67.213  1.00  0.00    -0.248 A  
HETATM   15  C   UNL     1     -10.349  10.154  65.871  1.00  0.00    -0.221 A  
HETATM   16  C   UNL     1     -10.949  11.344  65.447  1.00  0.00    -0.184 A  
HETATM   17 CL   UNL     1     -10.851  11.740  63.768  1.00  0.00    -0.444 Cl 
HETATM   18  C   UNL     1     -11.597  12.159  66.375  1.00  0.00    -0.364 A  
HETATM   19  C   UNL     1     -11.628  11.783  67.722  1.00  0.00    -0.374 A  
HETATM   20 CL   UNL     1     -12.368  13.638  65.928  1.00  0.00    -0.500 Cl 
HETATM   21  C   UNL     1     -11.023  10.589  68.141  1.00  0.00    -0.330 A  
ENDBRANCH  12  14
ENDBRANCH  10  12
ENDBRANCH   8  10
ENDBRANCH   5   8
TORSDOF 4
ENDMDL
MODEL      139
REMARK 921   NORMALIZED FREE ENERGY PREDICTED BY IDOCK:   -4.36 KCAL/MOL
REMARK 922        TOTAL FREE ENERGY PREDICTED BY IDOCK:   -5.99 KCAL/MOL
REMARK 923 INTER-LIGAND FREE ENERGY PREDICTED BY IDOCK:   -5.62 KCAL/MOL
REMARK 924 INTRA-LIGAND FREE ENERGY PREDICTED BY IDOCK:   -0.37 KCAL/MOL
REMARK 927      BINDING AFFINITY PREDICTED BY RF-SCORE:    0.00 PKD
ROOT
HETATM    1 CL   UNL     1     -13.331  11.823  63.087  1.00  0.00     0.242 Cl 
HETATM    2  C   UNL     1     -12.032  12.168  64.159  1.00  0.00    -0.408 A  
HETATM    3  C   UNL     1     -12.221  13.060  65.206  1.00  0.00    -0.513 A  
HETATM    4  C   UNL     1     -11.166  13.329  66.081  1.00  0.00    -0.317 A  
HETATM    5  C   UNL     1      -9.920  12.704  65.931  1.00  0.00    -0.264 A  
HETATM    6  C   UNL     1     -10.792  11.556  63.976  1.00  0.00    -0.453 A  
HETATM    7  C   UNL     1      -9.734  11.833  64.853  1.00  0.00    -0.199 A  
ENDROOT
BRANCH   5   8
HETATM    8  N   UNL     1      -8.840  12.932  66.820  1.00  0.00    -0.355 N  
HETATM    9  H   UNL     1      -8.316  12.125  67.157  1.00  0.00     0.000 HD 
BRANCH   8  10
HETATM   10  C   UNL     1      -8.455  14.189  67.259  1.00  0.00    -0.214 C  
HETATM   11  O   UNL     1      -8.088  14.424  68.406  1.00  0.00    -0.130 OA 
BRANCH  10  12
HETATM   12  N   UNL     1      -8.523  15.156  66.269  1.00  0.00    -0.385 N  
HETATM   13  H   UNL     1      -8.367  14.867  65.304  1.00  0.00     0.000 HD 
BRANCH  12  14
HETATM   14  C   UNL     1      -8.798  16.523  66.522  1.00  0.00    -0.282 A  
HETATM   15  C   UNL     1      -7.836  17.530  66.356  1.00  0.00    -0.329 A  
HETATM   16  C   UNL     1      -8.147  18.875  66.580  1.00  0.00    -0.287 A  
HETATM   17 CL   UNL     1      -6.897  20.041  66.325  1.00  0.00    -0.235 Cl 
HETATM   18  C   UNL     1      -9.431  19.227  66.995  1.00  0.00    -0.322 A  
HETATM   19  C   UNL     1     -10.390  18.229  67.194  1.00  0.00    -0.402 A  
HETATM   20 CL   UNL     1      -9.892  20.865  67.285  1.00  0.00    -0.480 Cl 
HETATM   21  C   UNL     1     -10.073  16.882  66.969  1.00  0.00    -0.289 A  
ENDBRANCH  12  14
ENDBRANCH  10  12
ENDBRANCH   8  10
ENDBRANCH   5   8
TORSDOF 4
ENDMDL
MODEL      140
REMARK 921   NORMALIZED FREE ENERGY PREDICTED BY IDOCK:   -4.36 KCAL/MOL
REMARK 922        TOTAL FREE ENERGY PREDICTED BY IDOCK:   -5.99 KCAL/MOL
REMARK 923 INTER-LIGAND FREE ENERGY PREDICTED BY IDOCK:   -5.26 KCAL/MOL
REMARK 924 INTRA-LIGAND FREE ENERGY PREDICTED BY IDOCK:   -0.73 KCAL/MOL
REMARK 927      BINDING AFFINITY PREDICTED BY RF-SCORE:    0.00 PKD
ROOT
HETATM    1 CL   UNL     1      -6.977   9.279  64.674  1.00  0.00    -0.090 Cl 
HETATM    2  C   UNL     1      -8.102   9.103  65.963  1.00  0.00    -0.110 A  
HETATM    3  C   UNL     1      -8.013   9.931  67.073  1.00  0.00    -0.109 A  
HETATM    4  C   UNL     1      -8.935   9.791  68.112  1.00  0.00    -0.119 A  
HETATM    5  C   UNL     1      -9.961   8.839  68.050  1.00  0.00    -0.182 A  
HETATM    6  C   UNL     1      -9.098   8.129  65.893  1.00  0.00    -0.183 A  
HETATM    7  C   UNL     1     -10.019   7.989  66.941  1.00  0.00    -0.338 A  
ENDROOT
BRANCH   5   8
HETATM    8  N   UNL     1     -10.930   8.693  69.074  1.00  0.00    -0.437 N  
HETATM    9  H   UNL     1     -11.372   7.782  69.191  1.00  0.00     0.000 HD 
BRANCH   8  10
HETATM   10  C   UNL     1     -11.313   9.717  69.925  1.00  0.00    -0.159 C  
HETATM   11  O   UNL     1     -10.855   9.868  71.054  1.00  0.00    -0.321 OA 
BRANCH  10  12
HETATM   12  N   UNL     1     -12.266  10.557  69.373  1.00  0.00    -0.547 N  
HETATM   13  H   UNL     1     -13.210  10.192  69.242  1.00  0.00     0.000 HD 
BRANCH  12  14
HETATM   14  C   UNL     1     -12.006  11.894  68.981  1.00  0.00    -0.262 A  
HETATM   15  C   UNL     1     -12.140  12.978  69.859  1.00  0.00    -0.347 A  
HETATM   16  C   UNL     1     -11.843  14.283  69.452  1.00  0.00    -0.326 A  
HETATM   17 CL   UNL     1     -12.018  15.548  70.617  1.00  0.00    -0.372 Cl 
HETATM   18  C   UNL     1     -11.424  14.519  68.144  1.00  0.00    -0.312 A  
HETATM   19  C   UNL     1     -11.316  13.450  67.249  1.00  0.00    -0.348 A  
HETATM   20 CL   UNL     1     -11.032  16.100  67.570  1.00  0.00    -0.284 Cl 
HETATM   21  C   UNL     1     -11.616  12.144  67.662  1.00  0.00    -0.413 A  
ENDBRANCH  12  14
ENDBRANCH  10  12
ENDBRANCH   8  10
ENDBRANCH   5   8
TORSDOF 4
ENDMDL
MODEL      141
REMARK 921   NORMALIZED FREE ENERGY PREDICTED BY IDOCK:   -4.35 KCAL/MOL
REMARK 922        TOTAL FREE ENERGY PREDICTED BY IDOCK:   -5.98 KCAL/MOL
REMARK 923 INTER-LIGAND FREE ENERGY PREDICTED BY IDOCK:   -5.65 KCAL/MOL
REMARK 924 INTRA-LIGAND FREE ENERGY PREDICTED BY IDOCK:   -0.33 KCAL/MOL
REMARK 927      BINDING AFFINITY PREDICTED BY RF-SCORE:    0.00 PKD
ROOT
HETATM    1 CL   UNL     1      -5.489  11.853  69.074  1.00  0.00    -0.050 Cl 
HETATM    2  C   UNL     1      -6.911  12.479  68.338  1.00  0.00    -0.085 A  
HETATM    3  C   UNL     1      -6.985  13.829  68.021  1.00  0.00    -0.137 A  
HETATM    4  C   UNL     1      -8.137  14.332  67.414  1.00  0.00    -0.213 A  
HETATM    5  C   UNL     1      -9.219  13.496  67.104  1.00  0.00    -0.236 A  
HETATM    6  C   UNL     1      -7.987  11.636  68.064  1.00  0.00    -0.132 A  
HETATM    7  C   UNL     1      -9.145  12.146  67.460  1.00  0.00    -0.180 A  
ENDROOT
BRANCH   5   8
HETATM    8  N   UNL     1     -10.390  13.970  66.461  1.00  0.00    -0.280 N  
HETATM    9  H   UNL     1     -10.357  14.120  65.453  1.00  0.00     0.000 HD 
BRANCH   8  10
HETATM   10  C   UNL     1     -11.577  14.243  67.121  1.00  0.00    -0.380 C  
HETATM   11  O   UNL     1     -12.626  13.643  66.908  1.00  0.00    -0.233 OA 
BRANCH  10  12
HETATM   12  N   UNL     1     -11.461  15.264  68.051  1.00  0.00    -0.345 N  
HETATM   13  H   UNL     1     -11.158  16.181  67.723  1.00  0.00     0.000 HD 
BRANCH  12  14
HETATM   14  C   UNL     1     -11.738  15.106  69.432  1.00  0.00    -0.332 A  
HETATM   15  C   UNL     1     -12.353  13.959  69.952  1.00  0.00    -0.358 A  
HETATM   16  C   UNL     1     -12.584  13.817  71.325  1.00  0.00    -0.362 A  
HETATM   17 CL   UNL     1     -13.327  12.355  71.869  1.00  0.00    -0.532 Cl 
HETATM   18  C   UNL     1     -12.215  14.842  72.196  1.00  0.00    -0.348 A  
HETATM   19  C   UNL     1     -11.629  16.005  71.686  1.00  0.00    -0.538 A  
HETATM   20 CL   UNL     1     -12.460  14.738  73.902  1.00  0.00    -0.542 Cl 
HETATM   21  C   UNL     1     -11.401  16.142  70.309  1.00  0.00    -0.363 A  
ENDBRANCH  12  14
ENDBRANCH  10  12
ENDBRANCH   8  10
ENDBRANCH   5   8
TORSDOF 4
ENDMDL
MODEL      142
REMARK 921   NORMALIZED FREE ENERGY PREDICTED BY IDOCK:   -4.35 KCAL/MOL
REMARK 922        TOTAL FREE ENERGY PREDICTED BY IDOCK:   -5.97 KCAL/MOL
REMARK 923 INTER-LIGAND FREE ENERGY PREDICTED BY IDOCK:   -5.58 KCAL/MOL
REMARK 924 INTRA-LIGAND FREE ENERGY PREDICTED BY IDOCK:   -0.39 KCAL/MOL
REMARK 927      BINDING AFFINITY PREDICTED BY RF-SCORE:    0.00 PKD
ROOT
HETATM    1 CL   UNL     1     -12.006   5.562  72.622  1.00  0.00    -0.221 Cl 
HETATM    2  C   UNL     1     -11.492   6.856  71.613  1.00  0.00    -0.275 A  
HETATM    3  C   UNL     1     -11.180   6.610  70.283  1.00  0.00    -0.408 A  
HETATM    4  C   UNL     1     -10.772   7.666  69.465  1.00  0.00    -0.211 A  
HETATM    5  C   UNL     1     -10.686   8.975  69.957  1.00  0.00    -0.229 A  
HETATM    6  C   UNL     1     -11.386   8.147  72.131  1.00  0.00    -0.399 A  
HETATM    7  C   UNL     1     -10.972   9.203  71.307  1.00  0.00    -0.400 A  
ENDROOT
BRANCH   5   8
HETATM    8  N   UNL     1     -10.306  10.073  69.144  1.00  0.00    -0.202 N  
HETATM    9  H   UNL     1      -9.552  10.676  69.474  1.00  0.00     0.000 HD 
BRANCH   8  10
HETATM   10  C   UNL     1     -10.898  10.374  67.929  1.00  0.00    -0.279 C  
HETATM   11  O   UNL     1     -10.621   9.802  66.878  1.00  0.00    -0.227 OA 
BRANCH  10  12
HETATM   12  N   UNL     1     -11.838  11.388  68.017  1.00  0.00    -0.258 N  
HETATM   13  H   UNL     1     -12.822  11.140  67.916  1.00  0.00     0.000 HD 
BRANCH  12  14
HETATM   14  C   UNL     1     -11.510  12.749  68.238  1.00  0.00    -0.314 A  
HETATM   15  C   UNL     1     -10.817  13.521  67.295  1.00  0.00    -0.285 A  
HETATM   16  C   UNL     1     -10.538  14.872  67.528  1.00  0.00    -0.266 A  
HETATM   17 CL   UNL     1      -9.700  15.744  66.293  1.00  0.00    -0.300 Cl 
HETATM   18  C   UNL     1     -10.937  15.463  68.726  1.00  0.00    -0.264 A  
HETATM   19  C   UNL     1     -11.601  14.695  69.687  1.00  0.00    -0.349 A  
HETATM   20 CL   UNL     1     -10.635  17.125  69.082  1.00  0.00    -0.308 Cl 
HETATM   21  C   UNL     1     -11.877  13.341  69.450  1.00  0.00    -0.386 A  
ENDBRANCH  12  14
ENDBRANCH  10  12
ENDBRANCH   8  10
ENDBRANCH   5   8
TORSDOF 4
ENDMDL
MODEL      143
REMARK 921   NORMALIZED FREE ENERGY PREDICTED BY IDOCK:   -4.34 KCAL/MOL
REMARK 922        TOTAL FREE ENERGY PREDICTED BY IDOCK:   -5.97 KCAL/MOL
REMARK 923 INTER-LIGAND FREE ENERGY PREDICTED BY IDOCK:   -5.26 KCAL/MOL
REMARK 924 INTRA-LIGAND FREE ENERGY PREDICTED BY IDOCK:   -0.71 KCAL/MOL
REMARK 927      BINDING AFFINITY PREDICTED BY RF-SCORE:    0.00 PKD
ROOT
HETATM    1 CL   UNL     1      -7.324   6.559  65.969  1.00  0.00    -0.078 Cl 
HETATM    2  C   UNL     1      -8.480   6.948  67.180  1.00  0.00    -0.121 A  
HETATM    3  C   UNL     1      -8.058   7.217  68.475  1.00  0.00    -0.125 A  
HETATM    4  C   UNL     1      -8.999   7.542  69.454  1.00  0.00    -0.139 A  
HETATM    5  C   UNL     1     -10.365   7.618  69.151  1.00  0.00    -0.213 A  
HETATM    6  C   UNL     1      -9.838   6.991  66.864  1.00  0.00    -0.259 A  
HETATM    7  C   UNL     1     -10.781   7.313  67.851  1.00  0.00    -0.239 A  
ENDROOT
BRANCH   5   8
HETATM    8  N   UNL     1     -11.341   7.976  70.114  1.00  0.00    -0.445 N  
HETATM    9  H   UNL     1     -12.013   7.266  70.404  1.00  0.00     0.000 HD 
BRANCH   8  10
HETATM   10  C   UNL     1     -11.437   9.234  70.686  1.00  0.00    -0.274 C  
HETATM   11  O   UNL     1     -10.828   9.568  71.698  1.00  0.00    -0.343 OA 
BRANCH  10  12
HETATM   12  N   UNL     1     -12.289  10.082  69.997  1.00  0.00    -0.501 N  
HETATM   13  H   UNL     1     -13.291   9.896  70.040  1.00  0.00     0.000 HD 
BRANCH  12  14
HETATM   14  C   UNL     1     -11.849  11.194  69.236  1.00  0.00    -0.352 A  
HETATM   15  C   UNL     1     -11.299  11.060  67.953  1.00  0.00    -0.381 A  
HETATM   16  C   UNL     1     -10.904  12.178  67.212  1.00  0.00    -0.244 A  
HETATM   17 CL   UNL     1     -10.260  11.909  65.631  1.00  0.00    -0.268 Cl 
HETATM   18  C   UNL     1     -11.040  13.453  67.761  1.00  0.00    -0.268 A  
HETATM   19  C   UNL     1     -11.559  13.598  69.051  1.00  0.00    -0.356 A  
HETATM   20 CL   UNL     1     -10.583  14.882  66.905  1.00  0.00    -0.294 Cl 
HETATM   21  C   UNL     1     -11.951  12.473  69.791  1.00  0.00    -0.359 A  
ENDBRANCH  12  14
ENDBRANCH  10  12
ENDBRANCH   8  10
ENDBRANCH   5   8
TORSDOF 4
ENDMDL
MODEL      144
REMARK 921   NORMALIZED FREE ENERGY PREDICTED BY IDOCK:   -4.34 KCAL/MOL
REMARK 922        TOTAL FREE ENERGY PREDICTED BY IDOCK:   -5.97 KCAL/MOL
REMARK 923 INTER-LIGAND FREE ENERGY PREDICTED BY IDOCK:   -5.42 KCAL/MOL
REMARK 924 INTRA-LIGAND FREE ENERGY PREDICTED BY IDOCK:   -0.55 KCAL/MOL
REMARK 927      BINDING AFFINITY PREDICTED BY RF-SCORE:    0.00 PKD
ROOT
HETATM    1 CL   UNL     1      -8.410  19.367  68.549  1.00  0.00    -0.393 Cl 
HETATM    2  C   UNL     1      -9.082  18.174  67.509  1.00  0.00    -0.254 A  
HETATM    3  C   UNL     1     -10.430  18.224  67.184  1.00  0.00    -0.417 A  
HETATM    4  C   UNL     1     -10.970  17.259  66.331  1.00  0.00     0.222 A  
HETATM    5  C   UNL     1     -10.172  16.245  65.784  1.00  0.00    -0.367 A  
HETATM    6  C   UNL     1      -8.275  17.157  66.998  1.00  0.00    -0.234 A  
HETATM    7  C   UNL     1      -8.822  16.187  66.146  1.00  0.00    -0.367 A  
ENDROOT
BRANCH   5   8
HETATM    8  N   UNL     1     -10.683  15.270  64.891  1.00  0.00    -0.530 N  
HETATM    9  H   UNL     1     -10.321  15.254  63.938  1.00  0.00     0.000 HD 
BRANCH   8  10
HETATM   10  C   UNL     1     -11.646  14.336  65.238  1.00  0.00    -0.348 C  
HETATM   11  O   UNL     1     -12.793  14.349  64.800  1.00  0.00    -0.647 OA 
BRANCH  10  12
HETATM   12  N   UNL     1     -11.183  13.381  66.129  1.00  0.00    -0.292 N  
HETATM   13  H   UNL     1     -11.500  13.435  67.097  1.00  0.00     0.000 HD 
BRANCH  12  14
HETATM   14  C   UNL     1     -10.296  12.335  65.773  1.00  0.00    -0.258 A  
HETATM   15  C   UNL     1     -10.291  11.752  64.497  1.00  0.00    -0.340 A  
HETATM   16  C   UNL     1      -9.380  10.744  64.164  1.00  0.00    -0.252 A  
HETATM   17 CL   UNL     1      -9.439  10.106  62.559  1.00  0.00    -0.312 Cl 
HETATM   18  C   UNL     1      -8.470  10.292  65.120  1.00  0.00    -0.168 A  
HETATM   19  C   UNL     1      -8.486  10.845  66.404  1.00  0.00    -0.163 A  
HETATM   20 CL   UNL     1      -7.311   9.058  64.782  1.00  0.00    -0.099 Cl 
HETATM   21  C   UNL     1      -9.402  11.854  66.733  1.00  0.00    -0.204 A  
ENDBRANCH  12  14
ENDBRANCH  10  12
ENDBRANCH   8  10
ENDBRANCH   5   8
TORSDOF 4
ENDMDL
MODEL      145
REMARK 921   NORMALIZED FREE ENERGY PREDICTED BY IDOCK:   -4.34 KCAL/MOL
REMARK 922        TOTAL FREE ENERGY PREDICTED BY IDOCK:   -5.96 KCAL/MOL
REMARK 923 INTER-LIGAND FREE ENERGY PREDICTED BY IDOCK:   -5.78 KCAL/MOL
REMARK 924 INTRA-LIGAND FREE ENERGY PREDICTED BY IDOCK:   -0.18 KCAL/MOL
REMARK 927      BINDING AFFINITY PREDICTED BY RF-SCORE:    0.00 PKD
ROOT
HETATM    1 CL   UNL     1     -12.435   6.699  71.948  1.00  0.00    -0.376 Cl 
HETATM    2  C   UNL     1     -11.727   7.921  70.968  1.00  0.00    -0.277 A  
HETATM    3  C   UNL     1     -11.078   7.571  69.791  1.00  0.00    -0.143 A  
HETATM    4  C   UNL     1     -10.514   8.567  68.993  1.00  0.00    -0.216 A  
HETATM    5  C   UNL     1     -10.602   9.920  69.348  1.00  0.00    -0.229 A  
HETATM    6  C   UNL     1     -11.802   9.259  71.354  1.00  0.00    -0.428 A  
HETATM    7  C   UNL     1     -11.229  10.256  70.552  1.00  0.00    -0.408 A  
ENDROOT
BRANCH   5   8
HETATM    8  N   UNL     1     -10.066  10.957  68.543  1.00  0.00    -0.176 N  
HETATM    9  H   UNL     1      -9.075  11.176  68.639  1.00  0.00     0.000 HD 
BRANCH   8  10
HETATM   10  C   UNL     1     -10.811  11.689  67.633  1.00  0.00    -0.225 C  
HETATM   11  O   UNL     1     -12.019  11.546  67.472  1.00  0.00    -0.629 OA 
BRANCH  10  12
HETATM   12  N   UNL     1     -10.053  12.605  66.921  1.00  0.00    -0.227 N  
HETATM   13  H   UNL     1      -9.451  12.255  66.176  1.00  0.00     0.000 HD 
BRANCH  12  14
HETATM   14  C   UNL     1     -10.066  14.001  67.169  1.00  0.00    -0.259 A  
HETATM   15  C   UNL     1      -9.080  14.865  66.670  1.00  0.00    -0.309 A  
HETATM   16  C   UNL     1      -9.139  16.243  66.902  1.00  0.00    -0.220 A  
HETATM   17 CL   UNL     1      -7.888  17.225  66.226  1.00  0.00    -0.340 Cl 
HETATM   18  C   UNL     1     -10.184  16.772  67.659  1.00  0.00    -0.289 A  
HETATM   19  C   UNL     1     -11.155  15.917  68.188  1.00  0.00    -0.338 A  
HETATM   20 CL   UNL     1     -10.328  18.462  67.982  1.00  0.00    -0.401 Cl 
HETATM   21  C   UNL     1     -11.092  14.535  67.953  1.00  0.00    -0.290 A  
ENDBRANCH  12  14
ENDBRANCH  10  12
ENDBRANCH   8  10
ENDBRANCH   5   8
TORSDOF 4
ENDMDL
MODEL      146
REMARK 921   NORMALIZED FREE ENERGY PREDICTED BY IDOCK:   -4.33 KCAL/MOL
REMARK 922        TOTAL FREE ENERGY PREDICTED BY IDOCK:   -5.96 KCAL/MOL
REMARK 923 INTER-LIGAND FREE ENERGY PREDICTED BY IDOCK:   -5.55 KCAL/MOL
REMARK 924 INTRA-LIGAND FREE ENERGY PREDICTED BY IDOCK:   -0.41 KCAL/MOL
REMARK 927      BINDING AFFINITY PREDICTED BY RF-SCORE:    0.00 PKD
ROOT
HETATM    1 CL   UNL     1      -7.995   9.391  64.484  1.00  0.00    -0.119 Cl 
HETATM    2  C   UNL     1      -8.665   9.820  66.008  1.00  0.00    -0.141 A  
HETATM    3  C   UNL     1      -7.958  10.657  66.861  1.00  0.00    -0.124 A  
HETATM    4  C   UNL     1      -8.510  11.011  68.093  1.00  0.00    -0.135 A  
HETATM    5  C   UNL     1      -9.775  10.548  68.483  1.00  0.00    -0.165 A  
HETATM    6  C   UNL     1      -9.913   9.326  66.387  1.00  0.00    -0.356 A  
HETATM    7  C   UNL     1     -10.462   9.679  67.629  1.00  0.00    -0.317 A  
ENDROOT
BRANCH   5   8
HETATM    8  N   UNL     1     -10.376  10.914  69.713  1.00  0.00    -0.449 N  
HETATM    9  H   UNL     1      -9.846  10.760  70.570  1.00  0.00     0.000 HD 
BRANCH   8  10
HETATM   10  C   UNL     1     -11.641  11.469  69.819  1.00  0.00    -0.326 C  
HETATM   11  O   UNL     1     -12.359  11.338  70.806  1.00  0.00    -0.359 OA 
BRANCH  10  12
HETATM   12  N   UNL     1     -12.016  12.190  68.697  1.00  0.00    -0.299 N  
HETATM   13  H   UNL     1     -12.616  11.733  68.011  1.00  0.00     0.000 HD 
BRANCH  12  14
HETATM   14  C   UNL     1     -11.612  13.526  68.448  1.00  0.00    -0.343 A  
HETATM   15  C   UNL     1     -10.874  13.891  67.313  1.00  0.00    -0.292 A  
HETATM   16  C   UNL     1     -10.519  15.224  67.076  1.00  0.00    -0.292 A  
HETATM   17 CL   UNL     1      -9.629  15.575  65.637  1.00  0.00    -0.360 Cl 
HETATM   18  C   UNL     1     -10.887  16.209  67.992  1.00  0.00    -0.333 A  
HETATM   19  C   UNL     1     -11.596  15.852  69.143  1.00  0.00    -0.382 A  
HETATM   20 CL   UNL     1     -10.493  17.875  67.766  1.00  0.00    -0.393 Cl 
HETATM   21  C   UNL     1     -11.948  14.514  69.376  1.00  0.00    -0.362 A  
ENDBRANCH  12  14
ENDBRANCH  10  12
ENDBRANCH   8  10
ENDBRANCH   5   8
TORSDOF 4
ENDMDL
MODEL      147
REMARK 921   NORMALIZED FREE ENERGY PREDICTED BY IDOCK:   -4.33 KCAL/MOL
REMARK 922        TOTAL FREE ENERGY PREDICTED BY IDOCK:   -5.95 KCAL/MOL
REMARK 923 INTER-LIGAND FREE ENERGY PREDICTED BY IDOCK:   -5.75 KCAL/MOL
REMARK 924 INTRA-LIGAND FREE ENERGY PREDICTED BY IDOCK:   -0.21 KCAL/MOL
REMARK 927      BINDING AFFINITY PREDICTED BY RF-SCORE:    0.00 PKD
ROOT
HETATM    1 CL   UNL     1     -13.404  14.313  72.747  1.00  0.00    -0.608 Cl 
HETATM    2  C   UNL     1     -12.914  13.058  71.679  1.00  0.00    -0.321 A  
HETATM    3  C   UNL     1     -12.216  13.373  70.521  1.00  0.00    -0.425 A  
HETATM    4  C   UNL     1     -11.810  12.350  69.661  1.00  0.00    -0.380 A  
HETATM    5  C   UNL     1     -12.081  11.006  69.952  1.00  0.00    -0.361 A  
HETATM    6  C   UNL     1     -13.218  11.729  71.974  1.00  0.00    -0.460 A  
HETATM    7  C   UNL     1     -12.813  10.706  71.105  1.00  0.00    -0.518 A  
ENDROOT
BRANCH   5   8
HETATM    8  N   UNL     1     -11.656   9.944  69.116  1.00  0.00    -0.472 N  
HETATM    9  H   UNL     1     -12.297   9.614  68.395  1.00  0.00     0.000 HD 
BRANCH   8  10
HETATM   10  C   UNL     1     -10.420   9.327  69.220  1.00  0.00    -0.218 C  
HETATM   11  O   UNL     1      -9.602   9.590  70.097  1.00  0.00    -0.216 OA 
BRANCH  10  12
HETATM   12  N   UNL     1     -10.200   8.378  68.235  1.00  0.00    -0.200 N  
HETATM   13  H   UNL     1     -10.425   7.406  68.445  1.00  0.00     0.000 HD 
BRANCH  12  14
HETATM   14  C   UNL     1      -9.679   8.681  66.952  1.00  0.00    -0.214 A  
HETATM   15  C   UNL     1      -8.872   7.786  66.235  1.00  0.00    -0.187 A  
HETATM   16  C   UNL     1      -8.401   8.099  64.956  1.00  0.00    -0.136 A  
HETATM   17 CL   UNL     1      -7.432   6.920  64.145  1.00  0.00    -0.094 Cl 
HETATM   18  C   UNL     1      -8.720   9.331  64.385  1.00  0.00    -0.181 A  
HETATM   19  C   UNL     1      -9.499  10.244  65.103  1.00  0.00    -0.309 A  
HETATM   20 CL   UNL     1      -8.183   9.786  62.808  1.00  0.00    -0.139 Cl 
HETATM   21  C   UNL     1      -9.968   9.925  66.385  1.00  0.00    -0.309 A  
ENDBRANCH  12  14
ENDBRANCH  10  12
ENDBRANCH   8  10
ENDBRANCH   5   8
TORSDOF 4
ENDMDL
MODEL      148
REMARK 921   NORMALIZED FREE ENERGY PREDICTED BY IDOCK:   -4.33 KCAL/MOL
REMARK 922        TOTAL FREE ENERGY PREDICTED BY IDOCK:   -5.95 KCAL/MOL
REMARK 923 INTER-LIGAND FREE ENERGY PREDICTED BY IDOCK:   -5.66 KCAL/MOL
REMARK 924 INTRA-LIGAND FREE ENERGY PREDICTED BY IDOCK:   -0.29 KCAL/MOL
REMARK 927      BINDING AFFINITY PREDICTED BY RF-SCORE:    0.00 PKD
ROOT
HETATM    1 CL   UNL     1     -11.368  15.641  64.491  1.00  0.00    -0.391 Cl 
HETATM    2  C   UNL     1     -11.180  14.612  65.855  1.00  0.00    -0.336 A  
HETATM    3  C   UNL     1     -10.392  13.473  65.755  1.00  0.00    -0.296 A  
HETATM    4  C   UNL     1     -10.233  12.645  66.868  1.00  0.00    -0.242 A  
HETATM    5  C   UNL     1     -10.843  12.949  68.093  1.00  0.00    -0.236 A  
HETATM    6  C   UNL     1     -11.819  14.918  67.056  1.00  0.00    -0.216 A  
HETATM    7  C   UNL     1     -11.661  14.081  68.170  1.00  0.00    -0.369 A  
ENDROOT
BRANCH   5   8
HETATM    8  N   UNL     1     -10.676  12.145  69.248  1.00  0.00    -0.437 N  
HETATM    9  H   UNL     1      -9.836  12.281  69.810  1.00  0.00     0.000 HD 
BRANCH   8  10
HETATM   10  C   UNL     1     -11.587  11.186  69.659  1.00  0.00    -0.326 C  
HETATM   11  O   UNL     1     -12.418  10.675  68.913  1.00  0.00    -0.297 OA 
BRANCH  10  12
HETATM   12  N   UNL     1     -11.465  10.857  70.999  1.00  0.00    -0.210 N  
HETATM   13  H   UNL     1     -11.362  11.616  71.672  1.00  0.00     0.000 HD 
BRANCH  12  14
HETATM   14  C   UNL     1     -11.476   9.527  71.489  1.00  0.00    -0.395 A  
HETATM   15  C   UNL     1     -12.660   8.793  71.651  1.00  0.00    -0.393 A  
HETATM   16  C   UNL     1     -12.637   7.469  72.104  1.00  0.00    -0.164 A  
HETATM   17 CL   UNL     1     -14.147   6.643  72.248  1.00  0.00    -0.040 Cl 
HETATM   18  C   UNL     1     -11.418   6.870  72.421  1.00  0.00    -0.259 A  
HETATM   19  C   UNL     1     -10.234   7.602  72.292  1.00  0.00    -0.268 A  
HETATM   20 CL   UNL     1     -11.308   5.239  72.978  1.00  0.00    -0.380 Cl 
HETATM   21  C   UNL     1     -10.263   8.929  71.839  1.00  0.00    -0.403 A  
ENDBRANCH  12  14
ENDBRANCH  10  12
ENDBRANCH   8  10
ENDBRANCH   5   8
TORSDOF 4
ENDMDL
MODEL      149
REMARK 921   NORMALIZED FREE ENERGY PREDICTED BY IDOCK:   -4.32 KCAL/MOL
REMARK 922        TOTAL FREE ENERGY PREDICTED BY IDOCK:   -5.95 KCAL/MOL
REMARK 923 INTER-LIGAND FREE ENERGY PREDICTED BY IDOCK:   -5.40 KCAL/MOL
REMARK 924 INTRA-LIGAND FREE ENERGY PREDICTED BY IDOCK:   -0.54 KCAL/MOL
REMARK 927      BINDING AFFINITY PREDICTED BY RF-SCORE:    0.00 PKD
ROOT
HETATM    1 CL   UNL     1      -8.672   3.962  66.643  1.00  0.00    -0.111 Cl 
HETATM    2  C   UNL     1      -9.450   5.204  67.542  1.00  0.00    -0.133 A  
HETATM    3  C   UNL     1      -9.436   6.509  67.069  1.00  0.00    -0.161 A  
HETATM    4  C   UNL     1     -10.078   7.513  67.797  1.00  0.00    -0.235 A  
HETATM    5  C   UNL     1     -10.751   7.226  68.993  1.00  0.00    -0.166 A  
HETATM    6  C   UNL     1     -10.090   4.901  68.744  1.00  0.00    -0.169 A  
HETATM    7  C   UNL     1     -10.729   5.913  69.475  1.00  0.00    -0.414 A  
ENDROOT
BRANCH   5   8
HETATM    8  N   UNL     1     -11.438   8.217  69.739  1.00  0.00    -0.432 N  
HETATM    9  H   UNL     1     -12.263   7.934  70.267  1.00  0.00     0.000 HD 
BRANCH   8  10
HETATM   10  C   UNL     1     -11.054   9.546  69.792  1.00  0.00    -0.191 C  
HETATM   11  O   UNL     1     -10.019   9.933  70.327  1.00  0.00    -0.254 OA 
BRANCH  10  12
HETATM   12  N   UNL     1     -11.956  10.399  69.177  1.00  0.00    -0.534 N  
HETATM   13  H   UNL     1     -12.949  10.271  69.374  1.00  0.00     0.000 HD 
BRANCH  12  14
HETATM   14  C   UNL     1     -11.580  11.439  68.291  1.00  0.00    -0.306 A  
HETATM   15  C   UNL     1     -11.807  12.793  68.577  1.00  0.00    -0.345 A  
HETATM   16  C   UNL     1     -11.393  13.800  67.697  1.00  0.00    -0.304 A  
HETATM   17 CL   UNL     1     -11.699  15.439  68.151  1.00  0.00    -0.336 Cl 
HETATM   18  C   UNL     1     -10.759  13.456  66.504  1.00  0.00    -0.286 A  
HETATM   19  C   UNL     1     -10.555  12.108  66.194  1.00  0.00    -0.290 A  
HETATM   20 CL   UNL     1     -10.214  14.641  65.373  1.00  0.00    -0.389 Cl 
HETATM   21  C   UNL     1     -10.973  11.103  67.078  1.00  0.00    -0.348 A  
ENDBRANCH  12  14
ENDBRANCH  10  12
ENDBRANCH   8  10
ENDBRANCH   5   8
TORSDOF 4
ENDMDL
MODEL      150
REMARK 921   NORMALIZED FREE ENERGY PREDICTED BY IDOCK:   -4.32 KCAL/MOL
REMARK 922        TOTAL FREE ENERGY PREDICTED BY IDOCK:   -5.94 KCAL/MOL
REMARK 923 INTER-LIGAND FREE ENERGY PREDICTED BY IDOCK:   -5.67 KCAL/MOL
REMARK 924 INTRA-LIGAND FREE ENERGY PREDICTED BY IDOCK:   -0.27 KCAL/MOL
REMARK 927      BINDING AFFINITY PREDICTED BY RF-SCORE:    0.00 PKD
ROOT
HETATM    1 CL   UNL     1     -10.139  19.086  67.566  1.00  0.00    -0.412 Cl 
HETATM    2  C   UNL     1     -10.131  17.385  67.314  1.00  0.00    -0.310 A  
HETATM    3  C   UNL     1      -9.957  16.879  66.033  1.00  0.00    -0.313 A  
HETATM    4  C   UNL     1      -9.941  15.497  65.834  1.00  0.00    -0.377 A  
HETATM    5  C   UNL     1     -10.083  14.607  66.907  1.00  0.00    -0.255 A  
HETATM    6  C   UNL     1     -10.302  16.517  68.393  1.00  0.00    -0.294 A  
HETATM    7  C   UNL     1     -10.291  15.130  68.188  1.00  0.00    -0.239 A  
ENDROOT
BRANCH   5   8
HETATM    8  N   UNL     1     -10.040  13.200  66.742  1.00  0.00    -0.248 N  
HETATM    9  H   UNL     1      -9.310  12.808  66.148  1.00  0.00     0.000 HD 
BRANCH   8  10
HETATM   10  C   UNL     1     -10.932  12.325  67.341  1.00  0.00    -0.253 C  
HETATM   11  O   UNL     1     -12.066  12.119  66.919  1.00  0.00    -0.600 OA 
BRANCH  10  12
HETATM   12  N   UNL     1     -10.414  11.704  68.465  1.00  0.00    -0.211 N  
HETATM   13  H   UNL     1      -9.901  12.275  69.136  1.00  0.00     0.000 HD 
BRANCH  12  14
HETATM   14  C   UNL     1     -10.557  10.320  68.737  1.00  0.00    -0.209 A  
HETATM   15  C   UNL     1     -10.363   9.335  67.757  1.00  0.00    -0.292 A  
HETATM   16  C   UNL     1     -10.478   7.975  68.063  1.00  0.00    -0.184 A  
HETATM   17 CL   UNL     1     -10.197   6.839  66.791  1.00  0.00    -0.282 Cl 
HETATM   18  C   UNL     1     -10.809   7.585  69.360  1.00  0.00    -0.150 A  
HETATM   19  C   UNL     1     -11.034   8.558  70.338  1.00  0.00    -0.254 A  
HETATM   20 CL   UNL     1     -10.961   5.926  69.816  1.00  0.00    -0.448 Cl 
HETATM   21  C   UNL     1     -10.920   9.921  70.026  1.00  0.00    -0.338 A  
ENDBRANCH  12  14
ENDBRANCH  10  12
ENDBRANCH   8  10
ENDBRANCH   5   8
TORSDOF 4
ENDMDL
MODEL      151
REMARK 921   NORMALIZED FREE ENERGY PREDICTED BY IDOCK:   -4.30 KCAL/MOL
REMARK 922        TOTAL FREE ENERGY PREDICTED BY IDOCK:   -5.91 KCAL/MOL
REMARK 923 INTER-LIGAND FREE ENERGY PREDICTED BY IDOCK:   -5.31 KCAL/MOL
REMARK 924 INTRA-LIGAND FREE ENERGY PREDICTED BY IDOCK:   -0.61 KCAL/MOL
REMARK 927      BINDING AFFINITY PREDICTED BY RF-SCORE:    0.00 PKD
ROOT
HETATM    1 CL   UNL     1     -10.608   5.187  66.565  1.00  0.00    -0.343 Cl 
HETATM    2  C   UNL     1     -10.727   6.507  67.660  1.00  0.00    -0.307 A  
HETATM    3  C   UNL     1     -10.901   6.263  69.016  1.00  0.00    -0.400 A  
HETATM    4  C   UNL     1     -10.987   7.338  69.904  1.00  0.00    -0.262 A  
HETATM    5  C   UNL     1     -10.886   8.661  69.455  1.00  0.00    -0.095 A  
HETATM    6  C   UNL     1     -10.652   7.817  67.188  1.00  0.00    -0.401 A  
HETATM    7  C   UNL     1     -10.744   8.893  68.083  1.00  0.00    -0.148 A  
ENDROOT
BRANCH   5   8
HETATM    8  N   UNL     1     -10.938   9.772  70.334  1.00  0.00    -0.287 N  
HETATM    9  H   UNL     1     -10.165   9.904  70.986  1.00  0.00     0.000 HD 
BRANCH   8  10
HETATM   10  C   UNL     1     -11.976  10.688  70.359  1.00  0.00    -0.346 C  
HETATM   11  O   UNL     1     -13.160  10.370  70.433  1.00  0.00    -0.281 OA 
BRANCH  10  12
HETATM   12  N   UNL     1     -11.545  12.003  70.295  1.00  0.00    -0.527 N  
HETATM   13  H   UNL     1     -11.489  12.533  71.164  1.00  0.00     0.000 HD 
BRANCH  12  14
HETATM   14  C   UNL     1     -11.178  12.654  69.090  1.00  0.00    -0.243 A  
HETATM   15  C   UNL     1      -9.883  12.581  68.558  1.00  0.00    -0.153 A  
HETATM   16  C   UNL     1      -9.560  13.206  67.349  1.00  0.00    -0.219 A  
HETATM   17 CL   UNL     1      -7.942  13.038  66.765  1.00  0.00     0.109 Cl 
HETATM   18  C   UNL     1     -10.534  13.933  66.665  1.00  0.00    -0.272 A  
HETATM   19  C   UNL     1     -11.821  14.038  67.202  1.00  0.00    -0.444 A  
HETATM   20 CL   UNL     1     -10.213  14.725  65.165  1.00  0.00    -0.418 Cl 
HETATM   21  C   UNL     1     -12.140  13.411  68.415  1.00  0.00    -0.270 A  
ENDBRANCH  12  14
ENDBRANCH  10  12
ENDBRANCH   8  10
ENDBRANCH   5   8
TORSDOF 4
ENDMDL
MODEL      152
REMARK 921   NORMALIZED FREE ENERGY PREDICTED BY IDOCK:   -4.29 KCAL/MOL
REMARK 922        TOTAL FREE ENERGY PREDICTED BY IDOCK:   -5.90 KCAL/MOL
REMARK 923 INTER-LIGAND FREE ENERGY PREDICTED BY IDOCK:   -5.49 KCAL/MOL
REMARK 924 INTRA-LIGAND FREE ENERGY PREDICTED BY IDOCK:   -0.41 KCAL/MOL
REMARK 927      BINDING AFFINITY PREDICTED BY RF-SCORE:    0.00 PKD
ROOT
HETATM    1 CL   UNL     1      -6.996  20.816  66.697  1.00  0.00    -0.327 Cl 
HETATM    2  C   UNL     1      -8.074  19.481  66.812  1.00  0.00    -0.292 A  
HETATM    3  C   UNL     1      -7.646  18.300  67.402  1.00  0.00    -0.219 A  
HETATM    4  C   UNL     1      -8.527  17.221  67.503  1.00  0.00    -0.210 A  
HETATM    5  C   UNL     1      -9.844  17.313  67.032  1.00  0.00    -0.281 A  
HETATM    6  C   UNL     1      -9.371  19.584  66.311  1.00  0.00    -0.431 A  
HETATM    7  C   UNL     1     -10.252  18.497  66.409  1.00  0.00    -0.449 A  
ENDROOT
BRANCH   5   8
HETATM    8  N   UNL     1     -10.771  16.247  67.147  1.00  0.00    -0.288 N  
HETATM    9  H   UNL     1     -11.394  16.238  67.954  1.00  0.00     0.000 HD 
BRANCH   8  10
HETATM   10  C   UNL     1     -10.881  15.217  66.227  1.00  0.00    -0.333 C  
HETATM   11  O   UNL     1     -10.380  15.250  65.107  1.00  0.00    -0.382 OA 
BRANCH  10  12
HETATM   12  N   UNL     1     -11.614  14.140  66.700  1.00  0.00    -0.366 N  
HETATM   13  H   UNL     1     -12.615  14.119  66.508  1.00  0.00     0.000 HD 
BRANCH  12  14
HETATM   14  C   UNL     1     -11.052  13.067  67.436  1.00  0.00    -0.272 A  
HETATM   15  C   UNL     1      -9.755  12.590  67.203  1.00  0.00    -0.205 A  
HETATM   16  C   UNL     1      -9.215  11.551  67.968  1.00  0.00    -0.175 A  
HETATM   17 CL   UNL     1      -7.598  11.051  67.618  1.00  0.00    -0.101 Cl 
HETATM   18  C   UNL     1      -9.984  10.962  68.972  1.00  0.00    -0.191 A  
HETATM   19  C   UNL     1     -11.290  11.408  69.193  1.00  0.00    -0.353 A  
HETATM   20 CL   UNL     1      -9.385   9.681  69.963  1.00  0.00    -0.257 Cl 
HETATM   21  C   UNL     1     -11.827  12.449  68.422  1.00  0.00    -0.361 A  
ENDBRANCH  12  14
ENDBRANCH  10  12
ENDBRANCH   8  10
ENDBRANCH   5   8
TORSDOF 4
ENDMDL
MODEL      153
REMARK 921   NORMALIZED FREE ENERGY PREDICTED BY IDOCK:   -4.28 KCAL/MOL
REMARK 922        TOTAL FREE ENERGY PREDICTED BY IDOCK:   -5.89 KCAL/MOL
REMARK 923 INTER-LIGAND FREE ENERGY PREDICTED BY IDOCK:   -5.40 KCAL/MOL
REMARK 924 INTRA-LIGAND FREE ENERGY PREDICTED BY IDOCK:   -0.49 KCAL/MOL
REMARK 927      BINDING AFFINITY PREDICTED BY RF-SCORE:    0.00 PKD
ROOT
HETATM    1 CL   UNL     1      -7.026  20.978  66.191  1.00  0.00    -0.096 Cl 
HETATM    2  C   UNL     1      -8.262  19.842  66.564  1.00  0.00    -0.331 A  
HETATM    3  C   UNL     1      -9.578  20.268  66.680  1.00  0.00    -0.522 A  
HETATM    4  C   UNL     1     -10.579  19.341  66.974  1.00  0.00    -0.571 A  
HETATM    5  C   UNL     1     -10.284  17.981  67.140  1.00  0.00    -0.360 A  
HETATM    6  C   UNL     1      -7.942  18.498  66.753  1.00  0.00    -0.265 A  
HETATM    7  C   UNL     1      -8.950  17.570  67.053  1.00  0.00    -0.250 A  
ENDROOT
BRANCH   5   8
HETATM    8  N   UNL     1     -11.282  17.010  67.407  1.00  0.00     0.067 N  
HETATM    9  H   UNL     1     -11.962  16.807  66.676  1.00  0.00     0.000 HD 
BRANCH   8  10
HETATM   10  C   UNL     1     -11.387  16.322  68.604  1.00  0.00    -0.333 C  
HETATM   11  O   UNL     1     -11.026  16.779  69.685  1.00  0.00    -0.287 OA 
BRANCH  10  12
HETATM   12  N   UNL     1     -11.942  15.060  68.461  1.00  0.00    -0.544 N  
HETATM   13  H   UNL     1     -12.941  14.953  68.635  1.00  0.00     0.000 HD 
BRANCH  12  14
HETATM   14  C   UNL     1     -11.202  13.911  68.085  1.00  0.00    -0.268 A  
HETATM   15  C   UNL     1      -9.801  13.903  68.027  1.00  0.00    -0.234 A  
HETATM   16  C   UNL     1      -9.096  12.743  67.686  1.00  0.00    -0.193 A  
HETATM   17 CL   UNL     1      -7.370  12.829  67.664  1.00  0.00    -0.130 Cl 
HETATM   18  C   UNL     1      -9.795  11.576  67.379  1.00  0.00    -0.186 A  
HETATM   19  C   UNL     1     -11.192  11.581  67.403  1.00  0.00    -0.367 A  
HETATM   20 CL   UNL     1      -8.995  10.105  66.956  1.00  0.00    -0.144 Cl 
HETATM   21  C   UNL     1     -11.894  12.746  67.745  1.00  0.00    -0.387 A  
ENDBRANCH  12  14
ENDBRANCH  10  12
ENDBRANCH   8  10
ENDBRANCH   5   8
TORSDOF 4
ENDMDL
MODEL      154
REMARK 921   NORMALIZED FREE ENERGY PREDICTED BY IDOCK:   -4.28 KCAL/MOL
REMARK 922        TOTAL FREE ENERGY PREDICTED BY IDOCK:   -5.89 KCAL/MOL
REMARK 923 INTER-LIGAND FREE ENERGY PREDICTED BY IDOCK:   -5.15 KCAL/MOL
REMARK 924 INTRA-LIGAND FREE ENERGY PREDICTED BY IDOCK:   -0.74 KCAL/MOL
REMARK 927      BINDING AFFINITY PREDICTED BY RF-SCORE:    0.00 PKD
ROOT
HETATM    1 CL   UNL     1      -5.682  14.086  71.023  1.00  0.00    -0.201 Cl 
HETATM    2  C   UNL     1      -6.643  14.183  69.600  1.00  0.00    -0.120 A  
HETATM    3  C   UNL     1      -7.179  15.404  69.214  1.00  0.00    -0.186 A  
HETATM    4  C   UNL     1      -7.950  15.481  68.053  1.00  0.00    -0.138 A  
HETATM    5  C   UNL     1      -8.182  14.350  67.258  1.00  0.00    -0.203 A  
HETATM    6  C   UNL     1      -6.884  13.040  68.840  1.00  0.00    -0.099 A  
HETATM    7  C   UNL     1      -7.664  13.121  67.677  1.00  0.00    -0.168 A  
ENDROOT
BRANCH   5   8
HETATM    8  N   UNL     1      -8.935  14.402  66.058  1.00  0.00    -0.446 N  
HETATM    9  H   UNL     1      -8.473  14.131  65.190  1.00  0.00     0.000 HD 
BRANCH   8  10
HETATM   10  C   UNL     1     -10.260  14.800  65.995  1.00  0.00    -0.304 C  
HETATM   11  O   UNL     1     -10.615  15.974  65.938  1.00  0.00    -0.327 OA 
BRANCH  10  12
HETATM   12  N   UNL     1     -11.149  13.737  66.000  1.00  0.00    -0.290 N  
HETATM   13  H   UNL     1     -11.749  13.608  65.186  1.00  0.00     0.000 HD 
BRANCH  12  14
HETATM   14  C   UNL     1     -11.272  12.819  67.073  1.00  0.00    -0.292 A  
HETATM   15  C   UNL     1     -10.928  11.465  66.951  1.00  0.00    -0.355 A  
HETATM   16  C   UNL     1     -11.029  10.590  68.038  1.00  0.00    -0.290 A  
HETATM   17 CL   UNL     1     -10.558   8.946  67.792  1.00  0.00    -0.292 Cl 
HETATM   18  C   UNL     1     -11.497  11.063  69.264  1.00  0.00    -0.300 A  
HETATM   19  C   UNL     1     -11.872  12.404  69.389  1.00  0.00    -0.365 A  
HETATM   20 CL   UNL     1     -11.642  10.046  70.652  1.00  0.00    -0.390 Cl 
HETATM   21  C   UNL     1     -11.771  13.276  68.296  1.00  0.00    -0.388 A  
ENDBRANCH  12  14
ENDBRANCH  10  12
ENDBRANCH   8  10
ENDBRANCH   5   8
TORSDOF 4
ENDMDL
MODEL      155
REMARK 921   NORMALIZED FREE ENERGY PREDICTED BY IDOCK:   -4.28 KCAL/MOL
REMARK 922        TOTAL FREE ENERGY PREDICTED BY IDOCK:   -5.89 KCAL/MOL
REMARK 923 INTER-LIGAND FREE ENERGY PREDICTED BY IDOCK:   -5.55 KCAL/MOL
REMARK 924 INTRA-LIGAND FREE ENERGY PREDICTED BY IDOCK:   -0.34 KCAL/MOL
REMARK 927      BINDING AFFINITY PREDICTED BY RF-SCORE:    0.00 PKD
ROOT
HETATM    1 CL   UNL     1     -10.672   5.494  71.204  1.00  0.00    -0.306 Cl 
HETATM    2  C   UNL     1     -10.593   7.082  70.550  1.00  0.00    -0.224 A  
HETATM    3  C   UNL     1     -11.243   8.126  71.194  1.00  0.00    -0.289 A  
HETATM    4  C   UNL     1     -11.168   9.416  70.665  1.00  0.00    -0.345 A  
HETATM    5  C   UNL     1     -10.435   9.682  69.501  1.00  0.00    -0.224 A  
HETATM    6  C   UNL     1      -9.880   7.320  69.375  1.00  0.00    -0.163 A  
HETATM    7  C   UNL     1      -9.812   8.616  68.844  1.00  0.00    -0.184 A  
ENDROOT
BRANCH   5   8
HETATM    8  N   UNL     1     -10.314  10.985  68.957  1.00  0.00    -0.224 N  
HETATM    9  H   UNL     1      -9.704  11.650  69.433  1.00  0.00     0.000 HD 
BRANCH   8  10
HETATM   10  C   UNL     1     -10.975  11.409  67.816  1.00  0.00    -0.247 C  
HETATM   11  O   UNL     1     -10.771  10.942  66.699  1.00  0.00    -0.255 OA 
BRANCH  10  12
HETATM   12  N   UNL     1     -11.895  12.416  68.061  1.00  0.00    -0.352 N  
HETATM   13  H   UNL     1     -12.887  12.180  68.026  1.00  0.00     0.000 HD 
BRANCH  12  14
HETATM   14  C   UNL     1     -11.537  13.755  68.359  1.00  0.00    -0.334 A  
HETATM   15  C   UNL     1     -11.784  14.342  69.608  1.00  0.00    -0.362 A  
HETATM   16  C   UNL     1     -11.388  15.655  69.883  1.00  0.00    -0.337 A  
HETATM   17 CL   UNL     1     -11.717  16.279  71.461  1.00  0.00    -0.517 Cl 
HETATM   18  C   UNL     1     -10.753  16.406  68.895  1.00  0.00    -0.319 A  
HETATM   19  C   UNL     1     -10.529  15.842  67.636  1.00  0.00    -0.282 A  
HETATM   20 CL   UNL     1     -10.229  18.030  69.162  1.00  0.00    -0.278 Cl 
HETATM   21  C   UNL     1     -10.929  14.525  67.364  1.00  0.00    -0.306 A  
ENDBRANCH  12  14
ENDBRANCH  10  12
ENDBRANCH   8  10
ENDBRANCH   5   8
TORSDOF 4
ENDMDL
MODEL      156
REMARK 921   NORMALIZED FREE ENERGY PREDICTED BY IDOCK:   -4.27 KCAL/MOL
REMARK 922        TOTAL FREE ENERGY PREDICTED BY IDOCK:   -5.88 KCAL/MOL
REMARK 923 INTER-LIGAND FREE ENERGY PREDICTED BY IDOCK:   -6.14 KCAL/MOL
REMARK 924 INTRA-LIGAND FREE ENERGY PREDICTED BY IDOCK:    0.26 KCAL/MOL
REMARK 927      BINDING AFFINITY PREDICTED BY RF-SCORE:    0.00 PKD
ROOT
HETATM    1 CL   UNL     1     -12.102   8.345  71.262  1.00  0.00    -0.315 Cl 
HETATM    2  C   UNL     1     -12.305  10.049  71.144  1.00  0.00    -0.377 A  
HETATM    3  C   UNL     1     -11.678  10.748  70.121  1.00  0.00    -0.425 A  
HETATM    4  C   UNL     1     -11.854  12.129  70.022  1.00  0.00    -0.383 A  
HETATM    5  C   UNL     1     -12.664  12.826  70.929  1.00  0.00    -0.192 A  
HETATM    6  C   UNL     1     -13.094  10.726  72.073  1.00  0.00    -0.476 A  
HETATM    7  C   UNL     1     -13.263  12.114  71.974  1.00  0.00    -0.496 A  
ENDROOT
BRANCH   5   8
HETATM    8  N   UNL     1     -12.887  14.222  70.837  1.00  0.00    -0.343 N  
HETATM    9  H   UNL     1     -13.848  14.560  70.895  1.00  0.00     0.000 HD 
BRANCH   8  10
HETATM   10  C   UNL     1     -11.877  15.155  70.672  1.00  0.00    -0.325 C  
HETATM   11  O   UNL     1     -11.977  16.331  71.009  1.00  0.00    -0.339 OA 
BRANCH  10  12
HETATM   12  N   UNL     1     -10.736  14.627  70.089  1.00  0.00    -0.472 N  
HETATM   13  H   UNL     1     -10.433  13.699  70.383  1.00  0.00     0.000 HD 
BRANCH  12  14
HETATM   14  C   UNL     1      -9.968  15.302  69.108  1.00  0.00    -0.238 A  
HETATM   15  C   UNL     1     -10.435  15.522  67.804  1.00  0.00    -0.273 A  
HETATM   16  C   UNL     1      -9.667  16.222  66.867  1.00  0.00    -0.238 A  
HETATM   17 CL   UNL     1     -10.341  16.461  65.294  1.00  0.00    -0.285 Cl 
HETATM   18  C   UNL     1      -8.405  16.695  67.224  1.00  0.00    -0.176 A  
HETATM   19  C   UNL     1      -7.916  16.455  68.512  1.00  0.00    -0.203 A  
HETATM   20 CL   UNL     1      -7.402  17.573  66.126  1.00  0.00    -0.350 Cl 
HETATM   21  C   UNL     1      -8.689  15.751  69.447  1.00  0.00    -0.230 A  
ENDBRANCH  12  14
ENDBRANCH  10  12
ENDBRANCH   8  10
ENDBRANCH   5   8
TORSDOF 4
ENDMDL
MODEL      157
REMARK 921   NORMALIZED FREE ENERGY PREDICTED BY IDOCK:   -4.27 KCAL/MOL
REMARK 922        TOTAL FREE ENERGY PREDICTED BY IDOCK:   -5.88 KCAL/MOL
REMARK 923 INTER-LIGAND FREE ENERGY PREDICTED BY IDOCK:   -5.45 KCAL/MOL
REMARK 924 INTRA-LIGAND FREE ENERGY PREDICTED BY IDOCK:   -0.43 KCAL/MOL
REMARK 927      BINDING AFFINITY PREDICTED BY RF-SCORE:    0.00 PKD
ROOT
HETATM    1 CL   UNL     1      -6.260   9.516  64.061  1.00  0.00    -0.093 Cl 
HETATM    2  C   UNL     1      -7.684   9.775  64.989  1.00  0.00    -0.126 A  
HETATM    3  C   UNL     1      -8.793  10.367  64.399  1.00  0.00    -0.223 A  
HETATM    4  C   UNL     1      -9.951  10.566  65.153  1.00  0.00    -0.375 A  
HETATM    5  C   UNL     1     -10.022  10.166  66.495  1.00  0.00    -0.224 A  
HETATM    6  C   UNL     1      -7.724   9.394  66.330  1.00  0.00    -0.097 A  
HETATM    7  C   UNL     1      -8.888   9.601  67.085  1.00  0.00    -0.141 A  
ENDROOT
BRANCH   5   8
HETATM    8  N   UNL     1     -11.193  10.326  67.278  1.00  0.00    -0.229 N  
HETATM    9  H   UNL     1     -11.833   9.536  67.351  1.00  0.00     0.000 HD 
BRANCH   8  10
HETATM   10  C   UNL     1     -11.519  11.493  67.949  1.00  0.00    -0.301 C  
HETATM   11  O   UNL     1     -12.217  12.381  67.468  1.00  0.00    -0.442 OA 
BRANCH  10  12
HETATM   12  N   UNL     1     -10.976  11.559  69.222  1.00  0.00    -0.327 N  
HETATM   13  H   UNL     1     -10.505  12.420  69.500  1.00  0.00     0.000 HD 
BRANCH  12  14
HETATM   14  C   UNL     1     -11.039  10.499  70.161  1.00  0.00    -0.298 A  
HETATM   15  C   UNL     1     -12.183  10.237  70.927  1.00  0.00    -0.465 A  
HETATM   16  C   UNL     1     -12.228   9.162  71.822  1.00  0.00    -0.372 A  
HETATM   17 CL   UNL     1     -13.692   8.909  72.703  1.00  0.00    -0.454 Cl 
HETATM   18  C   UNL     1     -11.109   8.343  71.972  1.00  0.00    -0.327 A  
HETATM   19  C   UNL     1      -9.951   8.613  71.236  1.00  0.00    -0.315 A  
HETATM   20 CL   UNL     1     -11.089   6.994  73.049  1.00  0.00    -0.310 Cl 
HETATM   21  C   UNL     1      -9.912   9.693  70.342  1.00  0.00    -0.330 A  
ENDBRANCH  12  14
ENDBRANCH  10  12
ENDBRANCH   8  10
ENDBRANCH   5   8
TORSDOF 4
ENDMDL
MODEL      158
REMARK 921   NORMALIZED FREE ENERGY PREDICTED BY IDOCK:   -4.25 KCAL/MOL
REMARK 922        TOTAL FREE ENERGY PREDICTED BY IDOCK:   -5.85 KCAL/MOL
REMARK 923 INTER-LIGAND FREE ENERGY PREDICTED BY IDOCK:   -5.48 KCAL/MOL
REMARK 924 INTRA-LIGAND FREE ENERGY PREDICTED BY IDOCK:   -0.37 KCAL/MOL
REMARK 927      BINDING AFFINITY PREDICTED BY RF-SCORE:    0.00 PKD
ROOT
HETATM    1 CL   UNL     1     -14.097   8.939  72.574  1.00  0.00    -0.506 Cl 
HETATM    2  C   UNL     1     -12.679   9.113  71.616  1.00  0.00    -0.358 A  
HETATM    3  C   UNL     1     -12.613  10.116  70.659  1.00  0.00    -0.353 A  
HETATM    4  C   UNL     1     -11.456  10.261  69.891  1.00  0.00    -0.340 A  
HETATM    5  C   UNL     1     -10.350   9.420  70.078  1.00  0.00    -0.233 A  
HETATM    6  C   UNL     1     -11.601   8.248  71.800  1.00  0.00    -0.356 A  
HETATM    7  C   UNL     1     -10.443   8.393  71.023  1.00  0.00    -0.251 A  
ENDROOT
BRANCH   5   8
HETATM    8  N   UNL     1      -9.151   9.561  69.336  1.00  0.00    -0.157 N  
HETATM    9  H   UNL     1      -9.034   8.990  68.499  1.00  0.00     0.000 HD 
BRANCH   8  10
HETATM   10  C   UNL     1      -8.128  10.428  69.681  1.00  0.00    -0.103 C  
HETATM   11  O   UNL     1      -7.388  10.256  70.645  1.00  0.00    -0.267 OA 
BRANCH  10  12
HETATM   12  N   UNL     1      -8.021  11.513  68.825  1.00  0.00    -0.248 N  
HETATM   13  H   UNL     1      -7.129  12.005  68.783  1.00  0.00     0.000 HD 
BRANCH  12  14
HETATM   14  C   UNL     1      -9.080  11.977  68.006  1.00  0.00    -0.188 A  
HETATM   15  C   UNL     1      -9.343  11.442  66.737  1.00  0.00    -0.192 A  
HETATM   16  C   UNL     1     -10.417  11.898  65.965  1.00  0.00    -0.245 A  
HETATM   17 CL   UNL     1     -10.669  11.158  64.423  1.00  0.00    -0.411 Cl 
HETATM   18  C   UNL     1     -11.234  12.916  66.453  1.00  0.00    -0.300 A  
HETATM   19  C   UNL     1     -10.965  13.479  67.704  1.00  0.00    -0.280 A  
HETATM   20 CL   UNL     1     -12.583  13.526  65.563  1.00  0.00    -0.533 Cl 
HETATM   21  C   UNL     1      -9.886  13.019  68.474  1.00  0.00    -0.153 A  
ENDBRANCH  12  14
ENDBRANCH  10  12
ENDBRANCH   8  10
ENDBRANCH   5   8
TORSDOF 4
ENDMDL
MODEL      159
REMARK 921   NORMALIZED FREE ENERGY PREDICTED BY IDOCK:   -4.23 KCAL/MOL
REMARK 922        TOTAL FREE ENERGY PREDICTED BY IDOCK:   -5.83 KCAL/MOL
REMARK 923 INTER-LIGAND FREE ENERGY PREDICTED BY IDOCK:   -5.10 KCAL/MOL
REMARK 924 INTRA-LIGAND FREE ENERGY PREDICTED BY IDOCK:   -0.73 KCAL/MOL
REMARK 927      BINDING AFFINITY PREDICTED BY RF-SCORE:    0.00 PKD
ROOT
HETATM    1 CL   UNL     1      -5.398  11.495  70.439  1.00  0.00    -0.103 Cl 
HETATM    2  C   UNL     1      -6.750  11.507  69.377  1.00  0.00    -0.116 A  
HETATM    3  C   UNL     1      -6.891  12.532  68.451  1.00  0.00    -0.085 A  
HETATM    4  C   UNL     1      -7.984  12.532  67.584  1.00  0.00    -0.170 A  
HETATM    5  C   UNL     1      -8.939  11.506  67.618  1.00  0.00    -0.160 A  
HETATM    6  C   UNL     1      -7.703  10.491  69.447  1.00  0.00    -0.157 A  
HETATM    7  C   UNL     1      -8.803  10.497  68.577  1.00  0.00    -0.144 A  
ENDROOT
BRANCH   5   8
HETATM    8  N   UNL     1     -10.043  11.461  66.731  1.00  0.00    -0.211 N  
HETATM    9  H   UNL     1      -9.896  11.070  65.801  1.00  0.00     0.000 HD 
BRANCH   8  10
HETATM   10  C   UNL     1     -11.311  11.918  67.052  1.00  0.00    -0.329 C  
HETATM   11  O   UNL     1     -12.107  11.285  67.739  1.00  0.00    -0.631 OA 
BRANCH  10  12
HETATM   12  N   UNL     1     -11.591  13.167  66.521  1.00  0.00    -0.339 N  
HETATM   13  H   UNL     1     -12.081  13.210  65.628  1.00  0.00     0.000 HD 
BRANCH  12  14
HETATM   14  C   UNL     1     -11.237  14.388  67.148  1.00  0.00    -0.328 A  
HETATM   15  C   UNL     1     -11.554  14.669  68.484  1.00  0.00    -0.346 A  
HETATM   16  C   UNL     1     -11.161  15.869  69.086  1.00  0.00    -0.302 A  
HETATM   17 CL   UNL     1     -11.581  16.112  70.745  1.00  0.00    -0.414 Cl 
HETATM   18  C   UNL     1     -10.456  16.815  68.343  1.00  0.00    -0.339 A  
HETATM   19  C   UNL     1     -10.160  16.559  67.001  1.00  0.00    -0.279 A  
HETATM   20 CL   UNL     1      -9.930  18.316  69.018  1.00  0.00    -0.343 Cl 
HETATM   21  C   UNL     1     -10.558  15.355  66.402  1.00  0.00    -0.307 A  
ENDBRANCH  12  14
ENDBRANCH  10  12
ENDBRANCH   8  10
ENDBRANCH   5   8
TORSDOF 4
ENDMDL
MODEL      160
REMARK 921   NORMALIZED FREE ENERGY PREDICTED BY IDOCK:   -4.23 KCAL/MOL
REMARK 922        TOTAL FREE ENERGY PREDICTED BY IDOCK:   -5.83 KCAL/MOL
REMARK 923 INTER-LIGAND FREE ENERGY PREDICTED BY IDOCK:   -5.18 KCAL/MOL
REMARK 924 INTRA-LIGAND FREE ENERGY PREDICTED BY IDOCK:   -0.64 KCAL/MOL
REMARK 927      BINDING AFFINITY PREDICTED BY RF-SCORE:    0.00 PKD
ROOT
HETATM    1 CL   UNL     1     -10.162  17.535  65.962  1.00  0.00    -0.336 Cl 
HETATM    2  C   UNL     1     -10.486  15.913  65.489  1.00  0.00    -0.404 A  
HETATM    3  C   UNL     1     -11.433  15.658  64.507  1.00  0.00    -0.304 A  
HETATM    4  C   UNL     1     -11.685  14.341  64.119  1.00  0.00    -0.279 A  
HETATM    5  C   UNL     1     -10.989  13.268  64.692  1.00  0.00    -0.370 A  
HETATM    6  C   UNL     1      -9.801  14.859  66.093  1.00  0.00    -0.332 A  
HETATM    7  C   UNL     1     -10.061  13.537  65.704  1.00  0.00    -0.292 A  
ENDROOT
BRANCH   5   8
HETATM    8  N   UNL     1     -11.200  11.923  64.298  1.00  0.00    -0.342 N  
HETATM    9  H   UNL     1     -12.131  11.526  64.426  1.00  0.00     0.000 HD 
BRANCH   8  10
HETATM   10  C   UNL     1     -10.217  11.116  63.750  1.00  0.00    -0.377 C  
HETATM   11  O   UNL     1      -9.573  11.416  62.749  1.00  0.00    -0.357 OA 
BRANCH  10  12
HETATM   12  N   UNL     1     -10.030   9.934  64.447  1.00  0.00    -0.429 N  
HETATM   13  H   UNL     1     -10.054   9.059  63.924  1.00  0.00     0.000 HD 
BRANCH  12  14
HETATM   14  C   UNL     1      -9.809   9.870  65.846  1.00  0.00    -0.274 A  
HETATM   15  C   UNL     1      -8.684  10.439  66.458  1.00  0.00    -0.143 A  
HETATM   16  C   UNL     1      -8.509  10.390  67.845  1.00  0.00    -0.114 A  
HETATM   17 CL   UNL     1      -7.100  11.142  68.505  1.00  0.00    -0.074 Cl 
HETATM   18  C   UNL     1      -9.460   9.748  68.638  1.00  0.00    -0.151 A  
HETATM   19  C   UNL     1     -10.571   9.150  68.036  1.00  0.00    -0.253 A  
HETATM   20 CL   UNL     1      -9.319   9.653  70.356  1.00  0.00    -0.301 Cl 
HETATM   21  C   UNL     1     -10.740   9.201  66.645  1.00  0.00    -0.049 A  
ENDBRANCH  12  14
ENDBRANCH  10  12
ENDBRANCH   8  10
ENDBRANCH   5   8
TORSDOF 4
ENDMDL
MODEL      161
REMARK 921   NORMALIZED FREE ENERGY PREDICTED BY IDOCK:   -4.23 KCAL/MOL
REMARK 922        TOTAL FREE ENERGY PREDICTED BY IDOCK:   -5.82 KCAL/MOL
REMARK 923 INTER-LIGAND FREE ENERGY PREDICTED BY IDOCK:   -5.16 KCAL/MOL
REMARK 924 INTRA-LIGAND FREE ENERGY PREDICTED BY IDOCK:   -0.67 KCAL/MOL
REMARK 927      BINDING AFFINITY PREDICTED BY RF-SCORE:    0.00 PKD
ROOT
HETATM    1 CL   UNL     1      -5.153  13.505  68.135  1.00  0.00    -0.098 Cl 
HETATM    2  C   UNL     1      -6.353  14.725  68.296  1.00  0.00    -0.122 A  
HETATM    3  C   UNL     1      -6.432  15.743  67.356  1.00  0.00    -0.193 A  
HETATM    4  C   UNL     1      -7.415  16.726  67.485  1.00  0.00    -0.181 A  
HETATM    5  C   UNL     1      -8.337  16.698  68.541  1.00  0.00    -0.228 A  
HETATM    6  C   UNL     1      -7.243  14.693  69.370  1.00  0.00    -0.146 A  
HETATM    7  C   UNL     1      -8.226  15.685  69.499  1.00  0.00    -0.175 A  
ENDROOT
BRANCH   5   8
HETATM    8  N   UNL     1      -9.366  17.663  68.682  1.00  0.00    -0.282 N  
HETATM    9  H   UNL     1      -9.274  18.357  69.423  1.00  0.00     0.000 HD 
BRANCH   8  10
HETATM   10  C   UNL     1     -10.488  17.719  67.872  1.00  0.00    -0.397 C  
HETATM   11  O   UNL     1     -10.799  18.705  67.210  1.00  0.00    -0.426 OA 
BRANCH  10  12
HETATM   12  N   UNL     1     -11.226  16.546  67.881  1.00  0.00    -0.227 N  
HETATM   13  H   UNL     1     -11.975  16.455  68.567  1.00  0.00     0.000 HD 
BRANCH  12  14
HETATM   14  C   UNL     1     -10.999  15.465  66.993  1.00  0.00    -0.306 A  
HETATM   15  C   UNL     1     -11.179  14.127  67.371  1.00  0.00    -0.334 A  
HETATM   16  C   UNL     1     -10.980  13.083  66.461  1.00  0.00    -0.285 A  
HETATM   17 CL   UNL     1     -11.252  11.470  67.018  1.00  0.00    -0.360 Cl 
HETATM   18  C   UNL     1     -10.576  13.370  65.158  1.00  0.00    -0.343 A  
HETATM   19  C   UNL     1     -10.363  14.699  64.778  1.00  0.00    -0.286 A  
HETATM   20 CL   UNL     1     -10.317  12.137  63.977  1.00  0.00    -0.377 Cl 
HETATM   21  C   UNL     1     -10.562  15.742  65.694  1.00  0.00    -0.393 A  
ENDBRANCH  12  14
ENDBRANCH  10  12
ENDBRANCH   8  10
ENDBRANCH   5   8
TORSDOF 4
ENDMDL
MODEL      162
REMARK 921   NORMALIZED FREE ENERGY PREDICTED BY IDOCK:   -4.22 KCAL/MOL
REMARK 922        TOTAL FREE ENERGY PREDICTED BY IDOCK:   -5.82 KCAL/MOL
REMARK 923 INTER-LIGAND FREE ENERGY PREDICTED BY IDOCK:   -5.24 KCAL/MOL
REMARK 924 INTRA-LIGAND FREE ENERGY PREDICTED BY IDOCK:   -0.58 KCAL/MOL
REMARK 927      BINDING AFFINITY PREDICTED BY RF-SCORE:    0.00 PKD
ROOT
HETATM    1 CL   UNL     1     -12.360  11.818  63.085  1.00  0.00    -0.472 Cl 
HETATM    2  C   UNL     1     -11.865  12.872  64.350  1.00  0.00    -0.383 A  
HETATM    3  C   UNL     1     -10.690  13.601  64.219  1.00  0.00    -0.280 A  
HETATM    4  C   UNL     1     -10.297  14.464  65.244  1.00  0.00    -0.427 A  
HETATM    5  C   UNL     1     -11.074  14.621  66.400  1.00  0.00    -0.334 A  
HETATM    6  C   UNL     1     -12.639  12.992  65.504  1.00  0.00    -0.422 A  
HETATM    7  C   UNL     1     -12.238  13.856  66.533  1.00  0.00    -0.482 A  
ENDROOT
BRANCH   5   8
HETATM    8  N   UNL     1     -10.718  15.511  67.444  1.00  0.00    -0.297 N  
HETATM    9  H   UNL     1     -11.270  16.361  67.559  1.00  0.00     0.000 HD 
BRANCH   8  10
HETATM   10  C   UNL     1      -9.665  15.295  68.317  1.00  0.00    -0.210 C  
HETATM   11  O   UNL     1      -8.795  16.128  68.552  1.00  0.00    -0.184 OA 
BRANCH  10  12
HETATM   12  N   UNL     1      -9.691  14.039  68.902  1.00  0.00    -0.405 N  
HETATM   13  H   UNL     1     -10.098  13.951  69.833  1.00  0.00     0.000 HD 
BRANCH  12  14
HETATM   14  C   UNL     1      -9.186  12.869  68.281  1.00  0.00    -0.187 A  
HETATM   15  C   UNL     1      -9.902  11.664  68.246  1.00  0.00    -0.199 A  
HETATM   16  C   UNL     1      -9.392  10.536  67.596  1.00  0.00    -0.149 A  
HETATM   17 CL   UNL     1     -10.362   9.105  67.589  1.00  0.00    -0.296 Cl 
HETATM   18  C   UNL     1      -8.140  10.598  66.985  1.00  0.00    -0.120 A  
HETATM   19  C   UNL     1      -7.403  11.785  67.039  1.00  0.00    -0.133 A  
HETATM   20 CL   UNL     1      -7.447   9.250  66.157  1.00  0.00    -0.095 Cl 
HETATM   21  C   UNL     1      -7.919  12.913  67.694  1.00  0.00    -0.167 A  
ENDBRANCH  12  14
ENDBRANCH  10  12
ENDBRANCH   8  10
ENDBRANCH   5   8
TORSDOF 4
ENDMDL
MODEL      163
REMARK 921   NORMALIZED FREE ENERGY PREDICTED BY IDOCK:   -4.22 KCAL/MOL
REMARK 922        TOTAL FREE ENERGY PREDICTED BY IDOCK:   -5.82 KCAL/MOL
REMARK 923 INTER-LIGAND FREE ENERGY PREDICTED BY IDOCK:   -5.36 KCAL/MOL
REMARK 924 INTRA-LIGAND FREE ENERGY PREDICTED BY IDOCK:   -0.46 KCAL/MOL
REMARK 927      BINDING AFFINITY PREDICTED BY RF-SCORE:    0.00 PKD
ROOT
HETATM    1 CL   UNL     1      -6.355  16.928  67.473  1.00  0.00    -0.163 Cl 
HETATM    2  C   UNL     1      -7.388  15.570  67.264  1.00  0.00    -0.214 A  
HETATM    3  C   UNL     1      -8.684  15.755  66.802  1.00  0.00    -0.305 A  
HETATM    4  C   UNL     1      -9.517  14.648  66.623  1.00  0.00    -0.297 A  
HETATM    5  C   UNL     1      -9.064  13.348  66.887  1.00  0.00    -0.231 A  
HETATM    6  C   UNL     1      -6.926  14.287  67.559  1.00  0.00    -0.177 A  
HETATM    7  C   UNL     1      -7.767  13.179  67.383  1.00  0.00    -0.151 A  
ENDROOT
BRANCH   5   8
HETATM    8  N   UNL     1      -9.874  12.203  66.686  1.00  0.00    -0.207 N  
HETATM    9  H   UNL     1      -9.561  11.506  66.011  1.00  0.00     0.000 HD 
BRANCH   8  10
HETATM   10  C   UNL     1     -11.067  11.975  67.353  1.00  0.00    -0.281 C  
HETATM   11  O   UNL     1     -12.154  11.891  66.790  1.00  0.00    -0.593 OA 
BRANCH  10  12
HETATM   12  N   UNL     1     -10.909  11.848  68.724  1.00  0.00    -0.224 N  
HETATM   13  H   UNL     1     -10.580  12.659  69.247  1.00  0.00     0.000 HD 
BRANCH  12  14
HETATM   14  C   UNL     1     -11.177  10.655  69.441  1.00  0.00    -0.270 A  
HETATM   15  C   UNL     1     -12.175  10.573  70.422  1.00  0.00    -0.415 A  
HETATM   16  C   UNL     1     -12.440   9.372  71.090  1.00  0.00    -0.293 A  
HETATM   17 CL   UNL     1     -13.706   9.369  72.266  1.00  0.00    -0.510 Cl 
HETATM   18  C   UNL     1     -11.688   8.236  70.791  1.00  0.00    -0.202 A  
HETATM   19  C   UNL     1     -10.670   8.313  69.836  1.00  0.00    -0.234 A  
HETATM   20 CL   UNL     1     -11.961   6.717  71.566  1.00  0.00    -0.375 Cl 
HETATM   21  C   UNL     1     -10.407   9.520  69.171  1.00  0.00    -0.218 A  
ENDBRANCH  12  14
ENDBRANCH  10  12
ENDBRANCH   8  10
ENDBRANCH   5   8
TORSDOF 4
ENDMDL
MODEL      164
REMARK 921   NORMALIZED FREE ENERGY PREDICTED BY IDOCK:   -4.22 KCAL/MOL
REMARK 922        TOTAL FREE ENERGY PREDICTED BY IDOCK:   -5.81 KCAL/MOL
REMARK 923 INTER-LIGAND FREE ENERGY PREDICTED BY IDOCK:   -5.18 KCAL/MOL
REMARK 924 INTRA-LIGAND FREE ENERGY PREDICTED BY IDOCK:   -0.64 KCAL/MOL
REMARK 927      BINDING AFFINITY PREDICTED BY RF-SCORE:    0.00 PKD
ROOT
HETATM    1 CL   UNL     1      -7.325  10.512  68.466  1.00  0.00    -0.084 Cl 
HETATM    2  C   UNL     1      -8.624  10.126  69.525  1.00  0.00    -0.164 A  
HETATM    3  C   UNL     1      -8.394   9.318  70.631  1.00  0.00    -0.245 A  
HETATM    4  C   UNL     1      -9.449   9.016  71.494  1.00  0.00    -0.316 A  
HETATM    5  C   UNL     1     -10.737   9.524  71.274  1.00  0.00    -0.316 A  
HETATM    6  C   UNL     1      -9.903  10.619  69.272  1.00  0.00    -0.201 A  
HETATM    7  C   UNL     1     -10.961  10.309  70.138  1.00  0.00    -0.377 A  
ENDROOT
BRANCH   5   8
HETATM    8  N   UNL     1     -11.821   9.261  72.149  1.00  0.00    -0.283 N  
HETATM    9  H   UNL     1     -11.841   9.743  73.047  1.00  0.00     0.000 HD 
BRANCH   8  10
HETATM   10  C   UNL     1     -12.854   8.387  71.854  1.00  0.00    -0.353 C  
HETATM   11  O   UNL     1     -13.931   8.742  71.385  1.00  0.00    -0.362 OA 
BRANCH  10  12
HETATM   12  N   UNL     1     -12.550   7.066  72.143  1.00  0.00    -0.524 N  
HETATM   13  H   UNL     1     -12.971   6.646  72.971  1.00  0.00     0.000 HD 
BRANCH  12  14
HETATM   14  C   UNL     1     -11.686   6.266  71.353  1.00  0.00    -0.254 A  
HETATM   15  C   UNL     1     -10.851   5.286  71.906  1.00  0.00    -0.218 A  
HETATM   16  C   UNL     1     -10.034   4.488  71.098  1.00  0.00    -0.187 A  
HETATM   17 CL   UNL     1      -9.058   3.292  71.874  1.00  0.00    -0.152 Cl 
HETATM   18  C   UNL     1     -10.033   4.679  69.717  1.00  0.00    -0.225 A  
HETATM   19  C   UNL     1     -10.839   5.674  69.156  1.00  0.00    -0.281 A  
HETATM   20 CL   UNL     1      -9.058   3.729  68.653  1.00  0.00    -0.181 Cl 
HETATM   21  C   UNL     1     -11.654   6.472  69.971  1.00  0.00    -0.455 A  
ENDBRANCH  12  14
ENDBRANCH  10  12
ENDBRANCH   8  10
ENDBRANCH   5   8
TORSDOF 4
ENDMDL
MODEL      165
REMARK 921   NORMALIZED FREE ENERGY PREDICTED BY IDOCK:   -4.21 KCAL/MOL
REMARK 922        TOTAL FREE ENERGY PREDICTED BY IDOCK:   -5.81 KCAL/MOL
REMARK 923 INTER-LIGAND FREE ENERGY PREDICTED BY IDOCK:   -5.47 KCAL/MOL
REMARK 924 INTRA-LIGAND FREE ENERGY PREDICTED BY IDOCK:   -0.34 KCAL/MOL
REMARK 927      BINDING AFFINITY PREDICTED BY RF-SCORE:    0.00 PKD
ROOT
HETATM    1 CL   UNL     1      -9.064   7.863  73.583  1.00  0.00    -0.341 Cl 
HETATM    2  C   UNL     1      -9.869   8.542  72.224  1.00  0.00    -0.313 A  
HETATM    3  C   UNL     1      -9.131   8.963  71.126  1.00  0.00    -0.315 A  
HETATM    4  C   UNL     1      -9.789   9.504  70.020  1.00  0.00    -0.269 A  
HETATM    5  C   UNL     1     -11.186   9.619  69.990  1.00  0.00    -0.231 A  
HETATM    6  C   UNL     1     -11.257   8.673  72.226  1.00  0.00    -0.399 A  
HETATM    7  C   UNL     1     -11.914   9.222  71.116  1.00  0.00    -0.394 A  
ENDROOT
BRANCH   5   8
HETATM    8  N   UNL     1     -11.886  10.135  68.870  1.00  0.00    -0.487 N  
HETATM    9  H   UNL     1     -12.894   9.990  68.826  1.00  0.00     0.000 HD 
BRANCH   8  10
HETATM   10  C   UNL     1     -11.280  10.826  67.833  1.00  0.00    -0.318 C  
HETATM   11  O   UNL     1     -10.555  10.295  66.997  1.00  0.00    -0.248 OA 
BRANCH  10  12
HETATM   12  N   UNL     1     -11.576  12.179  67.833  1.00  0.00    -0.333 N  
HETATM   13  H   UNL     1     -12.541  12.460  68.008  1.00  0.00     0.000 HD 
BRANCH  12  14
HETATM   14  C   UNL     1     -10.615  13.196  67.605  1.00  0.00    -0.228 A  
HETATM   15  C   UNL     1      -9.372  13.218  68.251  1.00  0.00    -0.205 A  
HETATM   16  C   UNL     1      -8.430  14.216  67.980  1.00  0.00    -0.171 A  
HETATM   17 CL   UNL     1      -6.917  14.141  68.812  1.00  0.00    -0.099 Cl 
HETATM   18  C   UNL     1      -8.735  15.222  67.064  1.00  0.00    -0.234 A  
HETATM   19  C   UNL     1      -9.984  15.229  66.436  1.00  0.00    -0.291 A  
HETATM   20 CL   UNL     1      -7.623  16.483  66.672  1.00  0.00    -0.293 Cl 
HETATM   21  C   UNL     1     -10.925  14.226  66.713  1.00  0.00    -0.304 A  
ENDBRANCH  12  14
ENDBRANCH  10  12
ENDBRANCH   8  10
ENDBRANCH   5   8
TORSDOF 4
ENDMDL
MODEL      166
REMARK 921   NORMALIZED FREE ENERGY PREDICTED BY IDOCK:   -4.19 KCAL/MOL
REMARK 922        TOTAL FREE ENERGY PREDICTED BY IDOCK:   -5.78 KCAL/MOL
REMARK 923 INTER-LIGAND FREE ENERGY PREDICTED BY IDOCK:   -5.16 KCAL/MOL
REMARK 924 INTRA-LIGAND FREE ENERGY PREDICTED BY IDOCK:   -0.62 KCAL/MOL
REMARK 927      BINDING AFFINITY PREDICTED BY RF-SCORE:    0.00 PKD
ROOT
HETATM    1 CL   UNL     1      -5.758  14.128  70.960  1.00  0.00    -0.199 Cl 
HETATM    2  C   UNL     1      -6.575  14.769  69.590  1.00  0.00    -0.161 A  
HETATM    3  C   UNL     1      -6.950  16.106  69.575  1.00  0.00    -0.186 A  
HETATM    4  C   UNL     1      -7.604  16.625  68.457  1.00  0.00    -0.212 A  
HETATM    5  C   UNL     1      -7.879  15.826  67.339  1.00  0.00    -0.175 A  
HETATM    6  C   UNL     1      -6.863  13.949  68.500  1.00  0.00    -0.098 A  
HETATM    7  C   UNL     1      -7.525  14.473  67.380  1.00  0.00    -0.194 A  
ENDROOT
BRANCH   5   8
HETATM    8  N   UNL     1      -8.513  16.331  66.176  1.00  0.00    -0.327 N  
HETATM    9  H   UNL     1      -8.021  16.251  65.287  1.00  0.00     0.000 HD 
BRANCH   8  10
HETATM   10  C   UNL     1      -9.764  16.927  66.177  1.00  0.00    -0.272 C  
HETATM   11  O   UNL     1      -9.962  18.087  66.528  1.00  0.00    -0.334 OA 
BRANCH  10  12
HETATM   12  N   UNL     1     -10.771  16.082  65.740  1.00  0.00    -0.325 N  
HETATM   13  H   UNL     1     -11.435  16.441  65.054  1.00  0.00     0.000 HD 
BRANCH  12  14
HETATM   14  C   UNL     1     -10.932  14.748  66.193  1.00  0.00    -0.332 A  
HETATM   15  C   UNL     1     -10.521  13.641  65.438  1.00  0.00    -0.333 A  
HETATM   16  C   UNL     1     -10.661  12.337  65.925  1.00  0.00    -0.258 A  
HETATM   17 CL   UNL     1     -10.102  11.042  64.928  1.00  0.00    -0.333 Cl 
HETATM   18  C   UNL     1     -11.239  12.128  67.177  1.00  0.00    -0.314 A  
HETATM   19  C   UNL     1     -11.681  13.222  67.926  1.00  0.00    -0.395 A  
HETATM   20 CL   UNL     1     -11.439  10.550  67.849  1.00  0.00    -0.305 Cl 
HETATM   21  C   UNL     1     -11.538  14.527  67.432  1.00  0.00    -0.406 A  
ENDBRANCH  12  14
ENDBRANCH  10  12
ENDBRANCH   8  10
ENDBRANCH   5   8
TORSDOF 4
ENDMDL
MODEL      167
REMARK 921   NORMALIZED FREE ENERGY PREDICTED BY IDOCK:   -4.17 KCAL/MOL
REMARK 922        TOTAL FREE ENERGY PREDICTED BY IDOCK:   -5.76 KCAL/MOL
REMARK 923 INTER-LIGAND FREE ENERGY PREDICTED BY IDOCK:   -6.19 KCAL/MOL
REMARK 924 INTRA-LIGAND FREE ENERGY PREDICTED BY IDOCK:    0.44 KCAL/MOL
REMARK 927      BINDING AFFINITY PREDICTED BY RF-SCORE:    0.00 PKD
ROOT
HETATM    1 CL   UNL     1     -10.224   8.816  66.874  1.00  0.00    -0.345 Cl 
HETATM    2  C   UNL     1     -10.841  10.405  67.099  1.00  0.00    -0.238 A  
HETATM    3  C   UNL     1     -11.070  11.218  65.997  1.00  0.00    -0.181 A  
HETATM    4  C   UNL     1     -11.581  12.504  66.184  1.00  0.00    -0.448 A  
HETATM    5  C   UNL     1     -11.883  12.987  67.465  1.00  0.00    -0.355 A  
HETATM    6  C   UNL     1     -11.108  10.876  68.385  1.00  0.00    -0.320 A  
HETATM    7  C   UNL     1     -11.617  12.170  68.568  1.00  0.00    -0.366 A  
ENDROOT
BRANCH   5   8
HETATM    8  N   UNL     1     -12.432  14.275  67.685  1.00  0.00    -0.513 N  
HETATM    9  H   UNL     1     -13.427  14.410  67.507  1.00  0.00     0.000 HD 
BRANCH   8  10
HETATM   10  C   UNL     1     -11.695  15.362  68.127  1.00  0.00    -0.261 C  
HETATM   11  O   UNL     1     -12.006  16.042  69.101  1.00  0.00    -0.340 OA 
BRANCH  10  12
HETATM   12  N   UNL     1     -10.568  15.606  67.359  1.00  0.00    -0.296 N  
HETATM   13  H   UNL     1     -10.240  14.865  66.739  1.00  0.00     0.000 HD 
BRANCH  12  14
HETATM   14  C   UNL     1      -9.844  16.824  67.386  1.00  0.00    -0.252 A  
HETATM   15  C   UNL     1      -8.744  17.066  66.551  1.00  0.00    -0.297 A  
HETATM   16  C   UNL     1      -8.070  18.292  66.576  1.00  0.00    -0.269 A  
HETATM   17 CL   UNL     1      -6.741  18.501  65.492  1.00  0.00    -0.300 Cl 
HETATM   18  C   UNL     1      -8.484  19.289  67.459  1.00  0.00    -0.291 A  
HETATM   19  C   UNL     1      -9.560  19.048  68.318  1.00  0.00    -0.411 A  
HETATM   20 CL   UNL     1      -7.708  20.829  67.543  1.00  0.00    -0.329 Cl 
HETATM   21  C   UNL     1     -10.232  17.817  68.290  1.00  0.00    -0.382 A  
ENDBRANCH  12  14
ENDBRANCH  10  12
ENDBRANCH   8  10
ENDBRANCH   5   8
TORSDOF 4
ENDMDL
MODEL      168
REMARK 921   NORMALIZED FREE ENERGY PREDICTED BY IDOCK:   -4.17 KCAL/MOL
REMARK 922        TOTAL FREE ENERGY PREDICTED BY IDOCK:   -5.75 KCAL/MOL
REMARK 923 INTER-LIGAND FREE ENERGY PREDICTED BY IDOCK:   -5.12 KCAL/MOL
REMARK 924 INTRA-LIGAND FREE ENERGY PREDICTED BY IDOCK:   -0.63 KCAL/MOL
REMARK 927      BINDING AFFINITY PREDICTED BY RF-SCORE:    0.00 PKD
ROOT
HETATM    1 CL   UNL     1     -12.285  11.218  62.837  1.00  0.00     0.413 Cl 
HETATM    2  C   UNL     1     -11.862  12.502  63.899  1.00  0.00    -0.463 A  
HETATM    3  C   UNL     1     -10.538  12.908  63.997  1.00  0.00    -0.418 A  
HETATM    4  C   UNL     1     -10.201  13.959  64.852  1.00  0.00    -0.378 A  
HETATM    5  C   UNL     1     -11.177  14.623  65.607  1.00  0.00    -0.342 A  
HETATM    6  C   UNL     1     -12.846  13.131  64.662  1.00  0.00    -0.235 A  
HETATM    7  C   UNL     1     -12.502  14.182  65.525  1.00  0.00    -0.495 A  
ENDROOT
BRANCH   5   8
HETATM    8  N   UNL     1     -10.871  15.712  66.461  1.00  0.00    -0.295 N  
HETATM    9  H   UNL     1     -11.268  16.624  66.237  1.00  0.00     0.000 HD 
BRANCH   8  10
HETATM   10  C   UNL     1     -10.064  15.611  67.583  1.00  0.00    -0.248 C  
HETATM   11  O   UNL     1      -8.923  16.058  67.640  1.00  0.00    -0.188 OA 
BRANCH  10  12
HETATM   12  N   UNL     1     -10.677  14.953  68.637  1.00  0.00    -0.243 N  
HETATM   13  H   UNL     1     -11.145  15.516  69.347  1.00  0.00     0.000 HD 
BRANCH  12  14
HETATM   14  C   UNL     1     -10.691  13.543  68.785  1.00  0.00    -0.238 A  
HETATM   15  C   UNL     1     -11.662  12.874  69.543  1.00  0.00    -0.387 A  
HETATM   16  C   UNL     1     -11.670  11.478  69.643  1.00  0.00    -0.351 A  
HETATM   17 CL   UNL     1     -12.923  10.747  70.583  1.00  0.00    -0.363 Cl 
HETATM   18  C   UNL     1     -10.685  10.735  68.994  1.00  0.00    -0.228 A  
HETATM   19  C   UNL     1      -9.693  11.393  68.260  1.00  0.00    -0.202 A  
HETATM   20 CL   UNL     1     -10.633   9.010  69.064  1.00  0.00    -0.231 Cl 
HETATM   21  C   UNL     1      -9.689  12.792  68.165  1.00  0.00    -0.223 A  
ENDBRANCH  12  14
ENDBRANCH  10  12
ENDBRANCH   8  10
ENDBRANCH   5   8
TORSDOF 4
ENDMDL
MODEL      169
REMARK 921   NORMALIZED FREE ENERGY PREDICTED BY IDOCK:   -4.16 KCAL/MOL
REMARK 922        TOTAL FREE ENERGY PREDICTED BY IDOCK:   -5.74 KCAL/MOL
REMARK 923 INTER-LIGAND FREE ENERGY PREDICTED BY IDOCK:   -5.03 KCAL/MOL
REMARK 924 INTRA-LIGAND FREE ENERGY PREDICTED BY IDOCK:   -0.71 KCAL/MOL
REMARK 927      BINDING AFFINITY PREDICTED BY RF-SCORE:    0.00 PKD
ROOT
HETATM    1 CL   UNL     1      -5.156  13.207  67.799  1.00  0.00    -0.101 Cl 
HETATM    2  C   UNL     1      -6.312  14.437  68.126  1.00  0.00    -0.141 A  
HETATM    3  C   UNL     1      -6.290  15.615  67.392  1.00  0.00    -0.144 A  
HETATM    4  C   UNL     1      -7.237  16.607  67.654  1.00  0.00    -0.158 A  
HETATM    5  C   UNL     1      -8.221  16.432  68.636  1.00  0.00    -0.223 A  
HETATM    6  C   UNL     1      -7.265  14.253  69.127  1.00  0.00    -0.104 A  
HETATM    7  C   UNL     1      -8.211  15.254  69.391  1.00  0.00    -0.233 A  
ENDROOT
BRANCH   5   8
HETATM    8  N   UNL     1      -9.215  17.406  68.905  1.00  0.00    -0.218 N  
HETATM    9  H   UNL     1      -9.120  17.968  69.751  1.00  0.00     0.000 HD 
BRANCH   8  10
HETATM   10  C   UNL     1     -10.306  17.641  68.085  1.00  0.00    -0.386 C  
HETATM   11  O   UNL     1     -10.246  18.285  67.042  1.00  0.00    -0.342 OA 
BRANCH  10  12
HETATM   12  N   UNL     1     -11.477  17.074  68.561  1.00  0.00     0.034 N  
HETATM   13  H   UNL     1     -12.275  17.687  68.728  1.00  0.00     0.000 HD 
BRANCH  12  14
HETATM   14  C   UNL     1     -11.630  15.690  68.828  1.00  0.00    -0.384 A  
HETATM   15  C   UNL     1     -11.606  14.719  67.817  1.00  0.00    -0.378 A  
HETATM   16  C   UNL     1     -11.725  13.357  68.116  1.00  0.00    -0.362 A  
HETATM   17 CL   UNL     1     -11.660  12.238  66.801  1.00  0.00    -0.433 Cl 
HETATM   18  C   UNL     1     -11.891  12.953  69.440  1.00  0.00    -0.312 A  
HETATM   19  C   UNL     1     -11.947  13.914  70.454  1.00  0.00    -0.393 A  
HETATM   20 CL   UNL     1     -12.038  11.292  69.888  1.00  0.00    -0.398 Cl 
HETATM   21  C   UNL     1     -11.829  15.278  70.149  1.00  0.00    -0.356 A  
ENDBRANCH  12  14
ENDBRANCH  10  12
ENDBRANCH   8  10
ENDBRANCH   5   8
TORSDOF 4
ENDMDL
MODEL      170
REMARK 921   NORMALIZED FREE ENERGY PREDICTED BY IDOCK:   -4.13 KCAL/MOL
REMARK 922        TOTAL FREE ENERGY PREDICTED BY IDOCK:   -5.70 KCAL/MOL
REMARK 923 INTER-LIGAND FREE ENERGY PREDICTED BY IDOCK:   -5.12 KCAL/MOL
REMARK 924 INTRA-LIGAND FREE ENERGY PREDICTED BY IDOCK:   -0.59 KCAL/MOL
REMARK 927      BINDING AFFINITY PREDICTED BY RF-SCORE:    0.00 PKD
ROOT
HETATM    1 CL   UNL     1     -12.983  14.083  70.682  1.00  0.00    -0.317 Cl 
HETATM    2  C   UNL     1     -12.094  12.724  70.116  1.00  0.00    -0.298 A  
HETATM    3  C   UNL     1     -12.218  11.502  70.763  1.00  0.00    -0.463 A  
HETATM    4  C   UNL     1     -11.503  10.399  70.294  1.00  0.00    -0.406 A  
HETATM    5  C   UNL     1     -10.670  10.497  69.170  1.00  0.00    -0.231 A  
HETATM    6  C   UNL     1     -11.250  12.851  69.014  1.00  0.00    -0.320 A  
HETATM    7  C   UNL     1     -10.529  11.742  68.549  1.00  0.00    -0.233 A  
ENDROOT
BRANCH   5   8
HETATM    8  N   UNL     1      -9.955   9.388  68.652  1.00  0.00    -0.167 N  
HETATM    9  H   UNL     1      -9.065   9.145  69.086  1.00  0.00     0.000 HD 
BRANCH   8  10
HETATM   10  C   UNL     1     -10.394   8.616  67.589  1.00  0.00    -0.254 C  
HETATM   11  O   UNL     1     -10.087   8.832  66.420  1.00  0.00    -0.284 OA 
BRANCH  10  12
HETATM   12  N   UNL     1     -11.215   7.570  67.978  1.00  0.00    -0.337 N  
HETATM   13  H   UNL     1     -12.144   7.508  67.560  1.00  0.00     0.000 HD 
BRANCH  12  14
HETATM   14  C   UNL     1     -10.840   6.583  68.924  1.00  0.00    -0.301 A  
HETATM   15  C   UNL     1      -9.859   5.618  68.657  1.00  0.00    -0.190 A  
HETATM   16  C   UNL     1      -9.486   4.677  69.623  1.00  0.00    -0.162 A  
HETATM   17 CL   UNL     1      -8.250   3.543  69.204  1.00  0.00    -0.071 Cl 
HETATM   18  C   UNL     1     -10.111   4.682  70.869  1.00  0.00    -0.187 A  
HETATM   19  C   UNL     1     -11.112   5.620  71.136  1.00  0.00    -0.202 A  
HETATM   20 CL   UNL     1      -9.699   3.558  72.114  1.00  0.00    -0.217 Cl 
HETATM   21  C   UNL     1     -11.484   6.560  70.164  1.00  0.00    -0.477 A  
ENDBRANCH  12  14
ENDBRANCH  10  12
ENDBRANCH   8  10
ENDBRANCH   5   8
TORSDOF 4
ENDMDL
MODEL      171
REMARK 921   NORMALIZED FREE ENERGY PREDICTED BY IDOCK:   -4.12 KCAL/MOL
REMARK 922        TOTAL FREE ENERGY PREDICTED BY IDOCK:   -5.69 KCAL/MOL
REMARK 923 INTER-LIGAND FREE ENERGY PREDICTED BY IDOCK:   -5.13 KCAL/MOL
REMARK 924 INTRA-LIGAND FREE ENERGY PREDICTED BY IDOCK:   -0.56 KCAL/MOL
REMARK 927      BINDING AFFINITY PREDICTED BY RF-SCORE:    0.00 PKD
ROOT
HETATM    1 CL   UNL     1     -13.516  15.410  71.854  1.00  0.00    -0.520 Cl 
HETATM    2  C   UNL     1     -12.627  15.130  70.410  1.00  0.00    -0.359 A  
HETATM    3  C   UNL     1     -12.080  16.202  69.719  1.00  0.00     0.019 A  
HETATM    4  C   UNL     1     -11.349  15.970  68.552  1.00  0.00    -0.382 A  
HETATM    5  C   UNL     1     -11.143  14.670  68.070  1.00  0.00    -0.281 A  
HETATM    6  C   UNL     1     -12.458  13.830  69.933  1.00  0.00    -0.259 A  
HETATM    7  C   UNL     1     -11.728  13.601  68.758  1.00  0.00    -0.383 A  
ENDROOT
BRANCH   5   8
HETATM    8  N   UNL     1     -10.381  14.399  66.906  1.00  0.00    -0.263 N  
HETATM    9  H   UNL     1     -10.705  14.784  66.020  1.00  0.00     0.000 HD 
BRANCH   8  10
HETATM   10  C   UNL     1      -9.221  13.641  66.903  1.00  0.00    -0.250 C  
HETATM   11  O   UNL     1      -9.193  12.441  67.157  1.00  0.00    -0.186 OA 
BRANCH  10  12
HETATM   12  N   UNL     1      -8.091  14.376  66.582  1.00  0.00    -0.288 N  
HETATM   13  H   UNL     1      -7.410  13.958  65.948  1.00  0.00     0.000 HD 
BRANCH  12  14
HETATM   14  C   UNL     1      -7.827  15.675  67.084  1.00  0.00    -0.217 A  
HETATM   15  C   UNL     1      -7.760  16.805  66.257  1.00  0.00    -0.310 A  
HETATM   16  C   UNL     1      -7.532  18.080  66.785  1.00  0.00    -0.214 A  
HETATM   17 CL   UNL     1      -7.491  19.411  65.684  1.00  0.00    -0.249 Cl 
HETATM   18  C   UNL     1      -7.347  18.234  68.159  1.00  0.00    -0.260 A  
HETATM   19  C   UNL     1      -7.381  17.111  68.991  1.00  0.00    -0.217 A  
HETATM   20 CL   UNL     1      -7.068  19.775  68.886  1.00  0.00    -0.371 Cl 
HETATM   21  C   UNL     1      -7.608  15.835  68.456  1.00  0.00    -0.138 A  
ENDBRANCH  12  14
ENDBRANCH  10  12
ENDBRANCH   8  10
ENDBRANCH   5   8
TORSDOF 4
ENDMDL
MODEL      172
REMARK 921   NORMALIZED FREE ENERGY PREDICTED BY IDOCK:   -4.11 KCAL/MOL
REMARK 922        TOTAL FREE ENERGY PREDICTED BY IDOCK:   -5.68 KCAL/MOL
REMARK 923 INTER-LIGAND FREE ENERGY PREDICTED BY IDOCK:   -5.15 KCAL/MOL
REMARK 924 INTRA-LIGAND FREE ENERGY PREDICTED BY IDOCK:   -0.53 KCAL/MOL
REMARK 927      BINDING AFFINITY PREDICTED BY RF-SCORE:    0.00 PKD
ROOT
HETATM    1 CL   UNL     1      -5.588  14.604  70.471  1.00  0.00    -0.135 Cl 
HETATM    2  C   UNL     1      -6.265  15.640  69.277  1.00  0.00    -0.127 A  
HETATM    3  C   UNL     1      -6.265  17.014  69.478  1.00  0.00    -0.237 A  
HETATM    4  C   UNL     1      -6.806  17.853  68.502  1.00  0.00    -0.236 A  
HETATM    5  C   UNL     1      -7.338  17.335  67.312  1.00  0.00    -0.164 A  
HETATM    6  C   UNL     1      -6.814  15.102  68.113  1.00  0.00    -0.135 A  
HETATM    7  C   UNL     1      -7.361  15.948  67.138  1.00  0.00    -0.258 A  
ENDROOT
BRANCH   5   8
HETATM    8  N   UNL     1      -7.866  18.162  66.289  1.00  0.00    -0.258 N  
HETATM    9  H   UNL     1      -7.508  18.042  65.342  1.00  0.00     0.000 HD 
BRANCH   8  10
HETATM   10  C   UNL     1      -8.839  19.125  66.501  1.00  0.00    -0.334 C  
HETATM   11  O   UNL     1      -8.593  20.270  66.866  1.00  0.00    -0.320 OA 
BRANCH  10  12
HETATM   12  N   UNL     1     -10.123  18.664  66.256  1.00  0.00    -0.391 N  
HETATM   13  H   UNL     1     -10.790  19.306  65.828  1.00  0.00     0.000 HD 
BRANCH  12  14
HETATM   14  C   UNL     1     -10.562  17.353  66.567  1.00  0.00    -0.184 A  
HETATM   15  C   UNL     1     -10.892  16.957  67.871  1.00  0.00    -0.310 A  
HETATM   16  C   UNL     1     -11.356  15.665  68.142  1.00  0.00    -0.340 A  
HETATM   17 CL   UNL     1     -11.758  15.283  69.779  1.00  0.00    -0.317 Cl 
HETATM   18  C   UNL     1     -11.476  14.743  67.103  1.00  0.00    -0.364 A  
HETATM   19  C   UNL     1     -11.121  15.117  65.803  1.00  0.00    -0.330 A  
HETATM   20 CL   UNL     1     -12.047  13.134  67.357  1.00  0.00    -0.366 Cl 
HETATM   21  C   UNL     1     -10.655  16.413  65.537  1.00  0.00    -0.346 A  
ENDBRANCH  12  14
ENDBRANCH  10  12
ENDBRANCH   8  10
ENDBRANCH   5   8
TORSDOF 4
ENDMDL
MODEL      173
REMARK 921   NORMALIZED FREE ENERGY PREDICTED BY IDOCK:   -4.09 KCAL/MOL
REMARK 922        TOTAL FREE ENERGY PREDICTED BY IDOCK:   -5.66 KCAL/MOL
REMARK 923 INTER-LIGAND FREE ENERGY PREDICTED BY IDOCK:   -5.23 KCAL/MOL
REMARK 924 INTRA-LIGAND FREE ENERGY PREDICTED BY IDOCK:   -0.43 KCAL/MOL
REMARK 927      BINDING AFFINITY PREDICTED BY RF-SCORE:    0.00 PKD
ROOT
HETATM    1 CL   UNL     1      -7.320  17.550  67.175  1.00  0.00    -0.204 Cl 
HETATM    2  C   UNL     1      -8.729  16.958  67.962  1.00  0.00    -0.215 A  
HETATM    3  C   UNL     1      -9.963  17.534  67.691  1.00  0.00    -0.309 A  
HETATM    4  C   UNL     1     -11.107  17.043  68.324  1.00  0.00    -0.172 A  
HETATM    5  C   UNL     1     -11.036  15.968  69.221  1.00  0.00    -0.331 A  
HETATM    6  C   UNL     1      -8.632  15.905  68.872  1.00  0.00    -0.221 A  
HETATM    7  C   UNL     1      -9.782  15.419  69.510  1.00  0.00    -0.259 A  
ENDROOT
BRANCH   5   8
HETATM    8  N   UNL     1     -12.182  15.427  69.856  1.00  0.00    -0.454 N  
HETATM    9  H   UNL     1     -13.082  15.876  69.686  1.00  0.00     0.000 HD 
BRANCH   8  10
HETATM   10  C   UNL     1     -12.152  14.325  70.693  1.00  0.00    -0.346 C  
HETATM   11  O   UNL     1     -11.728  14.358  71.845  1.00  0.00    -0.127 OA 
BRANCH  10  12
HETATM   12  N   UNL     1     -12.650  13.176  70.101  1.00  0.00    -0.089 N  
HETATM   13  H   UNL     1     -13.569  13.222  69.660  1.00  0.00     0.000 HD 
BRANCH  12  14
HETATM   14  C   UNL     1     -11.957  11.940  70.072  1.00  0.00    -0.332 A  
HETATM   15  C   UNL     1     -12.104  10.968  71.072  1.00  0.00    -0.406 A  
HETATM   16  C   UNL     1     -11.433   9.743  70.999  1.00  0.00    -0.383 A  
HETATM   17 CL   UNL     1     -11.699   8.604  72.270  1.00  0.00    -0.440 Cl 
HETATM   18  C   UNL     1     -10.585   9.484  69.922  1.00  0.00    -0.241 A  
HETATM   19  C   UNL     1     -10.407  10.457  68.934  1.00  0.00    -0.227 A  
HETATM   20 CL   UNL     1      -9.729   7.994  69.758  1.00  0.00    -0.175 Cl 
HETATM   21  C   UNL     1     -11.081  11.684  69.013  1.00  0.00    -0.297 A  
ENDBRANCH  12  14
ENDBRANCH  10  12
ENDBRANCH   8  10
ENDBRANCH   5   8
TORSDOF 4
ENDMDL
MODEL      174
REMARK 921   NORMALIZED FREE ENERGY PREDICTED BY IDOCK:   -4.09 KCAL/MOL
REMARK 922        TOTAL FREE ENERGY PREDICTED BY IDOCK:   -5.65 KCAL/MOL
REMARK 923 INTER-LIGAND FREE ENERGY PREDICTED BY IDOCK:   -5.01 KCAL/MOL
REMARK 924 INTRA-LIGAND FREE ENERGY PREDICTED BY IDOCK:   -0.65 KCAL/MOL
REMARK 927      BINDING AFFINITY PREDICTED BY RF-SCORE:    0.00 PKD
ROOT
HETATM    1 CL   UNL     1     -13.450  15.545  72.009  1.00  0.00    -0.540 Cl 
HETATM    2  C   UNL     1     -12.612  14.878  70.664  1.00  0.00    -0.363 A  
HETATM    3  C   UNL     1     -12.123  15.717  69.672  1.00  0.00    -0.329 A  
HETATM    4  C   UNL     1     -11.435  15.172  68.586  1.00  0.00    -0.341 A  
HETATM    5  C   UNL     1     -11.213  13.791  68.485  1.00  0.00    -0.275 A  
HETATM    6  C   UNL     1     -12.427  13.499  70.569  1.00  0.00    -0.373 A  
HETATM    7  C   UNL     1     -11.740  12.955  69.474  1.00  0.00    -0.387 A  
ENDROOT
BRANCH   5   8
HETATM    8  N   UNL     1     -10.492  13.211  67.412  1.00  0.00    -0.241 N  
HETATM    9  H   UNL     1      -9.583  13.609  67.173  1.00  0.00     0.000 HD 
BRANCH   8  10
HETATM   10  C   UNL     1     -10.948  12.136  66.667  1.00  0.00    -0.282 C  
HETATM   11  O   UNL     1     -12.039  12.113  66.105  1.00  0.00    -0.621 OA 
BRANCH  10  12
HETATM   12  N   UNL     1     -10.046  11.085  66.619  1.00  0.00    -0.212 N  
HETATM   13  H   UNL     1      -9.915  10.605  65.729  1.00  0.00     0.000 HD 
BRANCH  12  14
HETATM   14  C   UNL     1      -9.296  10.638  67.736  1.00  0.00    -0.146 A  
HETATM   15  C   UNL     1      -7.934  10.929  67.894  1.00  0.00    -0.111 A  
HETATM   16  C   UNL     1      -7.228  10.503  69.024  1.00  0.00    -0.090 A  
HETATM   17 CL   UNL     1      -5.557  10.932  69.137  1.00  0.00    -0.041 Cl 
HETATM   18  C   UNL     1      -7.881   9.759  70.006  1.00  0.00    -0.178 A  
HETATM   19  C   UNL     1      -9.232   9.436  69.844  1.00  0.00    -0.226 A  
HETATM   20 CL   UNL     1      -7.079   9.204  71.432  1.00  0.00    -0.067 Cl 
HETATM   21  C   UNL     1      -9.934   9.864  68.709  1.00  0.00    -0.183 A  
ENDBRANCH  12  14
ENDBRANCH  10  12
ENDBRANCH   8  10
ENDBRANCH   5   8
TORSDOF 4
ENDMDL
MODEL      175
REMARK 921   NORMALIZED FREE ENERGY PREDICTED BY IDOCK:   -4.08 KCAL/MOL
REMARK 922        TOTAL FREE ENERGY PREDICTED BY IDOCK:   -5.65 KCAL/MOL
REMARK 923 INTER-LIGAND FREE ENERGY PREDICTED BY IDOCK:   -5.12 KCAL/MOL
REMARK 924 INTRA-LIGAND FREE ENERGY PREDICTED BY IDOCK:   -0.53 KCAL/MOL
REMARK 927      BINDING AFFINITY PREDICTED BY RF-SCORE:    0.00 PKD
ROOT
HETATM    1 CL   UNL     1      -6.121   7.380  69.867  1.00  0.00    -0.027 Cl 
HETATM    2  C   UNL     1      -7.693   8.065  69.747  1.00  0.00    -0.101 A  
HETATM    3  C   UNL     1      -8.244   8.721  70.840  1.00  0.00    -0.189 A  
HETATM    4  C   UNL     1      -9.517   9.284  70.735  1.00  0.00    -0.336 A  
HETATM    5  C   UNL     1     -10.247   9.214  69.540  1.00  0.00    -0.203 A  
HETATM    6  C   UNL     1      -8.414   7.959  68.558  1.00  0.00    -0.128 A  
HETATM    7  C   UNL     1      -9.694   8.522  68.458  1.00  0.00    -0.174 A  
ENDROOT
BRANCH   5   8
HETATM    8  N   UNL     1     -11.528   9.803  69.393  1.00  0.00    -0.446 N  
HETATM    9  H   UNL     1     -12.124   9.472  68.635  1.00  0.00     0.000 HD 
BRANCH   8  10
HETATM   10  C   UNL     1     -12.018  10.801  70.219  1.00  0.00    -0.351 C  
HETATM   11  O   UNL     1     -12.913  10.625  71.040  1.00  0.00    -0.366 OA 
BRANCH  10  12
HETATM   12  N   UNL     1     -11.393  12.023  70.025  1.00  0.00    -0.507 N  
HETATM   13  H   UNL     1     -11.117  12.557  70.849  1.00  0.00     0.000 HD 
BRANCH  12  14
HETATM   14  C   UNL     1     -11.117  12.574  68.749  1.00  0.00    -0.270 A  
HETATM   15  C   UNL     1     -12.128  12.931  67.846  1.00  0.00    -0.209 A  
HETATM   16  C   UNL     1     -11.826  13.504  66.607  1.00  0.00    -0.407 A  
HETATM   17 CL   UNL     1     -13.145  13.932  65.575  1.00  0.00    -0.394 Cl 
HETATM   18  C   UNL     1     -10.494  13.709  66.248  1.00  0.00    -0.291 A  
HETATM   19  C   UNL     1      -9.475  13.328  67.126  1.00  0.00    -0.240 A  
HETATM   20 CL   UNL     1     -10.041  14.417  64.739  1.00  0.00    -0.296 Cl 
HETATM   21  C   UNL     1      -9.784  12.752  68.367  1.00  0.00    -0.186 A  
ENDBRANCH  12  14
ENDBRANCH  10  12
ENDBRANCH   8  10
ENDBRANCH   5   8
TORSDOF 4
ENDMDL
MODEL      176
REMARK 921   NORMALIZED FREE ENERGY PREDICTED BY IDOCK:   -4.07 KCAL/MOL
REMARK 922        TOTAL FREE ENERGY PREDICTED BY IDOCK:   -5.63 KCAL/MOL
REMARK 923 INTER-LIGAND FREE ENERGY PREDICTED BY IDOCK:   -5.56 KCAL/MOL
REMARK 924 INTRA-LIGAND FREE ENERGY PREDICTED BY IDOCK:   -0.07 KCAL/MOL
REMARK 927      BINDING AFFINITY PREDICTED BY RF-SCORE:    0.00 PKD
ROOT
HETATM    1 CL   UNL     1     -10.696   5.700  67.575  1.00  0.00    -0.298 Cl 
HETATM    2  C   UNL     1     -10.542   7.365  67.974  1.00  0.00    -0.175 A  
HETATM    3  C   UNL     1     -10.412   8.307  66.963  1.00  0.00    -0.384 A  
HETATM    4  C   UNL     1     -10.298   9.660  67.291  1.00  0.00    -0.310 A  
HETATM    5  C   UNL     1     -10.326  10.089  68.625  1.00  0.00    -0.190 A  
HETATM    6  C   UNL     1     -10.545   7.768  69.310  1.00  0.00    -0.199 A  
HETATM    7  C   UNL     1     -10.424   9.126  69.635  1.00  0.00    -0.230 A  
ENDROOT
BRANCH   5   8
HETATM    8  N   UNL     1     -10.244  11.456  68.989  1.00  0.00    -0.361 N  
HETATM    9  H   UNL     1      -9.436  11.760  69.532  1.00  0.00     0.000 HD 
BRANCH   8  10
HETATM   10  C   UNL     1     -11.196  12.403  68.652  1.00  0.00    -0.271 C  
HETATM   11  O   UNL     1     -12.158  12.170  67.926  1.00  0.00    -0.502 OA 
BRANCH  10  12
HETATM   12  N   UNL     1     -10.956  13.644  69.219  1.00  0.00    -0.408 N  
HETATM   13  H   UNL     1     -11.126  13.757  70.218  1.00  0.00     0.000 HD 
BRANCH  12  14
HETATM   14  C   UNL     1     -10.486  14.766  68.490  1.00  0.00    -0.249 A  
HETATM   15  C   UNL     1     -10.751  14.943  67.125  1.00  0.00    -0.296 A  
HETATM   16  C   UNL     1     -10.303  16.077  66.439  1.00  0.00    -0.305 A  
HETATM   17 CL   UNL     1     -10.701  16.213  64.763  1.00  0.00    -0.322 Cl 
HETATM   18  C   UNL     1      -9.562  17.045  67.117  1.00  0.00    -0.253 A  
HETATM   19  C   UNL     1      -9.265  16.865  68.472  1.00  0.00    -0.260 A  
HETATM   20 CL   UNL     1      -8.981  18.475  66.343  1.00  0.00    -0.298 Cl 
HETATM   21  C   UNL     1      -9.716  15.725  69.153  1.00  0.00    -0.250 A  
ENDBRANCH  12  14
ENDBRANCH  10  12
ENDBRANCH   8  10
ENDBRANCH   5   8
TORSDOF 4
ENDMDL
MODEL      177
REMARK 921   NORMALIZED FREE ENERGY PREDICTED BY IDOCK:   -4.05 KCAL/MOL
REMARK 922        TOTAL FREE ENERGY PREDICTED BY IDOCK:   -5.61 KCAL/MOL
REMARK 923 INTER-LIGAND FREE ENERGY PREDICTED BY IDOCK:   -5.21 KCAL/MOL
REMARK 924 INTRA-LIGAND FREE ENERGY PREDICTED BY IDOCK:   -0.39 KCAL/MOL
REMARK 927      BINDING AFFINITY PREDICTED BY RF-SCORE:    0.00 PKD
ROOT
HETATM    1 CL   UNL     1     -11.917  14.601  65.541  1.00  0.00    -0.301 Cl 
HETATM    2  C   UNL     1     -11.269  13.472  66.665  1.00  0.00    -0.312 A  
HETATM    3  C   UNL     1     -10.103  12.785  66.356  1.00  0.00    -0.266 A  
HETATM    4  C   UNL     1      -9.575  11.876  67.275  1.00  0.00    -0.181 A  
HETATM    5  C   UNL     1     -10.192  11.654  68.514  1.00  0.00    -0.210 A  
HETATM    6  C   UNL     1     -11.915  13.245  67.880  1.00  0.00    -0.349 A  
HETATM    7  C   UNL     1     -11.384  12.328  68.798  1.00  0.00    -0.337 A  
ENDROOT
BRANCH   5   8
HETATM    8  N   UNL     1      -9.664  10.762  69.481  1.00  0.00    -0.435 N  
HETATM    9  H   UNL     1      -9.047  11.142  70.198  1.00  0.00     0.000 HD 
BRANCH   8  10
HETATM   10  C   UNL     1      -9.938   9.404  69.508  1.00  0.00    -0.191 C  
HETATM   11  O   UNL     1      -9.349   8.579  68.816  1.00  0.00    -0.143 OA 
BRANCH  10  12
HETATM   12  N   UNL     1     -10.944   9.069  70.400  1.00  0.00    -0.241 N  
HETATM   13  H   UNL     1     -11.818   9.593  70.356  1.00  0.00     0.000 HD 
BRANCH  12  14
HETATM   14  C   UNL     1     -10.828   8.041  71.368  1.00  0.00    -0.231 A  
HETATM   15  C   UNL     1      -9.848   8.055  72.371  1.00  0.00    -0.313 A  
HETATM   16  C   UNL     1      -9.780   7.043  73.334  1.00  0.00    -0.218 A  
HETATM   17 CL   UNL     1      -8.550   7.164  74.541  1.00  0.00    -0.223 Cl 
HETATM   18  C   UNL     1     -10.690   5.986  73.290  1.00  0.00    -0.262 A  
HETATM   19  C   UNL     1     -11.652   5.945  72.277  1.00  0.00    -0.338 A  
HETATM   20 CL   UNL     1     -10.674   4.705  74.447  1.00  0.00    -0.289 Cl 
HETATM   21  C   UNL     1     -11.715   6.962  71.313  1.00  0.00    -0.371 A  
ENDBRANCH  12  14
ENDBRANCH  10  12
ENDBRANCH   8  10
ENDBRANCH   5   8
TORSDOF 4
ENDMDL
MODEL      178
REMARK 921   NORMALIZED FREE ENERGY PREDICTED BY IDOCK:   -4.03 KCAL/MOL
REMARK 922        TOTAL FREE ENERGY PREDICTED BY IDOCK:   -5.58 KCAL/MOL
REMARK 923 INTER-LIGAND FREE ENERGY PREDICTED BY IDOCK:   -5.27 KCAL/MOL
REMARK 924 INTRA-LIGAND FREE ENERGY PREDICTED BY IDOCK:   -0.31 KCAL/MOL
REMARK 927      BINDING AFFINITY PREDICTED BY RF-SCORE:    0.00 PKD
ROOT
HETATM    1 CL   UNL     1     -13.008  12.326  71.962  1.00  0.00    -0.435 Cl 
HETATM    2  C   UNL     1     -12.674  10.704  71.498  1.00  0.00    -0.444 A  
HETATM    3  C   UNL     1     -11.537  10.422  70.754  1.00  0.00    -0.450 A  
HETATM    4  C   UNL     1     -11.264   9.102  70.387  1.00  0.00    -0.279 A  
HETATM    5  C   UNL     1     -12.110   8.052  70.769  1.00  0.00    -0.076 A  
HETATM    6  C   UNL     1     -13.544   9.678  71.865  1.00  0.00    -0.446 A  
HETATM    7  C   UNL     1     -13.269   8.355  71.490  1.00  0.00    -0.311 A  
ENDROOT
BRANCH   5   8
HETATM    8  N   UNL     1     -11.844   6.699  70.439  1.00  0.00    -0.508 N  
HETATM    9  H   UNL     1     -12.434   5.979  70.854  1.00  0.00     0.000 HD 
BRANCH   8  10
HETATM   10  C   UNL     1     -10.828   6.298  69.586  1.00  0.00    -0.339 C  
HETATM   11  O   UNL     1      -9.709   5.972  69.970  1.00  0.00    -0.160 OA 
BRANCH  10  12
HETATM   12  N   UNL     1     -11.204   6.302  68.253  1.00  0.00    -0.461 N  
HETATM   13  H   UNL     1     -12.186   6.460  68.031  1.00  0.00     0.000 HD 
BRANCH  12  14
HETATM   14  C   UNL     1     -10.301   6.097  67.179  1.00  0.00    -0.230 A  
HETATM   15  C   UNL     1     -10.284   4.918  66.422  1.00  0.00    -0.313 A  
HETATM   16  C   UNL     1      -9.404   4.758  65.346  1.00  0.00    -0.156 A  
HETATM   17 CL   UNL     1      -9.478   3.276  64.460  1.00  0.00    -0.142 Cl 
HETATM   18  C   UNL     1      -8.510   5.780  65.028  1.00  0.00    -0.124 A  
HETATM   19  C   UNL     1      -8.496   6.949  65.796  1.00  0.00    -0.150 A  
HETATM   20 CL   UNL     1      -7.400   5.660  63.712  1.00  0.00    -0.054 Cl 
HETATM   21  C   UNL     1      -9.380   7.103  66.874  1.00  0.00    -0.189 A  
ENDBRANCH  12  14
ENDBRANCH  10  12
ENDBRANCH   8  10
ENDBRANCH   5   8
TORSDOF 4
ENDMDL
MODEL      179
REMARK 921   NORMALIZED FREE ENERGY PREDICTED BY IDOCK:   -4.03 KCAL/MOL
REMARK 922        TOTAL FREE ENERGY PREDICTED BY IDOCK:   -5.58 KCAL/MOL
REMARK 923 INTER-LIGAND FREE ENERGY PREDICTED BY IDOCK:   -4.87 KCAL/MOL
REMARK 924 INTRA-LIGAND FREE ENERGY PREDICTED BY IDOCK:   -0.71 KCAL/MOL
REMARK 927      BINDING AFFINITY PREDICTED BY RF-SCORE:    0.00 PKD
ROOT
HETATM    1 CL   UNL     1     -14.328   8.149  71.912  1.00  0.00    -0.533 Cl 
HETATM    2  C   UNL     1     -12.711   8.004  71.346  1.00  0.00    -0.280 A  
HETATM    3  C   UNL     1     -11.764   8.949  71.718  1.00  0.00    -0.432 A  
HETATM    4  C   UNL     1     -10.449   8.822  71.264  1.00  0.00    -0.326 A  
HETATM    5  C   UNL     1     -10.061   7.749  70.451  1.00  0.00    -0.194 A  
HETATM    6  C   UNL     1     -12.353   6.943  70.515  1.00  0.00    -0.177 A  
HETATM    7  C   UNL     1     -11.033   6.823  70.057  1.00  0.00    -0.344 A  
ENDROOT
BRANCH   5   8
HETATM    8  N   UNL     1      -8.729   7.575  70.000  1.00  0.00    -0.139 N  
HETATM    9  H   UNL     1      -8.021   7.314  70.686  1.00  0.00     0.000 HD 
BRANCH   8  10
HETATM   10  C   UNL     1      -8.332   7.741  68.684  1.00  0.00    -0.129 C  
HETATM   11  O   UNL     1      -8.182   6.810  67.898  1.00  0.00    -0.115 OA 
BRANCH  10  12
HETATM   12  N   UNL     1      -8.122   9.066  68.340  1.00  0.00    -0.107 N  
HETATM   13  H   UNL     1      -7.255   9.509  68.643  1.00  0.00     0.000 HD 
BRANCH  12  14
HETATM   14  C   UNL     1      -9.043   9.842  67.592  1.00  0.00    -0.131 A  
HETATM   15  C   UNL     1      -9.990  10.680  68.197  1.00  0.00    -0.176 A  
HETATM   16  C   UNL     1     -10.864  11.459  67.432  1.00  0.00    -0.254 A  
HETATM   17 CL   UNL     1     -11.979  12.477  68.273  1.00  0.00    -0.345 Cl 
HETATM   18  C   UNL     1     -10.809  11.392  66.040  1.00  0.00    -0.249 A  
HETATM   19  C   UNL     1      -9.890  10.538  65.425  1.00  0.00    -0.335 A  
HETATM   20 CL   UNL     1     -11.849  12.329  65.028  1.00  0.00    -0.423 Cl 
HETATM   21  C   UNL     1      -9.017   9.757  66.197  1.00  0.00    -0.181 A  
ENDBRANCH  12  14
ENDBRANCH  10  12
ENDBRANCH   8  10
ENDBRANCH   5   8
TORSDOF 4
ENDMDL
MODEL      180
REMARK 921   NORMALIZED FREE ENERGY PREDICTED BY IDOCK:   -4.02 KCAL/MOL
REMARK 922        TOTAL FREE ENERGY PREDICTED BY IDOCK:   -5.58 KCAL/MOL
REMARK 923 INTER-LIGAND FREE ENERGY PREDICTED BY IDOCK:   -5.09 KCAL/MOL
REMARK 924 INTRA-LIGAND FREE ENERGY PREDICTED BY IDOCK:   -0.48 KCAL/MOL
REMARK 927      BINDING AFFINITY PREDICTED BY RF-SCORE:    0.00 PKD
ROOT
HETATM    1 CL   UNL     1     -12.970  14.193  65.154  1.00  0.00    -0.332 Cl 
HETATM    2  C   UNL     1     -11.868  13.536  66.299  1.00  0.00    -0.392 A  
HETATM    3  C   UNL     1     -11.188  14.383  67.164  1.00  0.00    -0.337 A  
HETATM    4  C   UNL     1     -10.302  13.845  68.100  1.00  0.00    -0.247 A  
HETATM    5  C   UNL     1     -10.095  12.462  68.194  1.00  0.00    -0.224 A  
HETATM    6  C   UNL     1     -11.656  12.159  66.356  1.00  0.00    -0.429 A  
HETATM    7  C   UNL     1     -10.761  11.623  67.294  1.00  0.00    -0.281 A  
ENDROOT
BRANCH   5   8
HETATM    8  N   UNL     1      -9.226  11.883  69.153  1.00  0.00    -0.272 N  
HETATM    9  H   UNL     1      -9.386  12.098  70.137  1.00  0.00     0.000 HD 
BRANCH   8  10
HETATM   10  C   UNL     1      -8.173  11.044  68.832  1.00  0.00    -0.127 C  
HETATM   11  O   UNL     1      -7.464  11.192  67.841  1.00  0.00    -0.089 OA 
BRANCH  10  12
HETATM   12  N   UNL     1      -7.997  10.017  69.745  1.00  0.00    -0.171 N  
HETATM   13  H   UNL     1      -7.064   9.873  70.132  1.00  0.00     0.000 HD 
BRANCH  12  14
HETATM   14  C   UNL     1      -9.038   9.155  70.172  1.00  0.00    -0.206 A  
HETATM   15  C   UNL     1      -9.568   8.148  69.352  1.00  0.00    -0.167 A  
HETATM   16  C   UNL     1     -10.572   7.290  69.813  1.00  0.00    -0.235 A  
HETATM   17 CL   UNL     1     -11.142   6.067  68.733  1.00  0.00    -0.391 Cl 
HETATM   18  C   UNL     1     -11.073   7.446  71.104  1.00  0.00    -0.252 A  
HETATM   19  C   UNL     1     -10.574   8.465  71.921  1.00  0.00    -0.370 A  
HETATM   20 CL   UNL     1     -12.306   6.422  71.747  1.00  0.00    -0.340 Cl 
HETATM   21  C   UNL     1      -9.569   9.324  71.454  1.00  0.00    -0.229 A  
ENDBRANCH  12  14
ENDBRANCH  10  12
ENDBRANCH   8  10
ENDBRANCH   5   8
TORSDOF 4
ENDMDL
MODEL      181
REMARK 921   NORMALIZED FREE ENERGY PREDICTED BY IDOCK:   -4.02 KCAL/MOL
REMARK 922        TOTAL FREE ENERGY PREDICTED BY IDOCK:   -5.58 KCAL/MOL
REMARK 923 INTER-LIGAND FREE ENERGY PREDICTED BY IDOCK:   -4.83 KCAL/MOL
REMARK 924 INTRA-LIGAND FREE ENERGY PREDICTED BY IDOCK:   -0.75 KCAL/MOL
REMARK 927      BINDING AFFINITY PREDICTED BY RF-SCORE:    0.00 PKD
ROOT
HETATM    1 CL   UNL     1      -9.544  13.377  66.066  1.00  0.00    -0.224 Cl 
HETATM    2  C   UNL     1      -9.325  11.682  66.247  1.00  0.00    -0.216 A  
HETATM    3  C   UNL     1      -8.143  11.194  66.788  1.00  0.00    -0.155 A  
HETATM    4  C   UNL     1      -7.973   9.817  66.944  1.00  0.00    -0.105 A  
HETATM    5  C   UNL     1      -8.981   8.914  66.577  1.00  0.00    -0.155 A  
HETATM    6  C   UNL     1     -10.330  10.800  65.850  1.00  0.00    -0.302 A  
HETATM    7  C   UNL     1     -10.153   9.417  66.003  1.00  0.00    -0.302 A  
ENDROOT
BRANCH   5   8
HETATM    8  N   UNL     1      -8.851   7.513  66.751  1.00  0.00    -0.134 N  
HETATM    9  H   UNL     1      -8.106   7.034  66.245  1.00  0.00     0.000 HD 
BRANCH   8  10
HETATM   10  C   UNL     1      -9.676   6.758  67.567  1.00  0.00    -0.128 C  
HETATM   11  O   UNL     1     -10.474   5.926  67.143  1.00  0.00    -0.209 OA 
BRANCH  10  12
HETATM   12  N   UNL     1      -9.510   7.033  68.915  1.00  0.00    -0.138 N  
HETATM   13  H   UNL     1      -8.599   6.848  69.334  1.00  0.00     0.000 HD 
BRANCH  12  14
HETATM   14  C   UNL     1     -10.533   7.556  69.744  1.00  0.00    -0.230 A  
HETATM   15  C   UNL     1     -10.751   8.933  69.896  1.00  0.00    -0.236 A  
HETATM   16  C   UNL     1     -11.791   9.419  70.695  1.00  0.00    -0.207 A  
HETATM   17 CL   UNL     1     -11.991  11.133  70.798  1.00  0.00    -0.438 Cl 
HETATM   18  C   UNL     1     -12.619   8.523  71.371  1.00  0.00    -0.283 A  
HETATM   19  C   UNL     1     -12.392   7.149  71.252  1.00  0.00    -0.418 A  
HETATM   20 CL   UNL     1     -13.927   9.047  72.369  1.00  0.00    -0.528 Cl 
HETATM   21  C   UNL     1     -11.347   6.667  70.451  1.00  0.00    -0.421 A  
ENDBRANCH  12  14
ENDBRANCH  10  12
ENDBRANCH   8  10
ENDBRANCH   5   8
TORSDOF 4
ENDMDL
MODEL      182
REMARK 921   NORMALIZED FREE ENERGY PREDICTED BY IDOCK:   -4.01 KCAL/MOL
REMARK 922        TOTAL FREE ENERGY PREDICTED BY IDOCK:   -5.56 KCAL/MOL
REMARK 923 INTER-LIGAND FREE ENERGY PREDICTED BY IDOCK:   -5.67 KCAL/MOL
REMARK 924 INTRA-LIGAND FREE ENERGY PREDICTED BY IDOCK:    0.11 KCAL/MOL
REMARK 927      BINDING AFFINITY PREDICTED BY RF-SCORE:    0.00 PKD
ROOT
HETATM    1 CL   UNL     1     -11.107  11.889  62.991  1.00  0.00    -0.206 Cl 
HETATM    2  C   UNL     1     -11.287  12.849  64.406  1.00  0.00    -0.358 A  
HETATM    3  C   UNL     1     -10.270  13.715  64.785  1.00  0.00    -0.363 A  
HETATM    4  C   UNL     1     -10.424  14.500  65.929  1.00  0.00    -0.322 A  
HETATM    5  C   UNL     1     -11.595  14.443  66.698  1.00  0.00    -0.384 A  
HETATM    6  C   UNL     1     -12.449  12.756  65.172  1.00  0.00    -0.565 A  
HETATM    7  C   UNL     1     -12.597  13.543  66.323  1.00  0.00    -0.298 A  
ENDROOT
BRANCH   5   8
HETATM    8  N   UNL     1     -11.794  15.249  67.846  1.00  0.00    -0.419 N  
HETATM    9  H   UNL     1     -12.630  15.832  67.884  1.00  0.00     0.000 HD 
BRANCH   8  10
HETATM   10  C   UNL     1     -10.920  15.292  68.920  1.00  0.00    -0.261 C  
HETATM   11  O   UNL     1     -10.216  16.262  69.184  1.00  0.00    -0.234 OA 
BRANCH  10  12
HETATM   12  N   UNL     1     -10.921  14.127  69.670  1.00  0.00    -0.437 N  
HETATM   13  H   UNL     1     -11.000  14.209  70.684  1.00  0.00     0.000 HD 
BRANCH  12  14
HETATM   14  C   UNL     1     -10.819  12.829  69.110  1.00  0.00    -0.075 A  
HETATM   15  C   UNL     1      -9.754  12.447  68.282  1.00  0.00    -0.218 A  
HETATM   16  C   UNL     1      -9.662  11.147  67.772  1.00  0.00    -0.171 A  
HETATM   17 CL   UNL     1      -8.299  10.768  66.780  1.00  0.00    -0.132 Cl 
HETATM   18  C   UNL     1     -10.655  10.216  68.073  1.00  0.00    -0.231 A  
HETATM   19  C   UNL     1     -11.738  10.594  68.873  1.00  0.00    -0.282 A  
HETATM   20 CL   UNL     1     -10.608   8.592  67.487  1.00  0.00    -0.325 Cl 
HETATM   21  C   UNL     1     -11.826  11.899  69.381  1.00  0.00    -0.389 A  
ENDBRANCH  12  14
ENDBRANCH  10  12
ENDBRANCH   8  10
ENDBRANCH   5   8
TORSDOF 4
ENDMDL
MODEL      183
REMARK 921   NORMALIZED FREE ENERGY PREDICTED BY IDOCK:   -4.01 KCAL/MOL
REMARK 922        TOTAL FREE ENERGY PREDICTED BY IDOCK:   -5.56 KCAL/MOL
REMARK 923 INTER-LIGAND FREE ENERGY PREDICTED BY IDOCK:   -5.23 KCAL/MOL
REMARK 924 INTRA-LIGAND FREE ENERGY PREDICTED BY IDOCK:   -0.33 KCAL/MOL
REMARK 927      BINDING AFFINITY PREDICTED BY RF-SCORE:    0.00 PKD
ROOT
HETATM    1 CL   UNL     1      -9.366   3.368  65.019  1.00  0.00    -0.150 Cl 
HETATM    2  C   UNL     1      -9.368   4.718  66.084  1.00  0.00    -0.152 A  
HETATM    3  C   UNL     1      -9.930   4.598  67.347  1.00  0.00    -0.190 A  
HETATM    4  C   UNL     1      -9.921   5.694  68.213  1.00  0.00    -0.197 A  
HETATM    5  C   UNL     1      -9.340   6.913  67.836  1.00  0.00    -0.118 A  
HETATM    6  C   UNL     1      -8.810   5.930  65.678  1.00  0.00    -0.126 A  
HETATM    7  C   UNL     1      -8.807   7.030  66.548  1.00  0.00    -0.151 A  
ENDROOT
BRANCH   5   8
HETATM    8  N   UNL     1      -9.288   8.033  68.702  1.00  0.00    -0.146 N  
HETATM    9  H   UNL     1      -8.618   8.773  68.490  1.00  0.00     0.000 HD 
BRANCH   8  10
HETATM   10  C   UNL     1     -10.092   8.183  69.820  1.00  0.00    -0.197 C  
HETATM   11  O   UNL     1      -9.749   7.855  70.952  1.00  0.00    -0.164 OA 
BRANCH  10  12
HETATM   12  N   UNL     1     -11.326   8.743  69.532  1.00  0.00    -0.423 N  
HETATM   13  H   UNL     1     -11.879   8.327  68.783  1.00  0.00     0.000 HD 
BRANCH  12  14
HETATM   14  C   UNL     1     -11.863   9.861  70.218  1.00  0.00    -0.184 A  
HETATM   15  C   UNL     1     -11.682  11.178  69.773  1.00  0.00    -0.419 A  
HETATM   16  C   UNL     1     -12.254  12.259  70.453  1.00  0.00    -0.288 A  
HETATM   17 CL   UNL     1     -11.991  13.842  69.811  1.00  0.00    -0.384 Cl 
HETATM   18  C   UNL     1     -13.002  12.030  71.607  1.00  0.00    -0.334 A  
HETATM   19  C   UNL     1     -13.164  10.724  72.078  1.00  0.00    -0.466 A  
HETATM   20 CL   UNL     1     -13.744  13.311  72.496  1.00  0.00    -0.675 Cl 
HETATM   21  C   UNL     1     -12.588   9.644  71.393  1.00  0.00    -0.463 A  
ENDBRANCH  12  14
ENDBRANCH  10  12
ENDBRANCH   8  10
ENDBRANCH   5   8
TORSDOF 4
ENDMDL
MODEL      184
REMARK 921   NORMALIZED FREE ENERGY PREDICTED BY IDOCK:   -4.00 KCAL/MOL
REMARK 922        TOTAL FREE ENERGY PREDICTED BY IDOCK:   -5.54 KCAL/MOL
REMARK 923 INTER-LIGAND FREE ENERGY PREDICTED BY IDOCK:   -4.91 KCAL/MOL
REMARK 924 INTRA-LIGAND FREE ENERGY PREDICTED BY IDOCK:   -0.64 KCAL/MOL
REMARK 927      BINDING AFFINITY PREDICTED BY RF-SCORE:    0.00 PKD
ROOT
HETATM    1 CL   UNL     1     -12.739  16.072  71.328  1.00  0.00    -0.344 Cl 
HETATM    2  C   UNL     1     -11.972  14.922  70.305  1.00  0.00    -0.312 A  
HETATM    3  C   UNL     1     -11.009  15.341  69.397  1.00  0.00    -0.271 A  
HETATM    4  C   UNL     1     -10.382  14.403  68.576  1.00  0.00    -0.248 A  
HETATM    5  C   UNL     1     -10.695  13.039  68.659  1.00  0.00    -0.248 A  
HETATM    6  C   UNL     1     -12.320  13.573  70.385  1.00  0.00    -0.397 A  
HETATM    7  C   UNL     1     -11.691  12.635  69.554  1.00  0.00    -0.374 A  
ENDROOT
BRANCH   5   8
HETATM    8  N   UNL     1     -10.054  12.059  67.860  1.00  0.00    -0.190 N  
HETATM    9  H   UNL     1      -9.066  12.186  67.646  1.00  0.00     0.000 HD 
BRANCH   8  10
HETATM   10  C   UNL     1     -10.692  10.938  67.355  1.00  0.00    -0.257 C  
HETATM   11  O   UNL     1     -11.654  10.989  66.595  1.00  0.00    -0.263 OA 
BRANCH  10  12
HETATM   12  N   UNL     1     -10.133   9.748  67.793  1.00  0.00    -0.169 N  
HETATM   13  H   UNL     1      -9.699   9.138  67.101  1.00  0.00     0.000 HD 
BRANCH  12  14
HETATM   14  C   UNL     1     -10.130   9.331  69.148  1.00  0.00    -0.199 A  
HETATM   15  C   UNL     1     -11.309   9.071  69.860  1.00  0.00    -0.016 A  
HETATM   16  C   UNL     1     -11.274   8.628  71.186  1.00  0.00    -0.272 A  
HETATM   17 CL   UNL     1     -12.782   8.313  71.969  1.00  0.00    -0.360 Cl 
HETATM   18  C   UNL     1     -10.045   8.457  71.823  1.00  0.00    -0.247 A  
HETATM   19  C   UNL     1      -8.863   8.742  71.134  1.00  0.00    -0.275 A  
HETATM   20 CL   UNL     1      -9.920   7.905  73.455  1.00  0.00    -0.296 Cl 
HETATM   21  C   UNL     1      -8.904   9.188  69.805  1.00  0.00    -0.165 A  
ENDBRANCH  12  14
ENDBRANCH  10  12
ENDBRANCH   8  10
ENDBRANCH   5   8
TORSDOF 4
ENDMDL
MODEL      185
REMARK 921   NORMALIZED FREE ENERGY PREDICTED BY IDOCK:   -3.98 KCAL/MOL
REMARK 922        TOTAL FREE ENERGY PREDICTED BY IDOCK:   -5.52 KCAL/MOL
REMARK 923 INTER-LIGAND FREE ENERGY PREDICTED BY IDOCK:   -5.18 KCAL/MOL
REMARK 924 INTRA-LIGAND FREE ENERGY PREDICTED BY IDOCK:   -0.34 KCAL/MOL
REMARK 927      BINDING AFFINITY PREDICTED BY RF-SCORE:    0.00 PKD
ROOT
HETATM    1 CL   UNL     1      -7.881   8.471  73.590  1.00  0.00    -0.146 Cl 
HETATM    2  C   UNL     1      -8.683   8.497  72.070  1.00  0.00    -0.196 A  
HETATM    3  C   UNL     1      -7.973   8.212  70.911  1.00  0.00    -0.096 A  
HETATM    4  C   UNL     1      -8.630   8.224  69.680  1.00  0.00    -0.129 A  
HETATM    5  C   UNL     1     -10.001   8.504  69.590  1.00  0.00    -0.192 A  
HETATM    6  C   UNL     1     -10.041   8.805  72.001  1.00  0.00    -0.397 A  
HETATM    7  C   UNL     1     -10.697   8.821  70.761  1.00  0.00    -0.277 A  
ENDROOT
BRANCH   5   8
HETATM    8  N   UNL     1     -10.703   8.493  68.359  1.00  0.00    -0.426 N  
HETATM    9  H   UNL     1     -11.311   7.699  68.160  1.00  0.00     0.000 HD 
BRANCH   8  10
HETATM   10  C   UNL     1     -10.613   9.499  67.411  1.00  0.00    -0.271 C  
HETATM   11  O   UNL     1      -9.803   9.491  66.488  1.00  0.00    -0.203 OA 
BRANCH  10  12
HETATM   12  N   UNL     1     -11.532  10.517  67.606  1.00  0.00    -0.330 N  
HETATM   13  H   UNL     1     -12.390  10.299  68.112  1.00  0.00     0.000 HD 
BRANCH  12  14
HETATM   14  C   UNL     1     -11.348  11.844  67.143  1.00  0.00    -0.331 A  
HETATM   15  C   UNL     1     -10.938  12.887  67.985  1.00  0.00    -0.271 A  
HETATM   16  C   UNL     1     -10.732  14.180  67.492  1.00  0.00    -0.269 A  
HETATM   17 CL   UNL     1     -10.204  15.391  68.606  1.00  0.00    -0.212 Cl 
HETATM   18  C   UNL     1     -10.957  14.447  66.142  1.00  0.00    -0.320 A  
HETATM   19  C   UNL     1     -11.396  13.422  65.298  1.00  0.00    -0.313 A  
HETATM   20 CL   UNL     1     -10.718  16.015  65.458  1.00  0.00    -0.383 Cl 
HETATM   21  C   UNL     1     -11.602  12.128  65.798  1.00  0.00    -0.414 A  
ENDBRANCH  12  14
ENDBRANCH  10  12
ENDBRANCH   8  10
ENDBRANCH   5   8
TORSDOF 4
ENDMDL
MODEL      186
REMARK 921   NORMALIZED FREE ENERGY PREDICTED BY IDOCK:   -3.97 KCAL/MOL
REMARK 922        TOTAL FREE ENERGY PREDICTED BY IDOCK:   -5.51 KCAL/MOL
REMARK 923 INTER-LIGAND FREE ENERGY PREDICTED BY IDOCK:   -5.03 KCAL/MOL
REMARK 924 INTRA-LIGAND FREE ENERGY PREDICTED BY IDOCK:   -0.48 KCAL/MOL
REMARK 927      BINDING AFFINITY PREDICTED BY RF-SCORE:    0.00 PKD
ROOT
HETATM    1 CL   UNL     1      -9.632   3.150  64.989  1.00  0.00    -0.134 Cl 
HETATM    2  C   UNL     1      -9.960   4.170  66.333  1.00  0.00    -0.155 A  
HETATM    3  C   UNL     1     -10.606   5.383  66.136  1.00  0.00    -0.197 A  
HETATM    4  C   UNL     1     -10.880   6.204  67.231  1.00  0.00    -0.438 A  
HETATM    5  C   UNL     1     -10.528   5.821  68.533  1.00  0.00    -0.225 A  
HETATM    6  C   UNL     1      -9.576   3.782  67.617  1.00  0.00    -0.199 A  
HETATM    7  C   UNL     1      -9.849   4.612  68.714  1.00  0.00    -0.201 A  
ENDROOT
BRANCH   5   8
HETATM    8  N   UNL     1     -10.820   6.618  69.668  1.00  0.00    -0.261 N  
HETATM    9  H   UNL     1     -11.537   6.289  70.314  1.00  0.00     0.000 HD 
BRANCH   8  10
HETATM   10  C   UNL     1     -10.188   7.817  69.952  1.00  0.00    -0.213 C  
HETATM   11  O   UNL     1      -8.970   7.967  69.921  1.00  0.00    -0.143 OA 
BRANCH  10  12
HETATM   12  N   UNL     1     -11.071   8.835  70.274  1.00  0.00    -0.286 N  
HETATM   13  H   UNL     1     -11.607   8.751  71.138  1.00  0.00     0.000 HD 
BRANCH  12  14
HETATM   14  C   UNL     1     -11.272   9.987  69.473  1.00  0.00    -0.208 A  
HETATM   15  C   UNL     1     -10.866  10.053  68.132  1.00  0.00    -0.303 A  
HETATM   16  C   UNL     1     -11.109  11.191  67.356  1.00  0.00    -0.307 A  
HETATM   17 CL   UNL     1     -10.590  11.165  65.708  1.00  0.00    -0.309 Cl 
HETATM   18  C   UNL     1     -11.749  12.291  67.925  1.00  0.00    -0.347 A  
HETATM   19  C   UNL     1     -12.131  12.249  69.270  1.00  0.00    -0.219 A  
HETATM   20 CL   UNL     1     -12.091  13.728  67.030  1.00  0.00    -0.446 Cl 
HETATM   21  C   UNL     1     -11.884  11.106  70.044  1.00  0.00    -0.441 A  
ENDBRANCH  12  14
ENDBRANCH  10  12
ENDBRANCH   8  10
ENDBRANCH   5   8
TORSDOF 4
ENDMDL
MODEL      187
REMARK 921   NORMALIZED FREE ENERGY PREDICTED BY IDOCK:   -3.94 KCAL/MOL
REMARK 922        TOTAL FREE ENERGY PREDICTED BY IDOCK:   -5.47 KCAL/MOL
REMARK 923 INTER-LIGAND FREE ENERGY PREDICTED BY IDOCK:   -5.27 KCAL/MOL
REMARK 924 INTRA-LIGAND FREE ENERGY PREDICTED BY IDOCK:   -0.20 KCAL/MOL
REMARK 927      BINDING AFFINITY PREDICTED BY RF-SCORE:    0.00 PKD
ROOT
HETATM    1 CL   UNL     1     -10.931   6.394  70.686  1.00  0.00    -0.330 Cl 
HETATM    2  C   UNL     1     -10.402   7.050  69.187  1.00  0.00    -0.201 A  
HETATM    3  C   UNL     1      -9.330   7.932  69.161  1.00  0.00    -0.154 A  
HETATM    4  C   UNL     1      -8.897   8.455  67.941  1.00  0.00    -0.138 A  
HETATM    5  C   UNL     1      -9.516   8.095  66.736  1.00  0.00    -0.198 A  
HETATM    6  C   UNL     1     -11.050   6.700  68.003  1.00  0.00    -0.296 A  
HETATM    7  C   UNL     1     -10.615   7.232  66.780  1.00  0.00    -0.288 A  
ENDROOT
BRANCH   5   8
HETATM    8  N   UNL     1      -9.080   8.584  65.479  1.00  0.00    -0.379 N  
HETATM    9  H   UNL     1      -8.344   8.072  64.994  1.00  0.00     0.000 HD 
BRANCH   8  10
HETATM   10  C   UNL     1      -9.596   9.717  64.871  1.00  0.00    -0.173 C  
HETATM   11  O   UNL     1      -9.448   9.975  63.680  1.00  0.00    -0.282 OA 
BRANCH  10  12
HETATM   12  N   UNL     1     -10.300  10.531  65.744  1.00  0.00    -0.231 N  
HETATM   13  H   UNL     1     -10.556  10.150  66.655  1.00  0.00     0.000 HD 
BRANCH  12  14
HETATM   14  C   UNL     1     -10.685  11.861  65.443  1.00  0.00    -0.283 A  
HETATM   15  C   UNL     1      -9.942  12.975  65.861  1.00  0.00    -0.270 A  
HETATM   16  C   UNL     1     -10.329  14.275  65.520  1.00  0.00    -0.355 A  
HETATM   17 CL   UNL     1      -9.334  15.578  66.064  1.00  0.00    -0.375 Cl 
HETATM   18  C   UNL     1     -11.484  14.476  64.765  1.00  0.00    -0.408 A  
HETATM   19  C   UNL     1     -12.250  13.375  64.368  1.00  0.00    -0.444 A  
HETATM   20 CL   UNL     1     -12.022  16.049  64.299  1.00  0.00    -0.139 Cl 
HETATM   21  C   UNL     1     -11.859  12.074  64.715  1.00  0.00    -0.325 A  
ENDBRANCH  12  14
ENDBRANCH  10  12
ENDBRANCH   8  10
ENDBRANCH   5   8
TORSDOF 4
ENDMDL
MODEL      188
REMARK 921   NORMALIZED FREE ENERGY PREDICTED BY IDOCK:   -3.93 KCAL/MOL
REMARK 922        TOTAL FREE ENERGY PREDICTED BY IDOCK:   -5.46 KCAL/MOL
REMARK 923 INTER-LIGAND FREE ENERGY PREDICTED BY IDOCK:   -5.32 KCAL/MOL
REMARK 924 INTRA-LIGAND FREE ENERGY PREDICTED BY IDOCK:   -0.14 KCAL/MOL
REMARK 927      BINDING AFFINITY PREDICTED BY RF-SCORE:    0.00 PKD
ROOT
HETATM    1 CL   UNL     1      -6.993  20.511  66.076  1.00  0.00    -0.259 Cl 
HETATM    2  C   UNL     1      -7.369  19.112  67.002  1.00  0.00    -0.213 A  
HETATM    3  C   UNL     1      -6.599  17.965  66.861  1.00  0.00    -0.211 A  
HETATM    4  C   UNL     1      -6.901  16.835  67.623  1.00  0.00    -0.158 A  
HETATM    5  C   UNL     1      -7.960  16.838  68.541  1.00  0.00    -0.235 A  
HETATM    6  C   UNL     1      -8.444  19.129  67.889  1.00  0.00    -0.335 A  
HETATM    7  C   UNL     1      -8.748  17.989  68.649  1.00  0.00    -0.272 A  
ENDROOT
BRANCH   5   8
HETATM    8  N   UNL     1      -8.273  15.718  69.351  1.00  0.00    -0.241 N  
HETATM    9  H   UNL     1      -7.544  15.349  69.962  1.00  0.00     0.000 HD 
BRANCH   8  10
HETATM   10  C   UNL     1      -9.509  15.094  69.361  1.00  0.00    -0.183 C  
HETATM   11  O   UNL     1     -10.546  15.647  69.718  1.00  0.00    -0.258 OA 
BRANCH  10  12
HETATM   12  N   UNL     1      -9.461  13.780  68.926  1.00  0.00    -0.408 N  
HETATM   13  H   UNL     1      -9.033  13.086  69.539  1.00  0.00     0.000 HD 
BRANCH  12  14
HETATM   14  C   UNL     1      -9.970  13.344  67.677  1.00  0.00    -0.229 A  
HETATM   15  C   UNL     1     -11.133  13.882  67.107  1.00  0.00    -0.312 A  
HETATM   16  C   UNL     1     -11.593  13.456  65.857  1.00  0.00    -0.342 A  
HETATM   17 CL   UNL     1     -13.024  14.197  65.231  1.00  0.00    -0.391 Cl 
HETATM   18  C   UNL     1     -10.897  12.464  65.167  1.00  0.00    -0.297 A  
HETATM   19  C   UNL     1      -9.753  11.898  65.738  1.00  0.00    -0.258 A  
HETATM   20 CL   UNL     1     -11.398  11.891  63.617  1.00  0.00    -0.512 Cl 
HETATM   21  C   UNL     1      -9.297  12.328  66.993  1.00  0.00    -0.205 A  
ENDBRANCH  12  14
ENDBRANCH  10  12
ENDBRANCH   8  10
ENDBRANCH   5   8
TORSDOF 4
ENDMDL
MODEL      189
REMARK 921   NORMALIZED FREE ENERGY PREDICTED BY IDOCK:   -3.91 KCAL/MOL
REMARK 922        TOTAL FREE ENERGY PREDICTED BY IDOCK:   -5.43 KCAL/MOL
REMARK 923 INTER-LIGAND FREE ENERGY PREDICTED BY IDOCK:   -4.66 KCAL/MOL
REMARK 924 INTRA-LIGAND FREE ENERGY PREDICTED BY IDOCK:   -0.77 KCAL/MOL
REMARK 927      BINDING AFFINITY PREDICTED BY RF-SCORE:    0.00 PKD
ROOT
HETATM    1 CL   UNL     1     -14.024   9.031  72.466  1.00  0.00    -0.517 Cl 
HETATM    2  C   UNL     1     -12.620   8.200  71.923  1.00  0.00    -0.335 A  
HETATM    3  C   UNL     1     -11.373   8.559  72.416  1.00  0.00    -0.412 A  
HETATM    4  C   UNL     1     -10.237   7.875  71.979  1.00  0.00    -0.270 A  
HETATM    5  C   UNL     1     -10.331   6.820  71.062  1.00  0.00    -0.206 A  
HETATM    6  C   UNL     1     -12.734   7.171  70.988  1.00  0.00    -0.303 A  
HETATM    7  C   UNL     1     -11.590   6.491  70.548  1.00  0.00    -0.455 A  
ENDROOT
BRANCH   5   8
HETATM    8  N   UNL     1      -9.200   6.087  70.623  1.00  0.00    -0.149 N  
HETATM    9  H   UNL     1      -8.705   5.514  71.307  1.00  0.00     0.000 HD 
BRANCH   8  10
HETATM   10  C   UNL     1      -8.728   6.101  69.321  1.00  0.00    -0.122 C  
HETATM   11  O   UNL     1      -8.803   5.141  68.561  1.00  0.00    -0.100 OA 
BRANCH  10  12
HETATM   12  N   UNL     1      -8.163   7.314  68.960  1.00  0.00    -0.124 N  
HETATM   13  H   UNL     1      -7.321   7.616  69.451  1.00  0.00     0.000 HD 
BRANCH  12  14
HETATM   14  C   UNL     1      -8.687   8.158  67.949  1.00  0.00    -0.128 A  
HETATM   15  C   UNL     1      -8.252   8.099  66.617  1.00  0.00    -0.103 A  
HETATM   16  C   UNL     1      -8.812   8.921  65.634  1.00  0.00    -0.191 A  
HETATM   17 CL   UNL     1      -8.223   8.756  64.017  1.00  0.00    -0.165 Cl 
HETATM   18  C   UNL     1      -9.808   9.832  65.982  1.00  0.00    -0.274 A  
HETATM   19  C   UNL     1     -10.228   9.922  67.312  1.00  0.00    -0.277 A  
HETATM   20 CL   UNL     1     -10.552  10.875  64.824  1.00  0.00    -0.362 Cl 
HETATM   21  C   UNL     1      -9.663   9.096  68.295  1.00  0.00    -0.171 A  
ENDBRANCH  12  14
ENDBRANCH  10  12
ENDBRANCH   8  10
ENDBRANCH   5   8
TORSDOF 4
ENDMDL
MODEL      190
REMARK 921   NORMALIZED FREE ENERGY PREDICTED BY IDOCK:   -3.90 KCAL/MOL
REMARK 922        TOTAL FREE ENERGY PREDICTED BY IDOCK:   -5.42 KCAL/MOL
REMARK 923 INTER-LIGAND FREE ENERGY PREDICTED BY IDOCK:   -4.90 KCAL/MOL
REMARK 924 INTRA-LIGAND FREE ENERGY PREDICTED BY IDOCK:   -0.53 KCAL/MOL
REMARK 927      BINDING AFFINITY PREDICTED BY RF-SCORE:    0.00 PKD
ROOT
HETATM    1 CL   UNL     1      -8.225  18.102  68.405  1.00  0.00    -0.304 Cl 
HETATM    2  C   UNL     1      -9.353  16.814  68.570  1.00  0.00    -0.246 A  
HETATM    3  C   UNL     1     -10.704  17.097  68.717  1.00  0.00    -0.289 A  
HETATM    4  C   UNL     1     -11.618  16.048  68.840  1.00  0.00    -0.354 A  
HETATM    5  C   UNL     1     -11.199  14.711  68.802  1.00  0.00    -0.267 A  
HETATM    6  C   UNL     1      -8.911  15.491  68.557  1.00  0.00    -0.191 A  
HETATM    7  C   UNL     1      -9.832  14.441  68.686  1.00  0.00    -0.231 A  
ENDROOT
BRANCH   5   8
HETATM    8  N   UNL     1     -12.105  13.625  68.892  1.00  0.00    -0.342 N  
HETATM    9  H   UNL     1     -12.719  13.444  68.098  1.00  0.00     0.000 HD 
BRANCH   8  10
HETATM   10  C   UNL     1     -12.206  12.795  69.997  1.00  0.00    -0.209 C  
HETATM   11  O   UNL     1     -12.344  13.206  71.145  1.00  0.00    -0.333 OA 
BRANCH  10  12
HETATM   12  N   UNL     1     -12.138  11.449  69.675  1.00  0.00    -0.314 N  
HETATM   13  H   UNL     1     -12.881  10.836  70.011  1.00  0.00     0.000 HD 
BRANCH  12  14
HETATM   14  C   UNL     1     -11.095  10.875  68.905  1.00  0.00    -0.252 A  
HETATM   15  C   UNL     1     -11.124  10.836  67.504  1.00  0.00    -0.374 A  
HETATM   16  C   UNL     1     -10.064  10.293  66.771  1.00  0.00    -0.216 A  
HETATM   17 CL   UNL     1     -10.186  10.314  65.047  1.00  0.00    -0.354 Cl 
HETATM   18  C   UNL     1      -8.963   9.761  67.441  1.00  0.00    -0.135 A  
HETATM   19  C   UNL     1      -8.936   9.766  68.838  1.00  0.00    -0.144 A  
HETATM   20 CL   UNL     1      -7.613   9.081  66.605  1.00  0.00    -0.089 Cl 
HETATM   21  C   UNL     1     -10.002  10.311  69.569  1.00  0.00    -0.252 A  
ENDBRANCH  12  14
ENDBRANCH  10  12
ENDBRANCH   8  10
ENDBRANCH   5   8
TORSDOF 4
ENDMDL
MODEL      191
REMARK 921   NORMALIZED FREE ENERGY PREDICTED BY IDOCK:   -3.90 KCAL/MOL
REMARK 922        TOTAL FREE ENERGY PREDICTED BY IDOCK:   -5.42 KCAL/MOL
REMARK 923 INTER-LIGAND FREE ENERGY PREDICTED BY IDOCK:   -5.01 KCAL/MOL
REMARK 924 INTRA-LIGAND FREE ENERGY PREDICTED BY IDOCK:   -0.41 KCAL/MOL
REMARK 927      BINDING AFFINITY PREDICTED BY RF-SCORE:    0.00 PKD
ROOT
HETATM    1 CL   UNL     1      -9.504   9.379  66.940  1.00  0.00    -0.190 Cl 
HETATM    2  C   UNL     1     -10.021  11.018  66.885  1.00  0.00    -0.196 A  
HETATM    3  C   UNL     1     -10.305  11.691  68.066  1.00  0.00    -0.208 A  
HETATM    4  C   UNL     1     -10.715  13.024  68.018  1.00  0.00    -0.248 A  
HETATM    5  C   UNL     1     -10.833  13.705  66.798  1.00  0.00    -0.290 A  
HETATM    6  C   UNL     1     -10.158  11.668  65.659  1.00  0.00    -0.278 A  
HETATM    7  C   UNL     1     -10.576  13.006  65.615  1.00  0.00    -0.297 A  
ENDROOT
BRANCH   5   8
HETATM    8  N   UNL     1     -11.217  15.067  66.718  1.00  0.00    -0.339 N  
HETATM    9  H   UNL     1     -11.907  15.411  67.386  1.00  0.00     0.000 HD 
BRANCH   8  10
HETATM   10  C   UNL     1     -10.710  15.958  65.787  1.00  0.00    -0.316 C  
HETATM   11  O   UNL     1     -11.391  16.490  64.915  1.00  0.00    -0.258 OA 
BRANCH  10  12
HETATM   12  N   UNL     1      -9.352  16.192  65.939  1.00  0.00    -0.321 N  
HETATM   13  H   UNL     1      -8.706  15.677  65.341  1.00  0.00     0.000 HD 
BRANCH  12  14
HETATM   14  C   UNL     1      -8.810  17.105  66.877  1.00  0.00    -0.235 A  
HETATM   15  C   UNL     1      -9.546  18.182  67.394  1.00  0.00    -0.275 A  
HETATM   16  C   UNL     1      -8.995  19.047  68.345  1.00  0.00    -0.338 A  
HETATM   17 CL   UNL     1      -9.991  20.329  68.937  1.00  0.00    -0.236 Cl 
HETATM   18  C   UNL     1      -7.684  18.852  68.778  1.00  0.00    -0.331 A  
HETATM   19  C   UNL     1      -6.930  17.801  68.247  1.00  0.00    -0.223 A  
HETATM   20 CL   UNL     1      -6.938  19.873  69.954  1.00  0.00    -0.234 Cl 
HETATM   21  C   UNL     1      -7.486  16.937  67.293  1.00  0.00    -0.195 A  
ENDBRANCH  12  14
ENDBRANCH  10  12
ENDBRANCH   8  10
ENDBRANCH   5   8
TORSDOF 4
ENDMDL
MODEL      192
REMARK 921   NORMALIZED FREE ENERGY PREDICTED BY IDOCK:   -3.88 KCAL/MOL
REMARK 922        TOTAL FREE ENERGY PREDICTED BY IDOCK:   -5.40 KCAL/MOL
REMARK 923 INTER-LIGAND FREE ENERGY PREDICTED BY IDOCK:   -4.88 KCAL/MOL
REMARK 924 INTRA-LIGAND FREE ENERGY PREDICTED BY IDOCK:   -0.52 KCAL/MOL
REMARK 927      BINDING AFFINITY PREDICTED BY RF-SCORE:    0.00 PKD
ROOT
HETATM    1 CL   UNL     1      -7.280  19.593  68.209  1.00  0.00    -0.331 Cl 
HETATM    2  C   UNL     1      -8.323  18.247  68.448  1.00  0.00    -0.307 A  
HETATM    3  C   UNL     1      -7.784  16.985  68.657  1.00  0.00    -0.251 A  
HETATM    4  C   UNL     1      -8.634  15.897  68.860  1.00  0.00    -0.221 A  
HETATM    5  C   UNL     1     -10.027  16.055  68.873  1.00  0.00    -0.232 A  
HETATM    6  C   UNL     1      -9.707  18.423  68.428  1.00  0.00    -0.379 A  
HETATM    7  C   UNL     1     -10.558  17.326  68.628  1.00  0.00    -0.329 A  
ENDROOT
BRANCH   5   8
HETATM    8  N   UNL     1     -10.916  14.977  69.108  1.00  0.00    -0.249 N  
HETATM    9  H   UNL     1     -11.202  14.791  70.069  1.00  0.00     0.000 HD 
BRANCH   8  10
HETATM   10  C   UNL     1     -11.419  14.160  68.109  1.00  0.00    -0.310 C  
HETATM   11  O   UNL     1     -12.071  14.576  67.155  1.00  0.00    -0.397 OA 
BRANCH  10  12
HETATM   12  N   UNL     1     -11.110  12.822  68.291  1.00  0.00    -0.242 N  
HETATM   13  H   UNL     1     -11.492  12.348  69.110  1.00  0.00     0.000 HD 
BRANCH  12  14
HETATM   14  C   UNL     1     -10.293  12.073  67.407  1.00  0.00    -0.207 A  
HETATM   15  C   UNL     1      -8.893  12.095  67.474  1.00  0.00    -0.175 A  
HETATM   16  C   UNL     1      -8.113  11.319  66.609  1.00  0.00    -0.160 A  
HETATM   17 CL   UNL     1      -6.396  11.397  66.786  1.00  0.00    -0.137 Cl 
HETATM   18  C   UNL     1      -8.735  10.521  65.648  1.00  0.00    -0.180 A  
HETATM   19  C   UNL     1     -10.129  10.516  65.552  1.00  0.00    -0.349 A  
HETATM   20 CL   UNL     1      -7.841   9.531  64.551  1.00  0.00    -0.120 Cl 
HETATM   21  C   UNL     1     -10.906  11.297  66.420  1.00  0.00    -0.306 A  
ENDBRANCH  12  14
ENDBRANCH  10  12
ENDBRANCH   8  10
ENDBRANCH   5   8
TORSDOF 4
ENDMDL
MODEL      193
REMARK 921   NORMALIZED FREE ENERGY PREDICTED BY IDOCK:   -3.87 KCAL/MOL
REMARK 922        TOTAL FREE ENERGY PREDICTED BY IDOCK:   -5.38 KCAL/MOL
REMARK 923 INTER-LIGAND FREE ENERGY PREDICTED BY IDOCK:   -4.67 KCAL/MOL
REMARK 924 INTRA-LIGAND FREE ENERGY PREDICTED BY IDOCK:   -0.71 KCAL/MOL
REMARK 927      BINDING AFFINITY PREDICTED BY RF-SCORE:    0.00 PKD
ROOT
HETATM    1 CL   UNL     1      -5.451  13.110  70.616  1.00  0.00    -0.154 Cl 
HETATM    2  C   UNL     1      -6.521  13.615  69.369  1.00  0.00    -0.106 A  
HETATM    3  C   UNL     1      -7.060  14.894  69.400  1.00  0.00    -0.175 A  
HETATM    4  C   UNL     1      -7.921  15.304  68.380  1.00  0.00    -0.131 A  
HETATM    5  C   UNL     1      -8.242  14.453  67.314  1.00  0.00    -0.203 A  
HETATM    6  C   UNL     1      -6.849  12.742  68.332  1.00  0.00    -0.091 A  
HETATM    7  C   UNL     1      -7.718  13.156  67.312  1.00  0.00    -0.107 A  
ENDROOT
BRANCH   5   8
HETATM    8  N   UNL     1      -9.088  14.850  66.248  1.00  0.00    -0.449 N  
HETATM    9  H   UNL     1      -8.657  15.073  65.351  1.00  0.00     0.000 HD 
BRANCH   8  10
HETATM   10  C   UNL     1     -10.465  14.952  66.353  1.00  0.00    -0.299 C  
HETATM   11  O   UNL     1     -11.034  15.852  66.963  1.00  0.00    -0.291 OA 
BRANCH  10  12
HETATM   12  N   UNL     1     -11.139  13.934  65.697  1.00  0.00    -0.295 N  
HETATM   13  H   UNL     1     -11.876  14.191  65.041  1.00  0.00     0.000 HD 
BRANCH  12  14
HETATM   14  C   UNL     1     -10.862  12.557  65.886  1.00  0.00    -0.269 A  
HETATM   15  C   UNL     1     -10.239  11.771  64.905  1.00  0.00    -0.315 A  
HETATM   16  C   UNL     1      -9.947  10.422  65.133  1.00  0.00    -0.322 A  
HETATM   17 CL   UNL     1      -9.157   9.546  63.870  1.00  0.00    -0.236 Cl 
HETATM   18  C   UNL     1     -10.297   9.837  66.349  1.00  0.00    -0.177 A  
HETATM   19  C   UNL     1     -10.946  10.602  67.323  1.00  0.00    -0.348 A  
HETATM   20 CL   UNL     1      -9.964   8.180  66.707  1.00  0.00    -0.327 Cl 
HETATM   21  C   UNL     1     -11.238  11.953  67.089  1.00  0.00    -0.377 A  
ENDBRANCH  12  14
ENDBRANCH  10  12
ENDBRANCH   8  10
ENDBRANCH   5   8
TORSDOF 4
ENDMDL
MODEL      194
REMARK 921   NORMALIZED FREE ENERGY PREDICTED BY IDOCK:   -3.82 KCAL/MOL
REMARK 922        TOTAL FREE ENERGY PREDICTED BY IDOCK:   -5.33 KCAL/MOL
REMARK 923 INTER-LIGAND FREE ENERGY PREDICTED BY IDOCK:   -4.68 KCAL/MOL
REMARK 924 INTRA-LIGAND FREE ENERGY PREDICTED BY IDOCK:   -0.65 KCAL/MOL
REMARK 927      BINDING AFFINITY PREDICTED BY RF-SCORE:    0.00 PKD
ROOT
HETATM    1 CL   UNL     1      -5.570  11.458  70.829  1.00  0.00    -0.133 Cl 
HETATM    2  C   UNL     1      -6.498  11.567  69.385  1.00  0.00    -0.111 A  
HETATM    3  C   UNL     1      -6.196  12.541  68.444  1.00  0.00    -0.058 A  
HETATM    4  C   UNL     1      -6.945  12.619  67.268  1.00  0.00    -0.104 A  
HETATM    5  C   UNL     1      -7.990  11.721  67.012  1.00  0.00    -0.164 A  
HETATM    6  C   UNL     1      -7.552  10.680  69.163  1.00  0.00    -0.131 A  
HETATM    7  C   UNL     1      -8.305  10.765  67.983  1.00  0.00    -0.120 A  
ENDROOT
BRANCH   5   8
HETATM    8  N   UNL     1      -8.749  11.754  65.815  1.00  0.00    -0.402 N  
HETATM    9  H   UNL     1      -8.308  11.420  64.958  1.00  0.00     0.000 HD 
BRANCH   8  10
HETATM   10  C   UNL     1     -10.053  12.215  65.740  1.00  0.00    -0.247 C  
HETATM   11  O   UNL     1     -11.031  11.537  66.040  1.00  0.00    -0.291 OA 
BRANCH  10  12
HETATM   12  N   UNL     1     -10.143  13.524  65.294  1.00  0.00    -0.475 N  
HETATM   13  H   UNL     1     -10.235  13.684  64.291  1.00  0.00     0.000 HD 
BRANCH  12  14
HETATM   14  C   UNL     1     -10.116  14.653  66.151  1.00  0.00    -0.300 A  
HETATM   15  C   UNL     1      -9.089  15.606  66.110  1.00  0.00    -0.378 A  
HETATM   16  C   UNL     1      -9.106  16.728  66.945  1.00  0.00    -0.229 A  
HETATM   17 CL   UNL     1      -7.805  17.857  66.802  1.00  0.00    -0.244 Cl 
HETATM   18  C   UNL     1     -10.153  16.898  67.851  1.00  0.00    -0.288 A  
HETATM   19  C   UNL     1     -11.167  15.938  67.922  1.00  0.00    -0.297 A  
HETATM   20 CL   UNL     1     -10.248  18.259  68.908  1.00  0.00    -0.375 Cl 
HETATM   21  C   UNL     1     -11.144  14.814  67.084  1.00  0.00    -0.333 A  
ENDBRANCH  12  14
ENDBRANCH  10  12
ENDBRANCH   8  10
ENDBRANCH   5   8
TORSDOF 4
ENDMDL
MODEL      195
REMARK 921   NORMALIZED FREE ENERGY PREDICTED BY IDOCK:   -3.80 KCAL/MOL
REMARK 922        TOTAL FREE ENERGY PREDICTED BY IDOCK:   -5.30 KCAL/MOL
REMARK 923 INTER-LIGAND FREE ENERGY PREDICTED BY IDOCK:   -5.32 KCAL/MOL
REMARK 924 INTRA-LIGAND FREE ENERGY PREDICTED BY IDOCK:    0.03 KCAL/MOL
REMARK 927      BINDING AFFINITY PREDICTED BY RF-SCORE:    0.00 PKD
ROOT
HETATM    1 CL   UNL     1     -12.402  16.066  71.915  1.00  0.00    -0.525 Cl 
HETATM    2  C   UNL     1     -11.968  15.298  70.439  1.00  0.00    -0.335 A  
HETATM    3  C   UNL     1     -11.471  16.056  69.388  1.00  0.00    -0.336 A  
HETATM    4  C   UNL     1     -11.110  15.427  68.195  1.00  0.00    -0.309 A  
HETATM    5  C   UNL     1     -11.225  14.039  68.041  1.00  0.00    -0.279 A  
HETATM    6  C   UNL     1     -12.116  13.918  70.298  1.00  0.00    -0.423 A  
HETATM    7  C   UNL     1     -11.757  13.291  69.096  1.00  0.00    -0.379 A  
ENDROOT
BRANCH   5   8
HETATM    8  N   UNL     1     -10.837  13.368  66.854  1.00  0.00    -0.276 N  
HETATM    9  H   UNL     1      -9.963  13.645  66.409  1.00  0.00     0.000 HD 
BRANCH   8  10
HETATM   10  C   UNL     1     -11.577  12.356  66.264  1.00  0.00    -0.393 C  
HETATM   11  O   UNL     1     -12.434  12.554  65.407  1.00  0.00    -0.630 OA 
BRANCH  10  12
HETATM   12  N   UNL     1     -11.251  11.095  66.736  1.00  0.00    -0.221 N  
HETATM   13  H   UNL     1     -11.925  10.618  67.335  1.00  0.00     0.000 HD 
BRANCH  12  14
HETATM   14  C   UNL     1     -10.036  10.431  66.435  1.00  0.00    -0.221 A  
HETATM   15  C   UNL     1      -8.801  11.094  66.408  1.00  0.00    -0.182 A  
HETATM   16  C   UNL     1      -7.613  10.404  66.141  1.00  0.00    -0.130 A  
HETATM   17 CL   UNL     1      -6.140  11.307  66.153  1.00  0.00    -0.091 Cl 
HETATM   18  C   UNL     1      -7.654   9.036  65.878  1.00  0.00    -0.094 A  
HETATM   19  C   UNL     1      -8.883   8.370  65.872  1.00  0.00    -0.212 A  
HETATM   20 CL   UNL     1      -6.231   8.115  65.547  1.00  0.00    -0.045 Cl 
HETATM   21  C   UNL     1     -10.071   9.066  66.138  1.00  0.00    -0.242 A  
ENDBRANCH  12  14
ENDBRANCH  10  12
ENDBRANCH   8  10
ENDBRANCH   5   8
TORSDOF 4
ENDMDL
MODEL      196
REMARK 921   NORMALIZED FREE ENERGY PREDICTED BY IDOCK:   -3.77 KCAL/MOL
REMARK 922        TOTAL FREE ENERGY PREDICTED BY IDOCK:   -5.27 KCAL/MOL
REMARK 923 INTER-LIGAND FREE ENERGY PREDICTED BY IDOCK:   -4.88 KCAL/MOL
REMARK 924 INTRA-LIGAND FREE ENERGY PREDICTED BY IDOCK:   -0.39 KCAL/MOL
REMARK 927      BINDING AFFINITY PREDICTED BY RF-SCORE:    0.00 PKD
ROOT
HETATM    1 CL   UNL     1      -8.667   6.007  65.624  1.00  0.00    -0.155 Cl 
HETATM    2  C   UNL     1      -9.143   7.512  66.306  1.00  0.00    -0.157 A  
HETATM    3  C   UNL     1      -8.322   8.622  66.165  1.00  0.00    -0.127 A  
HETATM    4  C   UNL     1      -8.717   9.845  66.711  1.00  0.00    -0.137 A  
HETATM    5  C   UNL     1      -9.936   9.978  67.389  1.00  0.00    -0.197 A  
HETATM    6  C   UNL     1     -10.348   7.615  67.001  1.00  0.00    -0.400 A  
HETATM    7  C   UNL     1     -10.738   8.844  67.553  1.00  0.00    -0.223 A  
ENDROOT
BRANCH   5   8
HETATM    8  N   UNL     1     -10.379  11.212  67.928  1.00  0.00    -0.180 N  
HETATM    9  H   UNL     1     -10.082  11.458  68.872  1.00  0.00     0.000 HD 
BRANCH   8  10
HETATM   10  C   UNL     1     -11.193  12.103  67.248  1.00  0.00    -0.306 C  
HETATM   11  O   UNL     1     -12.408  12.171  67.406  1.00  0.00    -0.344 OA 
BRANCH  10  12
HETATM   12  N   UNL     1     -10.495  12.915  66.368  1.00  0.00    -0.263 N  
HETATM   13  H   UNL     1      -9.992  12.471  65.600  1.00  0.00     0.000 HD 
BRANCH  12  14
HETATM   14  C   UNL     1     -10.440  14.328  66.474  1.00  0.00    -0.287 A  
HETATM   15  C   UNL     1     -10.294  14.987  67.703  1.00  0.00    -0.243 A  
HETATM   16  C   UNL     1     -10.209  16.382  67.773  1.00  0.00    -0.274 A  
HETATM   17 CL   UNL     1     -10.007  17.097  69.333  1.00  0.00    -0.132 Cl 
HETATM   18  C   UNL     1     -10.289  17.137  66.603  1.00  0.00    -0.310 A  
HETATM   19  C   UNL     1     -10.466  16.493  65.375  1.00  0.00    -0.291 A  
HETATM   20 CL   UNL     1     -10.185  18.861  66.608  1.00  0.00    -0.423 Cl 
HETATM   21  C   UNL     1     -10.552  15.095  65.311  1.00  0.00    -0.432 A  
ENDBRANCH  12  14
ENDBRANCH  10  12
ENDBRANCH   8  10
ENDBRANCH   5   8
TORSDOF 4
ENDMDL
MODEL      197
REMARK 921   NORMALIZED FREE ENERGY PREDICTED BY IDOCK:   -3.77 KCAL/MOL
REMARK 922        TOTAL FREE ENERGY PREDICTED BY IDOCK:   -5.26 KCAL/MOL
REMARK 923 INTER-LIGAND FREE ENERGY PREDICTED BY IDOCK:   -5.28 KCAL/MOL
REMARK 924 INTRA-LIGAND FREE ENERGY PREDICTED BY IDOCK:    0.02 KCAL/MOL
REMARK 927      BINDING AFFINITY PREDICTED BY RF-SCORE:    0.00 PKD
ROOT
HETATM    1 CL   UNL     1      -6.327   6.732  73.899  1.00  0.00    -0.064 Cl 
HETATM    2  C   UNL     1      -7.652   7.212  72.915  1.00  0.00    -0.083 A  
HETATM    3  C   UNL     1      -8.728   6.352  72.741  1.00  0.00    -0.125 A  
HETATM    4  C   UNL     1      -9.807   6.749  71.949  1.00  0.00    -0.173 A  
HETATM    5  C   UNL     1      -9.834   8.009  71.336  1.00  0.00    -0.171 A  
HETATM    6  C   UNL     1      -7.645   8.459  72.291  1.00  0.00    -0.146 A  
HETATM    7  C   UNL     1      -8.729   8.852  71.492  1.00  0.00    -0.232 A  
ENDROOT
BRANCH   5   8
HETATM    8  N   UNL     1     -10.928   8.454  70.552  1.00  0.00    -0.240 N  
HETATM    9  H   UNL     1     -11.869   8.223  70.868  1.00  0.00     0.000 HD 
BRANCH   8  10
HETATM   10  C   UNL     1     -10.792   9.184  69.383  1.00  0.00    -0.151 C  
HETATM   11  O   UNL     1      -9.822   9.096  68.636  1.00  0.00    -0.156 OA 
BRANCH  10  12
HETATM   12  N   UNL     1     -11.866  10.025  69.138  1.00  0.00    -0.469 N  
HETATM   13  H   UNL     1     -12.451   9.833  68.325  1.00  0.00     0.000 HD 
BRANCH  12  14
HETATM   14  C   UNL     1     -12.198  11.136  69.953  1.00  0.00    -0.314 A  
HETATM   15  C   UNL     1     -11.876  12.454  69.599  1.00  0.00    -0.380 A  
HETATM   16  C   UNL     1     -12.247  13.534  70.407  1.00  0.00    -0.356 A  
HETATM   17 CL   UNL     1     -11.823  15.122  69.870  1.00  0.00    -0.334 Cl 
HETATM   18  C   UNL     1     -12.933  13.301  71.598  1.00  0.00    -0.349 A  
HETATM   19  C   UNL     1     -13.232  11.989  71.977  1.00  0.00    -0.481 A  
HETATM   20 CL   UNL     1     -13.430  14.582  72.644  1.00  0.00    -0.553 Cl 
HETATM   21  C   UNL     1     -12.857  10.910  71.164  1.00  0.00    -0.508 A  
ENDBRANCH  12  14
ENDBRANCH  10  12
ENDBRANCH   8  10
ENDBRANCH   5   8
TORSDOF 4
ENDMDL
MODEL      198
REMARK 921   NORMALIZED FREE ENERGY PREDICTED BY IDOCK:   -3.77 KCAL/MOL
REMARK 922        TOTAL FREE ENERGY PREDICTED BY IDOCK:   -5.26 KCAL/MOL
REMARK 923 INTER-LIGAND FREE ENERGY PREDICTED BY IDOCK:   -4.94 KCAL/MOL
REMARK 924 INTRA-LIGAND FREE ENERGY PREDICTED BY IDOCK:   -0.31 KCAL/MOL
REMARK 927      BINDING AFFINITY PREDICTED BY RF-SCORE:    0.00 PKD
ROOT
HETATM    1 CL   UNL     1      -5.668  12.226  70.668  1.00  0.00    -0.168 Cl 
HETATM    2  C   UNL     1      -6.431  11.210  69.510  1.00  0.00    -0.117 A  
HETATM    3  C   UNL     1      -5.919   9.943  69.261  1.00  0.00    -0.037 A  
HETATM    4  C   UNL     1      -6.547   9.117  68.328  1.00  0.00    -0.059 A  
HETATM    5  C   UNL     1      -7.697   9.535  67.644  1.00  0.00    -0.095 A  
HETATM    6  C   UNL     1      -7.557  11.657  68.820  1.00  0.00    -0.119 A  
HETATM    7  C   UNL     1      -8.182  10.826  67.879  1.00  0.00    -0.113 A  
ENDROOT
BRANCH   5   8
HETATM    8  N   UNL     1      -8.375   8.709  66.714  1.00  0.00    -0.107 N  
HETATM    9  H   UNL     1      -7.855   7.945  66.283  1.00  0.00     0.000 HD 
BRANCH   8  10
HETATM   10  C   UNL     1      -9.702   8.878  66.356  1.00  0.00    -0.262 C  
HETATM   11  O   UNL     1     -10.645   8.515  67.053  1.00  0.00    -0.306 OA 
BRANCH  10  12
HETATM   12  N   UNL     1      -9.860   9.501  65.128  1.00  0.00    -0.437 N  
HETATM   13  H   UNL     1      -9.506   9.025  64.299  1.00  0.00     0.000 HD 
BRANCH  12  14
HETATM   14  C   UNL     1     -10.487  10.761  64.959  1.00  0.00    -0.237 A  
HETATM   15  C   UNL     1     -11.029  11.484  66.031  1.00  0.00    -0.316 A  
HETATM   16  C   UNL     1     -11.610  12.741  65.838  1.00  0.00    -0.382 A  
HETATM   17 CL   UNL     1     -12.229  13.563  67.227  1.00  0.00    -0.360 Cl 
HETATM   18  C   UNL     1     -11.673  13.283  64.554  1.00  0.00    -0.378 A  
HETATM   19  C   UNL     1     -11.163  12.558  63.473  1.00  0.00    -0.525 A  
HETATM   20 CL   UNL     1     -12.368  14.832  64.238  1.00  0.00    -0.472 Cl 
HETATM   21  C   UNL     1     -10.583  11.297  63.672  1.00  0.00    -0.453 A  
ENDBRANCH  12  14
ENDBRANCH  10  12
ENDBRANCH   8  10
ENDBRANCH   5   8
TORSDOF 4
ENDMDL
MODEL      199
REMARK 921   NORMALIZED FREE ENERGY PREDICTED BY IDOCK:   -3.76 KCAL/MOL
REMARK 922        TOTAL FREE ENERGY PREDICTED BY IDOCK:   -5.25 KCAL/MOL
REMARK 923 INTER-LIGAND FREE ENERGY PREDICTED BY IDOCK:   -4.64 KCAL/MOL
REMARK 924 INTRA-LIGAND FREE ENERGY PREDICTED BY IDOCK:   -0.61 KCAL/MOL
REMARK 927      BINDING AFFINITY PREDICTED BY RF-SCORE:    0.00 PKD
ROOT
HETATM    1 CL   UNL     1     -13.811   9.241  72.615  1.00  0.00    -0.460 Cl 
HETATM    2  C   UNL     1     -12.413   9.290  71.614  1.00  0.00    -0.368 A  
HETATM    3  C   UNL     1     -12.355  10.186  70.556  1.00  0.00    -0.330 A  
HETATM    4  C   UNL     1     -11.214  10.230  69.752  1.00  0.00    -0.339 A  
HETATM    5  C   UNL     1     -10.116   9.395  70.002  1.00  0.00    -0.226 A  
HETATM    6  C   UNL     1     -11.343   8.431  71.865  1.00  0.00    -0.382 A  
HETATM    7  C   UNL     1     -10.202   8.475  71.052  1.00  0.00    -0.255 A  
ENDROOT
BRANCH   5   8
HETATM    8  N   UNL     1      -8.932   9.438  69.224  1.00  0.00    -0.147 N  
HETATM    9  H   UNL     1      -8.842   8.778  68.452  1.00  0.00     0.000 HD 
BRANCH   8  10
HETATM   10  C   UNL     1      -7.891  10.322  69.452  1.00  0.00    -0.157 C  
HETATM   11  O   UNL     1      -7.230  10.341  70.487  1.00  0.00    -0.297 OA 
BRANCH  10  12
HETATM   12  N   UNL     1      -7.666  11.184  68.391  1.00  0.00    -0.117 N  
HETATM   13  H   UNL     1      -7.166  10.826  67.578  1.00  0.00     0.000 HD 
BRANCH  12  14
HETATM   14  C   UNL     1      -8.092  12.536  68.371  1.00  0.00    -0.136 A  
HETATM   15  C   UNL     1      -9.336  12.928  67.856  1.00  0.00    -0.208 A  
HETATM   16  C   UNL     1      -9.744  14.266  67.881  1.00  0.00    -0.222 A  
HETATM   17 CL   UNL     1     -11.305  14.642  67.244  1.00  0.00    -0.348 Cl 
HETATM   18  C   UNL     1      -8.893  15.236  68.409  1.00  0.00    -0.179 A  
HETATM   19  C   UNL     1      -7.637  14.862  68.897  1.00  0.00    -0.144 A  
HETATM   20 CL   UNL     1      -9.328  16.906  68.481  1.00  0.00    -0.251 Cl 
HETATM   21  C   UNL     1      -7.233  13.520  68.869  1.00  0.00    -0.070 A  
ENDBRANCH  12  14
ENDBRANCH  10  12
ENDBRANCH   8  10
ENDBRANCH   5   8
TORSDOF 4
ENDMDL
MODEL      200
REMARK 921   NORMALIZED FREE ENERGY PREDICTED BY IDOCK:   -3.72 KCAL/MOL
REMARK 922        TOTAL FREE ENERGY PREDICTED BY IDOCK:   -5.20 KCAL/MOL
REMARK 923 INTER-LIGAND FREE ENERGY PREDICTED BY IDOCK:   -4.54 KCAL/MOL
REMARK 924 INTRA-LIGAND FREE ENERGY PREDICTED BY IDOCK:   -0.67 KCAL/MOL
REMARK 927      BINDING AFFINITY PREDICTED BY RF-SCORE:    0.00 PKD
ROOT
HETATM    1 CL   UNL     1      -9.149  12.776  66.397  1.00  0.00    -0.152 Cl 
HETATM    2  C   UNL     1      -9.068  11.078  66.656  1.00  0.00    -0.166 A  
HETATM    3  C   UNL     1      -7.832  10.457  66.777  1.00  0.00    -0.117 A  
HETATM    4  C   UNL     1      -7.771   9.080  66.997  1.00  0.00    -0.098 A  
HETATM    5  C   UNL     1      -8.936   8.310  67.114  1.00  0.00    -0.138 A  
HETATM    6  C   UNL     1     -10.240  10.326  66.741  1.00  0.00    -0.286 A  
HETATM    7  C   UNL     1     -10.174   8.942  66.957  1.00  0.00    -0.345 A  
ENDROOT
BRANCH   5   8
HETATM    8  N   UNL     1      -8.908   6.916  67.368  1.00  0.00    -0.118 N  
HETATM    9  H   UNL     1      -8.077   6.394  67.090  1.00  0.00     0.000 HD 
BRANCH   8  10
HETATM   10  C   UNL     1      -9.942   6.221  67.973  1.00  0.00    -0.137 C  
HETATM   11  O   UNL     1     -10.799   5.602  67.350  1.00  0.00    -0.243 OA 
BRANCH  10  12
HETATM   12  N   UNL     1      -9.912   6.293  69.356  1.00  0.00    -0.154 N  
HETATM   13  H   UNL     1      -9.241   5.707  69.853  1.00  0.00     0.000 HD 
BRANCH  12  14
HETATM   14  C   UNL     1     -10.760   7.134  70.120  1.00  0.00    -0.240 A  
HETATM   15  C   UNL     1     -12.030   6.730  70.554  1.00  0.00    -0.385 A  
HETATM   16  C   UNL     1     -12.831   7.569  71.336  1.00  0.00    -0.342 A  
HETATM   17 CL   UNL     1     -14.371   6.969  71.841  1.00  0.00    -0.482 Cl 
HETATM   18  C   UNL     1     -12.371   8.840  71.677  1.00  0.00    -0.337 A  
HETATM   19  C   UNL     1     -11.118   9.266  71.224  1.00  0.00    -0.427 A  
HETATM   20 CL   UNL     1     -13.297   9.930  72.645  1.00  0.00    -0.148 Cl 
HETATM   21  C   UNL     1     -10.320   8.421  70.440  1.00  0.00    -0.219 A  
ENDBRANCH  12  14
ENDBRANCH  10  12
ENDBRANCH   8  10
ENDBRANCH   5   8
TORSDOF 4
ENDMDL
MODEL      201
REMARK 921   NORMALIZED FREE ENERGY PREDICTED BY IDOCK:   -3.72 KCAL/MOL
REMARK 922        TOTAL FREE ENERGY PREDICTED BY IDOCK:   -5.20 KCAL/MOL
REMARK 923 INTER-LIGAND FREE ENERGY PREDICTED BY IDOCK:   -4.86 KCAL/MOL
REMARK 924 INTRA-LIGAND FREE ENERGY PREDICTED BY IDOCK:   -0.34 KCAL/MOL
REMARK 927      BINDING AFFINITY PREDICTED BY RF-SCORE:    0.00 PKD
ROOT
HETATM    1 CL   UNL     1     -12.345  14.329  66.117  1.00  0.00    -0.445 Cl 
HETATM    2  C   UNL     1     -11.607  12.922  66.774  1.00  0.00    -0.360 A  
HETATM    3  C   UNL     1     -10.526  12.343  66.122  1.00  0.00    -0.274 A  
HETATM    4  C   UNL     1      -9.923  11.207  66.664  1.00  0.00    -0.244 A  
HETATM    5  C   UNL     1     -10.378  10.645  67.864  1.00  0.00    -0.199 A  
HETATM    6  C   UNL     1     -12.094  12.363  67.955  1.00  0.00    -0.084 A  
HETATM    7  C   UNL     1     -11.488  11.218  68.493  1.00  0.00    -0.372 A  
ENDROOT
BRANCH   5   8
HETATM    8  N   UNL     1      -9.767   9.510  68.456  1.00  0.00    -0.149 N  
HETATM    9  H   UNL     1      -8.921   9.141  68.024  1.00  0.00     0.000 HD 
BRANCH   8  10
HETATM   10  C   UNL     1     -10.253   8.874  69.586  1.00  0.00    -0.206 C  
HETATM   11  O   UNL     1     -10.005   9.240  70.731  1.00  0.00    -0.246 OA 
BRANCH  10  12
HETATM   12  N   UNL     1     -11.052   7.780  69.294  1.00  0.00    -0.435 N  
HETATM   13  H   UNL     1     -12.029   7.806  69.589  1.00  0.00     0.000 HD 
BRANCH  12  14
HETATM   14  C   UNL     1     -10.591   6.627  68.611  1.00  0.00    -0.234 A  
HETATM   15  C   UNL     1      -9.818   5.639  69.236  1.00  0.00    -0.230 A  
HETATM   16  C   UNL     1      -9.405   4.495  68.545  1.00  0.00    -0.143 A  
HETATM   17 CL   UNL     1      -8.475   3.324  69.411  1.00  0.00    -0.088 Cl 
HETATM   18  C   UNL     1      -9.751   4.337  67.203  1.00  0.00    -0.196 A  
HETATM   19  C   UNL     1     -10.496   5.331  66.560  1.00  0.00    -0.354 A  
HETATM   20 CL   UNL     1      -9.286   2.950  66.285  1.00  0.00    -0.138 Cl 
HETATM   21  C   UNL     1     -10.905   6.477  67.257  1.00  0.00    -0.463 A  
ENDBRANCH  12  14
ENDBRANCH  10  12
ENDBRANCH   8  10
ENDBRANCH   5   8
TORSDOF 4
ENDMDL
MODEL      202
REMARK 921   NORMALIZED FREE ENERGY PREDICTED BY IDOCK:   -3.72 KCAL/MOL
REMARK 922        TOTAL FREE ENERGY PREDICTED BY IDOCK:   -5.20 KCAL/MOL
REMARK 923 INTER-LIGAND FREE ENERGY PREDICTED BY IDOCK:   -4.56 KCAL/MOL
REMARK 924 INTRA-LIGAND FREE ENERGY PREDICTED BY IDOCK:   -0.64 KCAL/MOL
REMARK 927      BINDING AFFINITY PREDICTED BY RF-SCORE:    0.00 PKD
ROOT
HETATM    1 CL   UNL     1      -5.740  18.582  70.374  1.00  0.00    -0.214 Cl 
HETATM    2  C   UNL     1      -6.101  17.067  69.646  1.00  0.00    -0.231 A  
HETATM    3  C   UNL     1      -6.662  17.029  68.377  1.00  0.00    -0.170 A  
HETATM    4  C   UNL     1      -6.944  15.796  67.785  1.00  0.00    -0.173 A  
HETATM    5  C   UNL     1      -6.656  14.591  68.442  1.00  0.00    -0.103 A  
HETATM    6  C   UNL     1      -5.832  15.881  70.329  1.00  0.00    -0.122 A  
HETATM    7  C   UNL     1      -6.122  14.645  69.733  1.00  0.00    -0.131 A  
ENDROOT
BRANCH   5   8
HETATM    8  N   UNL     1      -6.902  13.325  67.855  1.00  0.00    -0.122 N  
HETATM    9  H   UNL     1      -6.407  13.090  66.995  1.00  0.00     0.000 HD 
BRANCH   8  10
HETATM   10  C   UNL     1      -7.774  12.386  68.382  1.00  0.00    -0.144 C  
HETATM   11  O   UNL     1      -7.412  11.310  68.848  1.00  0.00    -0.112 OA 
BRANCH  10  12
HETATM   12  N   UNL     1      -9.099  12.786  68.332  1.00  0.00    -0.325 N  
HETATM   13  H   UNL     1      -9.554  13.051  69.206  1.00  0.00     0.000 HD 
BRANCH  12  14
HETATM   14  C   UNL     1      -9.859  12.847  67.137  1.00  0.00    -0.225 A  
HETATM   15  C   UNL     1     -10.230  14.061  66.541  1.00  0.00    -0.279 A  
HETATM   16  C   UNL     1     -10.951  14.090  65.342  1.00  0.00    -0.321 A  
HETATM   17 CL   UNL     1     -11.339  15.636  64.675  1.00  0.00    -0.409 Cl 
HETATM   18  C   UNL     1     -11.329  12.893  64.735  1.00  0.00    -0.315 A  
HETATM   19  C   UNL     1     -10.992  11.677  65.337  1.00  0.00    -0.328 A  
HETATM   20 CL   UNL     1     -12.213  12.847  63.253  1.00  0.00    -0.590 Cl 
HETATM   21  C   UNL     1     -10.270  11.653  66.539  1.00  0.00    -0.249 A  
ENDBRANCH  12  14
ENDBRANCH  10  12
ENDBRANCH   8  10
ENDBRANCH   5   8
TORSDOF 4
ENDMDL
MODEL      203
REMARK 921   NORMALIZED FREE ENERGY PREDICTED BY IDOCK:   -3.70 KCAL/MOL
REMARK 922        TOTAL FREE ENERGY PREDICTED BY IDOCK:   -5.17 KCAL/MOL
REMARK 923 INTER-LIGAND FREE ENERGY PREDICTED BY IDOCK:   -5.01 KCAL/MOL
REMARK 924 INTRA-LIGAND FREE ENERGY PREDICTED BY IDOCK:   -0.16 KCAL/MOL
REMARK 927      BINDING AFFINITY PREDICTED BY RF-SCORE:    0.00 PKD
ROOT
HETATM    1 CL   UNL     1      -6.752   6.961  69.870  1.00  0.00    -0.048 Cl 
HETATM    2  C   UNL     1      -8.308   7.688  69.956  1.00  0.00    -0.134 A  
HETATM    3  C   UNL     1      -9.241   7.438  68.959  1.00  0.00    -0.146 A  
HETATM    4  C   UNL     1     -10.507   8.021  69.038  1.00  0.00    -0.212 A  
HETATM    5  C   UNL     1     -10.861   8.846  70.114  1.00  0.00    -0.231 A  
HETATM    6  C   UNL     1      -8.630   8.527  71.022  1.00  0.00    -0.190 A  
HETATM    7  C   UNL     1      -9.900   9.116  71.095  1.00  0.00    -0.371 A  
ENDROOT
BRANCH   5   8
HETATM    8  N   UNL     1     -12.147   9.428  70.239  1.00  0.00    -0.465 N  
HETATM    9  H   UNL     1     -12.911   8.838  70.569  1.00  0.00     0.000 HD 
BRANCH   8  10
HETATM   10  C   UNL     1     -12.428  10.751  69.939  1.00  0.00    -0.209 C  
HETATM   11  O   UNL     1     -12.773  11.578  70.777  1.00  0.00    -0.301 OA 
BRANCH  10  12
HETATM   12  N   UNL     1     -12.278  11.048  68.594  1.00  0.00    -0.326 N  
HETATM   13  H   UNL     1     -12.735  10.440  67.914  1.00  0.00     0.000 HD 
BRANCH  12  14
HETATM   14  C   UNL     1     -11.528  12.148  68.109  1.00  0.00    -0.317 A  
HETATM   15  C   UNL     1     -11.061  13.171  68.947  1.00  0.00    -0.310 A  
HETATM   16  C   UNL     1     -10.293  14.227  68.445  1.00  0.00    -0.247 A  
HETATM   17 CL   UNL     1      -9.747  15.426  69.563  1.00  0.00    -0.261 Cl 
HETATM   18  C   UNL     1      -9.999  14.279  67.083  1.00  0.00    -0.255 A  
HETATM   19  C   UNL     1     -10.485  13.282  66.232  1.00  0.00    -0.289 A  
HETATM   20 CL   UNL     1      -9.052  15.546  66.390  1.00  0.00    -0.326 Cl 
HETATM   21  C   UNL     1     -11.255  12.226  66.741  1.00  0.00    -0.371 A  
ENDBRANCH  12  14
ENDBRANCH  10  12
ENDBRANCH   8  10
ENDBRANCH   5   8
TORSDOF 4
ENDMDL
MODEL      204
REMARK 921   NORMALIZED FREE ENERGY PREDICTED BY IDOCK:   -3.69 KCAL/MOL
REMARK 922        TOTAL FREE ENERGY PREDICTED BY IDOCK:   -5.16 KCAL/MOL
REMARK 923 INTER-LIGAND FREE ENERGY PREDICTED BY IDOCK:   -4.39 KCAL/MOL
REMARK 924 INTRA-LIGAND FREE ENERGY PREDICTED BY IDOCK:   -0.77 KCAL/MOL
REMARK 927      BINDING AFFINITY PREDICTED BY RF-SCORE:    0.00 PKD
ROOT
HETATM    1 CL   UNL     1     -11.813  13.317  69.765  1.00  0.00    -0.389 Cl 
HETATM    2  C   UNL     1     -11.113  12.673  68.333  1.00  0.00    -0.265 A  
HETATM    3  C   UNL     1     -11.823  12.713  67.140  1.00  0.00    -0.399 A  
HETATM    4  C   UNL     1     -11.247  12.198  65.977  1.00  0.00    -0.382 A  
HETATM    5  C   UNL     1      -9.956  11.653  65.986  1.00  0.00    -0.228 A  
HETATM    6  C   UNL     1      -9.838  12.109  68.370  1.00  0.00    -0.200 A  
HETATM    7  C   UNL     1      -9.265  11.588  67.201  1.00  0.00    -0.171 A  
ENDROOT
BRANCH   5   8
HETATM    8  N   UNL     1      -9.331  11.151  64.817  1.00  0.00    -0.287 N  
HETATM    9  H   UNL     1      -9.508  11.630  63.935  1.00  0.00     0.000 HD 
BRANCH   8  10
HETATM   10  C   UNL     1      -8.495  10.046  64.802  1.00  0.00    -0.173 C  
HETATM   11  O   UNL     1      -7.271  10.122  64.756  1.00  0.00    -0.137 OA 
BRANCH  10  12
HETATM   12  N   UNL     1      -9.181   8.843  64.847  1.00  0.00    -0.436 N  
HETATM   13  H   UNL     1      -9.625   8.512  63.990  1.00  0.00     0.000 HD 
BRANCH  12  14
HETATM   14  C   UNL     1      -9.301   8.047  66.013  1.00  0.00    -0.091 A  
HETATM   15  C   UNL     1      -8.258   7.236  66.484  1.00  0.00    -0.117 A  
HETATM   16  C   UNL     1      -8.394   6.488  67.657  1.00  0.00    -0.121 A  
HETATM   17 CL   UNL     1      -7.042   5.538  68.166  1.00  0.00    -0.065 Cl 
HETATM   18  C   UNL     1      -9.593   6.529  68.367  1.00  0.00    -0.122 A  
HETATM   19  C   UNL     1     -10.651   7.309  67.891  1.00  0.00    -0.266 A  
HETATM   20 CL   UNL     1      -9.834   5.639  69.827  1.00  0.00    -0.225 Cl 
HETATM   21  C   UNL     1     -10.510   8.057  66.713  1.00  0.00    -0.319 A  
ENDBRANCH  12  14
ENDBRANCH  10  12
ENDBRANCH   8  10
ENDBRANCH   5   8
TORSDOF 4
ENDMDL
MODEL      205
REMARK 921   NORMALIZED FREE ENERGY PREDICTED BY IDOCK:   -3.68 KCAL/MOL
REMARK 922        TOTAL FREE ENERGY PREDICTED BY IDOCK:   -5.16 KCAL/MOL
REMARK 923 INTER-LIGAND FREE ENERGY PREDICTED BY IDOCK:   -4.75 KCAL/MOL
REMARK 924 INTRA-LIGAND FREE ENERGY PREDICTED BY IDOCK:   -0.40 KCAL/MOL
REMARK 927      BINDING AFFINITY PREDICTED BY RF-SCORE:    0.00 PKD
ROOT
HETATM    1 CL   UNL     1     -13.453  16.075  73.414  1.00  0.00    -0.620 Cl 
HETATM    2  C   UNL     1     -12.843  15.624  71.871  1.00  0.00    -0.449 A  
HETATM    3  C   UNL     1     -13.721  15.221  70.874  1.00  0.00    -0.363 A  
HETATM    4  C   UNL     1     -13.222  14.865  69.619  1.00  0.00     0.788 A  
HETATM    5  C   UNL     1     -11.850  14.921  69.340  1.00  0.00    -0.324 A  
HETATM    6  C   UNL     1     -11.471  15.660  71.623  1.00  0.00    -0.506 A  
HETATM    7  C   UNL     1     -10.974  15.297  70.363  1.00  0.00    -0.317 A  
ENDROOT
BRANCH   5   8
HETATM    8  N   UNL     1     -11.316  14.597  68.067  1.00  0.00    -0.296 N  
HETATM    9  H   UNL     1     -10.346  14.845  67.877  1.00  0.00     0.000 HD 
BRANCH   8  10
HETATM   10  C   UNL     1     -12.035  13.962  67.068  1.00  0.00    -0.424 C  
HETATM   11  O   UNL     1     -12.487  14.541  66.084  1.00  0.00    -0.315 OA 
BRANCH  10  12
HETATM   12  N   UNL     1     -12.193  12.603  67.289  1.00  0.00    -0.087 N  
HETATM   13  H   UNL     1     -12.992  12.137  66.861  1.00  0.00     0.000 HD 
BRANCH  12  14
HETATM   14  C   UNL     1     -11.309  11.825  68.078  1.00  0.00    -0.288 A  
HETATM   15  C   UNL     1      -9.979  11.583  67.704  1.00  0.00    -0.199 A  
HETATM   16  C   UNL     1      -9.120  10.840  68.519  1.00  0.00    -0.170 A  
HETATM   17 CL   UNL     1      -7.493  10.617  67.980  1.00  0.00    -0.089 Cl 
HETATM   18  C   UNL     1      -9.593  10.310  69.719  1.00  0.00    -0.108 A  
HETATM   19  C   UNL     1     -10.926  10.518  70.088  1.00  0.00    -0.338 A  
HETATM   20 CL   UNL     1      -8.592   9.389  70.782  1.00  0.00    -0.246 Cl 
HETATM   21  C   UNL     1     -11.784  11.263  69.266  1.00  0.00    -0.403 A  
ENDBRANCH  12  14
ENDBRANCH  10  12
ENDBRANCH   8  10
ENDBRANCH   5   8
TORSDOF 4
ENDMDL
MODEL      206
REMARK 921   NORMALIZED FREE ENERGY PREDICTED BY IDOCK:   -3.67 KCAL/MOL
REMARK 922        TOTAL FREE ENERGY PREDICTED BY IDOCK:   -5.14 KCAL/MOL
REMARK 923 INTER-LIGAND FREE ENERGY PREDICTED BY IDOCK:   -4.67 KCAL/MOL
REMARK 924 INTRA-LIGAND FREE ENERGY PREDICTED BY IDOCK:   -0.46 KCAL/MOL
REMARK 927      BINDING AFFINITY PREDICTED BY RF-SCORE:    0.00 PKD
ROOT
HETATM    1 CL   UNL     1     -12.629  17.360  74.240  1.00  0.00     0.610 Cl 
HETATM    2  C   UNL     1     -12.866  15.872  73.412  1.00  0.00    -0.576 A  
HETATM    3  C   UNL     1     -13.850  15.775  72.437  1.00  0.00    -0.526 A  
HETATM    4  C   UNL     1     -14.032  14.568  71.760  1.00  0.00    -0.556 A  
HETATM    5  C   UNL     1     -13.231  13.451  72.036  1.00  0.00    -0.438 A  
HETATM    6  C   UNL     1     -12.076  14.765  73.722  1.00  0.00    -0.380 A  
HETATM    7  C   UNL     1     -12.267  13.553  73.044  1.00  0.00     1.322 A  
ENDROOT
BRANCH   5   8
HETATM    8  N   UNL     1     -13.372  12.222  71.345  1.00  0.00    -0.073 N  
HETATM    9  H   UNL     1     -14.307  11.825  71.256  1.00  0.00     0.000 HD 
BRANCH   8  10
HETATM   10  C   UNL     1     -12.313  11.527  70.784  1.00  0.00    -0.375 C  
HETATM   11  O   UNL     1     -12.177  10.310  70.871  1.00  0.00    -0.306 OA 
BRANCH  10  12
HETATM   12  N   UNL     1     -11.420  12.345  70.110  1.00  0.00    -0.520 N  
HETATM   13  H   UNL     1     -10.666  12.776  70.645  1.00  0.00     0.000 HD 
BRANCH  12  14
HETATM   14  C   UNL     1     -11.495  12.618  68.721  1.00  0.00    -0.306 A  
HETATM   15  C   UNL     1     -11.091  11.694  67.748  1.00  0.00    -0.309 A  
HETATM   16  C   UNL     1     -11.209  11.979  66.383  1.00  0.00    -0.337 A  
HETATM   17 CL   UNL     1     -10.705  10.764  65.262  1.00  0.00    -0.220 Cl 
HETATM   18  C   UNL     1     -11.720  13.211  65.977  1.00  0.00    -0.379 A  
HETATM   19  C   UNL     1     -12.098  14.153  66.939  1.00  0.00    -0.466 A  
HETATM   20 CL   UNL     1     -11.903  13.633  64.312  1.00  0.00    -0.445 Cl 
HETATM   21  C   UNL     1     -11.976  13.863  68.305  1.00  0.00    -0.392 A  
ENDBRANCH  12  14
ENDBRANCH  10  12
ENDBRANCH   8  10
ENDBRANCH   5   8
TORSDOF 4
ENDMDL
MODEL      207
REMARK 921   NORMALIZED FREE ENERGY PREDICTED BY IDOCK:   -3.66 KCAL/MOL
REMARK 922        TOTAL FREE ENERGY PREDICTED BY IDOCK:   -5.13 KCAL/MOL
REMARK 923 INTER-LIGAND FREE ENERGY PREDICTED BY IDOCK:   -4.75 KCAL/MOL
REMARK 924 INTRA-LIGAND FREE ENERGY PREDICTED BY IDOCK:   -0.38 KCAL/MOL
REMARK 927      BINDING AFFINITY PREDICTED BY RF-SCORE:    0.00 PKD
ROOT
HETATM    1 CL   UNL     1     -12.397  15.098  64.303  1.00  0.00    -0.370 Cl 
HETATM    2  C   UNL     1     -11.459  13.775  64.874  1.00  0.00    -0.343 A  
HETATM    3  C   UNL     1     -10.527  13.976  65.883  1.00  0.00    -0.314 A  
HETATM    4  C   UNL     1      -9.775  12.897  66.351  1.00  0.00    -0.263 A  
HETATM    5  C   UNL     1      -9.952  11.607  65.831  1.00  0.00    -0.231 A  
HETATM    6  C   UNL     1     -11.631  12.505  64.322  1.00  0.00    -0.435 A  
HETATM    7  C   UNL     1     -10.870  11.425  64.791  1.00  0.00    -0.339 A  
ENDROOT
BRANCH   5   8
HETATM    8  N   UNL     1      -9.226  10.487  66.306  1.00  0.00    -0.164 N  
HETATM    9  H   UNL     1      -9.146  10.358  67.314  1.00  0.00     0.000 HD 
BRANCH   8  10
HETATM   10  C   UNL     1      -8.617   9.555  65.481  1.00  0.00    -0.146 C  
HETATM   11  O   UNL     1      -7.596   9.782  64.838  1.00  0.00    -0.116 OA 
BRANCH  10  12
HETATM   12  N   UNL     1      -9.277   8.337  65.454  1.00  0.00    -0.408 N  
HETATM   13  H   UNL     1      -9.784   8.084  64.606  1.00  0.00     0.000 HD 
BRANCH  12  14
HETATM   14  C   UNL     1      -9.287   7.423  66.537  1.00  0.00    -0.173 A  
HETATM   15  C   UNL     1     -10.307   7.404  67.499  1.00  0.00    -0.320 A  
HETATM   16  C   UNL     1     -10.308   6.467  68.538  1.00  0.00    -0.197 A  
HETATM   17 CL   UNL     1     -11.622   6.511  69.659  1.00  0.00    -0.416 Cl 
HETATM   18  C   UNL     1      -9.267   5.544  68.635  1.00  0.00    -0.122 A  
HETATM   19  C   UNL     1      -8.228   5.573  67.700  1.00  0.00    -0.101 A  
HETATM   20 CL   UNL     1      -9.202   4.353  69.884  1.00  0.00    -0.181 Cl 
HETATM   21  C   UNL     1      -8.231   6.515  66.662  1.00  0.00    -0.112 A  
ENDBRANCH  12  14
ENDBRANCH  10  12
ENDBRANCH   8  10
ENDBRANCH   5   8
TORSDOF 4
ENDMDL
MODEL      208
REMARK 921   NORMALIZED FREE ENERGY PREDICTED BY IDOCK:   -3.66 KCAL/MOL
REMARK 922        TOTAL FREE ENERGY PREDICTED BY IDOCK:   -5.13 KCAL/MOL
REMARK 923 INTER-LIGAND FREE ENERGY PREDICTED BY IDOCK:   -4.52 KCAL/MOL
REMARK 924 INTRA-LIGAND FREE ENERGY PREDICTED BY IDOCK:   -0.61 KCAL/MOL
REMARK 927      BINDING AFFINITY PREDICTED BY RF-SCORE:    0.00 PKD
ROOT
HETATM    1 CL   UNL     1     -14.244   8.667  72.626  1.00  0.00    -0.365 Cl 
HETATM    2  C   UNL     1     -12.925   9.212  71.668  1.00  0.00    -0.365 A  
HETATM    3  C   UNL     1     -13.032  10.403  70.962  1.00  0.00    -0.490 A  
HETATM    4  C   UNL     1     -11.955  10.847  70.193  1.00  0.00    -0.435 A  
HETATM    5  C   UNL     1     -10.758  10.121  70.130  1.00  0.00    -0.300 A  
HETATM    6  C   UNL     1     -11.753   8.459  71.597  1.00  0.00    -0.354 A  
HETATM    7  C   UNL     1     -10.675   8.906  70.819  1.00  0.00    -0.287 A  
ENDROOT
BRANCH   5   8
HETATM    8  N   UNL     1      -9.636  10.561  69.384  1.00  0.00    -0.357 N  
HETATM    9  H   UNL     1      -8.942  11.139  69.856  1.00  0.00     0.000 HD 
BRANCH   8  10
HETATM   10  C   UNL     1      -9.428  10.251  68.050  1.00  0.00    -0.146 C  
HETATM   11  O   UNL     1      -9.980  10.836  67.123  1.00  0.00    -0.184 OA 
BRANCH  10  12
HETATM   12  N   UNL     1      -8.529   9.213  67.865  1.00  0.00    -0.117 N  
HETATM   13  H   UNL     1      -7.568   9.349  68.177  1.00  0.00     0.000 HD 
BRANCH  12  14
HETATM   14  C   UNL     1      -8.869   7.973  67.268  1.00  0.00    -0.131 A  
HETATM   15  C   UNL     1      -8.381   7.581  66.013  1.00  0.00    -0.136 A  
HETATM   16  C   UNL     1      -8.707   6.336  65.464  1.00  0.00    -0.082 A  
HETATM   17 CL   UNL     1      -8.035   5.937  63.923  1.00  0.00    -0.119 Cl 
HETATM   18  C   UNL     1      -9.548   5.473  66.164  1.00  0.00    -0.139 A  
HETATM   19  C   UNL     1     -10.067   5.865  67.402  1.00  0.00    -0.201 A  
HETATM   20 CL   UNL     1      -9.990   3.918  65.556  1.00  0.00    -0.157 Cl 
HETATM   21  C   UNL     1      -9.738   7.115  67.947  1.00  0.00    -0.156 A  
ENDBRANCH  12  14
ENDBRANCH  10  12
ENDBRANCH   8  10
ENDBRANCH   5   8
TORSDOF 4
ENDMDL
MODEL      209
REMARK 921   NORMALIZED FREE ENERGY PREDICTED BY IDOCK:   -3.64 KCAL/MOL
REMARK 922        TOTAL FREE ENERGY PREDICTED BY IDOCK:   -5.10 KCAL/MOL
REMARK 923 INTER-LIGAND FREE ENERGY PREDICTED BY IDOCK:   -4.35 KCAL/MOL
REMARK 924 INTRA-LIGAND FREE ENERGY PREDICTED BY IDOCK:   -0.75 KCAL/MOL
REMARK 927      BINDING AFFINITY PREDICTED BY RF-SCORE:    0.00 PKD
ROOT
HETATM    1 CL   UNL     1      -7.929   8.418  74.305  1.00  0.00    -0.284 Cl 
HETATM    2  C   UNL     1      -8.666   7.524  73.036  1.00  0.00    -0.149 A  
HETATM    3  C   UNL     1      -7.873   6.900  72.082  1.00  0.00    -0.094 A  
HETATM    4  C   UNL     1      -8.476   6.165  71.059  1.00  0.00    -0.128 A  
HETATM    5  C   UNL     1      -9.869   6.033  70.982  1.00  0.00    -0.183 A  
HETATM    6  C   UNL     1     -10.056   7.428  72.963  1.00  0.00    -0.323 A  
HETATM    7  C   UNL     1     -10.657   6.694  71.930  1.00  0.00    -0.237 A  
ENDROOT
BRANCH   5   8
HETATM    8  N   UNL     1     -10.509   5.269  69.974  1.00  0.00    -0.300 N  
HETATM    9  H   UNL     1     -11.005   4.423  70.255  1.00  0.00     0.000 HD 
BRANCH   8  10
HETATM   10  C   UNL     1     -10.501   5.605  68.630  1.00  0.00    -0.207 C  
HETATM   11  O   UNL     1      -9.932   4.941  67.769  1.00  0.00    -0.161 OA 
BRANCH  10  12
HETATM   12  N   UNL     1     -11.203   6.767  68.354  1.00  0.00    -0.543 N  
HETATM   13  H   UNL     1     -12.219   6.747  68.443  1.00  0.00     0.000 HD 
BRANCH  12  14
HETATM   14  C   UNL     1     -10.590   7.981  67.955  1.00  0.00    -0.145 A  
HETATM   15  C   UNL     1     -10.151   8.209  66.643  1.00  0.00    -0.344 A  
HETATM   16  C   UNL     1      -9.581   9.431  66.270  1.00  0.00    -0.234 A  
HETATM   17 CL   UNL     1      -9.093   9.620  64.623  1.00  0.00    -0.279 Cl 
HETATM   18  C   UNL     1      -9.427  10.439  67.221  1.00  0.00    -0.154 A  
HETATM   19  C   UNL     1      -9.833  10.213  68.540  1.00  0.00    -0.165 A  
HETATM   20 CL   UNL     1      -8.739  11.975  66.836  1.00  0.00    -0.190 Cl 
HETATM   21  C   UNL     1     -10.402   8.985  68.909  1.00  0.00    -0.232 A  
ENDBRANCH  12  14
ENDBRANCH  10  12
ENDBRANCH   8  10
ENDBRANCH   5   8
TORSDOF 4
ENDMDL
MODEL      210
REMARK 921   NORMALIZED FREE ENERGY PREDICTED BY IDOCK:   -3.60 KCAL/MOL
REMARK 922        TOTAL FREE ENERGY PREDICTED BY IDOCK:   -5.05 KCAL/MOL
REMARK 923 INTER-LIGAND FREE ENERGY PREDICTED BY IDOCK:   -4.52 KCAL/MOL
REMARK 924 INTRA-LIGAND FREE ENERGY PREDICTED BY IDOCK:   -0.53 KCAL/MOL
REMARK 927      BINDING AFFINITY PREDICTED BY RF-SCORE:    0.00 PKD
ROOT
HETATM    1 CL   UNL     1      -5.500  11.748  69.201  1.00  0.00    -0.047 Cl 
HETATM    2  C   UNL     1      -6.836  12.689  68.666  1.00  0.00    -0.091 A  
HETATM    3  C   UNL     1      -6.806  14.070  68.807  1.00  0.00    -0.103 A  
HETATM    4  C   UNL     1      -7.889  14.832  68.362  1.00  0.00    -0.128 A  
HETATM    5  C   UNL     1      -9.002  14.229  67.760  1.00  0.00    -0.188 A  
HETATM    6  C   UNL     1      -7.946  12.067  68.096  1.00  0.00    -0.152 A  
HETATM    7  C   UNL     1      -9.034  12.835  67.655  1.00  0.00    -0.191 A  
ENDROOT
BRANCH   5   8
HETATM    8  N   UNL     1     -10.103  14.977  67.271  1.00  0.00    -0.235 N  
HETATM    9  H   UNL     1     -10.576  14.641  66.433  1.00  0.00     0.000 HD 
BRANCH   8  10
HETATM   10  C   UNL     1     -10.572  16.138  67.863  1.00  0.00    -0.309 C  
HETATM   11  O   UNL     1     -11.113  16.167  68.964  1.00  0.00    -0.294 OA 
BRANCH  10  12
HETATM   12  N   UNL     1     -10.367  17.267  67.087  1.00  0.00    -0.322 N  
HETATM   13  H   UNL     1     -11.020  17.452  66.327  1.00  0.00     0.000 HD 
BRANCH  12  14
HETATM   14  C   UNL     1      -9.301  18.179  67.290  1.00  0.00    -0.252 A  
HETATM   15  C   UNL     1      -8.603  18.771  66.228  1.00  0.00    -0.247 A  
HETATM   16  C   UNL     1      -7.578  19.695  66.459  1.00  0.00    -0.269 A  
HETATM   17 CL   UNL     1      -6.794  20.386  65.082  1.00  0.00    -0.316 Cl 
HETATM   18  C   UNL     1      -7.226  20.023  67.767  1.00  0.00    -0.291 A  
HETATM   19  C   UNL     1      -7.894  19.416  68.835  1.00  0.00    -0.370 A  
HETATM   20 CL   UNL     1      -5.977  21.158  68.132  1.00  0.00    -0.393 Cl 
HETATM   21  C   UNL     1      -8.920  18.490  68.598  1.00  0.00    -0.323 A  
ENDBRANCH  12  14
ENDBRANCH  10  12
ENDBRANCH   8  10
ENDBRANCH   5   8
TORSDOF 4
ENDMDL
MODEL      211
REMARK 921   NORMALIZED FREE ENERGY PREDICTED BY IDOCK:   -3.58 KCAL/MOL
REMARK 922        TOTAL FREE ENERGY PREDICTED BY IDOCK:   -5.03 KCAL/MOL
REMARK 923 INTER-LIGAND FREE ENERGY PREDICTED BY IDOCK:   -4.40 KCAL/MOL
REMARK 924 INTRA-LIGAND FREE ENERGY PREDICTED BY IDOCK:   -0.63 KCAL/MOL
REMARK 927      BINDING AFFINITY PREDICTED BY RF-SCORE:    0.00 PKD
ROOT
HETATM    1 CL   UNL     1      -5.151  13.615  71.004  1.00  0.00    -0.120 Cl 
HETATM    2  C   UNL     1      -6.298  13.706  69.725  1.00  0.00    -0.096 A  
HETATM    3  C   UNL     1      -7.073  14.847  69.575  1.00  0.00    -0.184 A  
HETATM    4  C   UNL     1      -7.996  14.921  68.529  1.00  0.00    -0.140 A  
HETATM    5  C   UNL     1      -8.145  13.868  67.616  1.00  0.00    -0.177 A  
HETATM    6  C   UNL     1      -6.449  12.635  68.844  1.00  0.00    -0.091 A  
HETATM    7  C   UNL     1      -7.380  12.711  67.799  1.00  0.00    -0.128 A  
ENDROOT
BRANCH   5   8
HETATM    8  N   UNL     1      -9.049  13.925  66.527  1.00  0.00    -0.446 N  
HETATM    9  H   UNL     1      -8.785  13.460  65.658  1.00  0.00     0.000 HD 
BRANCH   8  10
HETATM   10  C   UNL     1     -10.272  14.575  66.572  1.00  0.00    -0.279 C  
HETATM   11  O   UNL     1     -11.231  14.172  67.223  1.00  0.00    -0.296 OA 
BRANCH  10  12
HETATM   12  N   UNL     1     -10.303  15.731  65.808  1.00  0.00    -0.345 N  
HETATM   13  H   UNL     1     -10.804  15.706  64.920  1.00  0.00     0.000 HD 
BRANCH  12  14
HETATM   14  C   UNL     1      -9.678  16.944  66.190  1.00  0.00    -0.272 A  
HETATM   15  C   UNL     1     -10.312  17.896  67.001  1.00  0.00    -0.366 A  
HETATM   16  C   UNL     1      -9.657  19.070  67.390  1.00  0.00    -0.306 A  
HETATM   17 CL   UNL     1     -10.516  20.169  68.411  1.00  0.00    -0.444 Cl 
HETATM   18  C   UNL     1      -8.357  19.313  66.948  1.00  0.00    -0.283 A  
HETATM   19  C   UNL     1      -7.726  18.386  66.113  1.00  0.00    -0.253 A  
HETATM   20 CL   UNL     1      -7.482  20.734  67.391  1.00  0.00    -0.395 Cl 
HETATM   21  C   UNL     1      -8.387  17.212  65.726  1.00  0.00     0.223 A  
ENDBRANCH  12  14
ENDBRANCH  10  12
ENDBRANCH   8  10
ENDBRANCH   5   8
TORSDOF 4
ENDMDL
MODEL      212
REMARK 921   NORMALIZED FREE ENERGY PREDICTED BY IDOCK:   -3.56 KCAL/MOL
REMARK 922        TOTAL FREE ENERGY PREDICTED BY IDOCK:   -5.01 KCAL/MOL
REMARK 923 INTER-LIGAND FREE ENERGY PREDICTED BY IDOCK:   -4.94 KCAL/MOL
REMARK 924 INTRA-LIGAND FREE ENERGY PREDICTED BY IDOCK:   -0.07 KCAL/MOL
REMARK 927      BINDING AFFINITY PREDICTED BY RF-SCORE:    0.00 PKD
ROOT
HETATM    1 CL   UNL     1     -11.264   4.474  73.547  1.00  0.00    -0.398 Cl 
HETATM    2  C   UNL     1     -11.138   5.375  72.088  1.00  0.00    -0.168 A  
HETATM    3  C   UNL     1     -12.082   6.351  71.798  1.00  0.00    -0.351 A  
HETATM    4  C   UNL     1     -11.970   7.088  70.617  1.00  0.00    -0.361 A  
HETATM    5  C   UNL     1     -10.912   6.872  69.723  1.00  0.00    -0.270 A  
HETATM    6  C   UNL     1     -10.093   5.125  71.199  1.00  0.00    -0.291 A  
HETATM    7  C   UNL     1      -9.987   5.864  70.012  1.00  0.00    -0.239 A  
ENDROOT
BRANCH   5   8
HETATM    8  N   UNL     1     -10.754   7.625  68.533  1.00  0.00    -0.386 N  
HETATM    9  H   UNL     1     -10.676   8.638  68.612  1.00  0.00     0.000 HD 
BRANCH   8  10
HETATM   10  C   UNL     1     -10.700   7.064  67.267  1.00  0.00    -0.342 C  
HETATM   11  O   UNL     1     -11.015   5.903  67.025  1.00  0.00    -0.297 OA 
BRANCH  10  12
HETATM   12  N   UNL     1     -10.255   7.949  66.298  1.00  0.00    -0.448 N  
HETATM   13  H   UNL     1     -10.231   7.628  65.330  1.00  0.00     0.000 HD 
BRANCH  12  14
HETATM   14  C   UNL     1      -9.830   9.272  66.574  1.00  0.00    -0.263 A  
HETATM   15  C   UNL     1      -8.519   9.577  66.967  1.00  0.00    -0.128 A  
HETATM   16  C   UNL     1      -8.120  10.898  67.201  1.00  0.00    -0.127 A  
HETATM   17 CL   UNL     1      -6.476  11.171  67.659  1.00  0.00    -0.063 Cl 
HETATM   18  C   UNL     1      -9.044  11.933  67.059  1.00  0.00    -0.191 A  
HETATM   19  C   UNL     1     -10.362  11.638  66.698  1.00  0.00    -0.257 A  
HETATM   20 CL   UNL     1      -8.625  13.587  67.322  1.00  0.00    -0.209 Cl 
HETATM   21  C   UNL     1     -10.757  10.313  66.467  1.00  0.00    -0.148 A  
ENDBRANCH  12  14
ENDBRANCH  10  12
ENDBRANCH   8  10
ENDBRANCH   5   8
TORSDOF 4
ENDMDL
MODEL      213
REMARK 921   NORMALIZED FREE ENERGY PREDICTED BY IDOCK:   -3.56 KCAL/MOL
REMARK 922        TOTAL FREE ENERGY PREDICTED BY IDOCK:   -5.00 KCAL/MOL
REMARK 923 INTER-LIGAND FREE ENERGY PREDICTED BY IDOCK:   -4.85 KCAL/MOL
REMARK 924 INTRA-LIGAND FREE ENERGY PREDICTED BY IDOCK:   -0.15 KCAL/MOL
REMARK 927      BINDING AFFINITY PREDICTED BY RF-SCORE:    0.00 PKD
ROOT
HETATM    1 CL   UNL     1      -6.828  16.101  67.217  1.00  0.00    -0.219 Cl 
HETATM    2  C   UNL     1      -7.735  14.714  67.676  1.00  0.00    -0.177 A  
HETATM    3  C   UNL     1      -9.042  14.568  67.233  1.00  0.00    -0.217 A  
HETATM    4  C   UNL     1      -9.772  13.435  67.600  1.00  0.00    -0.222 A  
HETATM    5  C   UNL     1      -9.204  12.432  68.397  1.00  0.00    -0.145 A  
HETATM    6  C   UNL     1      -7.160  13.741  68.493  1.00  0.00    -0.106 A  
HETATM    7  C   UNL     1      -7.897  12.608  68.864  1.00  0.00     0.137 A  
ENDROOT
BRANCH   5   8
HETATM    8  N   UNL     1      -9.908  11.257  68.760  1.00  0.00    -0.275 N  
HETATM    9  H   UNL     1      -9.411  10.367  68.716  1.00  0.00     0.000 HD 
BRANCH   8  10
HETATM   10  C   UNL     1     -11.230  11.245  69.171  1.00  0.00    -0.273 C  
HETATM   11  O   UNL     1     -12.177  11.453  68.418  1.00  0.00    -0.571 OA 
BRANCH  10  12
HETATM   12  N   UNL     1     -11.379  10.973  70.522  1.00  0.00    -0.442 N  
HETATM   13  H   UNL     1     -11.503  11.759  71.159  1.00  0.00     0.000 HD 
BRANCH  12  14
HETATM   14  C   UNL     1     -11.368   9.665  71.068  1.00  0.00    -0.374 A  
HETATM   15  C   UNL     1     -10.224   8.855  71.062  1.00  0.00    -0.322 A  
HETATM   16  C   UNL     1     -10.235   7.580  71.640  1.00  0.00    -0.184 A  
HETATM   17 CL   UNL     1      -8.767   6.669  71.602  1.00  0.00    -0.131 Cl 
HETATM   18  C   UNL     1     -11.407   7.094  72.216  1.00  0.00    -0.265 A  
HETATM   19  C   UNL     1     -12.563   7.880  72.200  1.00  0.00    -0.283 A  
HETATM   20 CL   UNL     1     -11.497   5.535  72.954  1.00  0.00    -0.351 Cl 
HETATM   21  C   UNL     1     -12.548   9.156  71.619  1.00  0.00    -0.433 A  
ENDBRANCH  12  14
ENDBRANCH  10  12
ENDBRANCH   8  10
ENDBRANCH   5   8
TORSDOF 4
ENDMDL
MODEL      214
REMARK 921   NORMALIZED FREE ENERGY PREDICTED BY IDOCK:   -3.56 KCAL/MOL
REMARK 922        TOTAL FREE ENERGY PREDICTED BY IDOCK:   -5.00 KCAL/MOL
REMARK 923 INTER-LIGAND FREE ENERGY PREDICTED BY IDOCK:   -4.36 KCAL/MOL
REMARK 924 INTRA-LIGAND FREE ENERGY PREDICTED BY IDOCK:   -0.64 KCAL/MOL
REMARK 927      BINDING AFFINITY PREDICTED BY RF-SCORE:    0.00 PKD
ROOT
HETATM    1 CL   UNL     1      -5.335  11.122  69.062  1.00  0.00    -0.041 Cl 
HETATM    2  C   UNL     1      -6.654  11.707  68.127  1.00  0.00    -0.061 A  
HETATM    3  C   UNL     1      -7.308  12.870  68.511  1.00  0.00    -0.115 A  
HETATM    4  C   UNL     1      -8.372  13.348  67.744  1.00  0.00    -0.178 A  
HETATM    5  C   UNL     1      -8.786  12.683  66.581  1.00  0.00    -0.080 A  
HETATM    6  C   UNL     1      -7.067  11.015  66.989  1.00  0.00    -0.118 A  
HETATM    7  C   UNL     1      -8.140  11.495  66.224  1.00  0.00    -0.014 A  
ENDROOT
BRANCH   5   8
HETATM    8  N   UNL     1      -9.841  13.159  65.764  1.00  0.00    -0.415 N  
HETATM    9  H   UNL     1      -9.725  14.064  65.308  1.00  0.00     0.000 HD 
BRANCH   8  10
HETATM   10  C   UNL     1     -11.022  12.468  65.548  1.00  0.00    -0.287 C  
HETATM   11  O   UNL     1     -11.319  11.949  64.476  1.00  0.00    -0.329 OA 
BRANCH  10  12
HETATM   12  N   UNL     1     -11.837  12.419  66.668  1.00  0.00    -0.370 N  
HETATM   13  H   UNL     1     -12.682  12.990  66.672  1.00  0.00     0.000 HD 
BRANCH  12  14
HETATM   14  C   UNL     1     -11.563  11.620  67.807  1.00  0.00    -0.289 A  
HETATM   15  C   UNL     1     -11.128  10.291  67.710  1.00  0.00    -0.335 A  
HETATM   16  C   UNL     1     -10.833   9.539  68.852  1.00  0.00    -0.150 A  
HETATM   17 CL   UNL     1     -10.281   7.917  68.625  1.00  0.00    -0.214 Cl 
HETATM   18  C   UNL     1     -10.991  10.110  70.114  1.00  0.00    -0.316 A  
HETATM   19  C   UNL     1     -11.454  11.424  70.225  1.00  0.00    -0.244 A  
HETATM   20 CL   UNL     1     -10.640   9.248  71.569  1.00  0.00    -0.422 Cl 
HETATM   21  C   UNL     1     -11.749  12.174  69.077  1.00  0.00    -0.377 A  
ENDBRANCH  12  14
ENDBRANCH  10  12
ENDBRANCH   8  10
ENDBRANCH   5   8
TORSDOF 4
ENDMDL
MODEL      215
REMARK 921   NORMALIZED FREE ENERGY PREDICTED BY IDOCK:   -3.55 KCAL/MOL
REMARK 922        TOTAL FREE ENERGY PREDICTED BY IDOCK:   -4.99 KCAL/MOL
REMARK 923 INTER-LIGAND FREE ENERGY PREDICTED BY IDOCK:   -4.76 KCAL/MOL
REMARK 924 INTRA-LIGAND FREE ENERGY PREDICTED BY IDOCK:   -0.23 KCAL/MOL
REMARK 927      BINDING AFFINITY PREDICTED BY RF-SCORE:    0.00 PKD
ROOT
HETATM    1 CL   UNL     1      -9.702   6.468  66.305  1.00  0.00    -0.123 Cl 
HETATM    2  C   UNL     1      -9.873   7.954  67.154  1.00  0.00    -0.208 A  
HETATM    3  C   UNL     1      -9.639   9.154  66.497  1.00  0.00    -0.289 A  
HETATM    4  C   UNL     1      -9.789  10.358  67.187  1.00  0.00    -0.221 A  
HETATM    5  C   UNL     1     -10.187  10.381  68.531  1.00  0.00    -0.173 A  
HETATM    6  C   UNL     1     -10.243   7.952  68.499  1.00  0.00    -0.229 A  
HETATM    7  C   UNL     1     -10.387   9.163  69.190  1.00  0.00    -0.223 A  
ENDROOT
BRANCH   5   8
HETATM    8  N   UNL     1     -10.377  11.587  69.250  1.00  0.00    -0.426 N  
HETATM    9  H   UNL     1      -9.981  11.655  70.187  1.00  0.00     0.000 HD 
BRANCH   8  10
HETATM   10  C   UNL     1     -11.071  12.679  68.755  1.00  0.00    -0.263 C  
HETATM   11  O   UNL     1     -12.021  12.586  67.983  1.00  0.00    -0.342 OA 
BRANCH  10  12
HETATM   12  N   UNL     1     -10.587  13.890  69.222  1.00  0.00    -0.433 N  
HETATM   13  H   UNL     1     -10.889  14.205  70.144  1.00  0.00     0.000 HD 
BRANCH  12  14
HETATM   14  C   UNL     1      -9.696  14.716  68.492  1.00  0.00    -0.225 A  
HETATM   15  C   UNL     1      -8.823  15.620  69.115  1.00  0.00    -0.251 A  
HETATM   16  C   UNL     1      -7.931  16.398  68.370  1.00  0.00    -0.178 A  
HETATM   17 CL   UNL     1      -6.880  17.465  69.233  1.00  0.00    -0.232 Cl 
HETATM   18  C   UNL     1      -7.917  16.291  66.980  1.00  0.00    -0.213 A  
HETATM   19  C   UNL     1      -8.803  15.416  66.345  1.00  0.00    -0.340 A  
HETATM   20 CL   UNL     1      -6.839  17.212  65.993  1.00  0.00    -0.154 Cl 
HETATM   21  C   UNL     1      -9.697  14.639  67.097  1.00  0.00    -0.235 A  
ENDBRANCH  12  14
ENDBRANCH  10  12
ENDBRANCH   8  10
ENDBRANCH   5   8
TORSDOF 4
ENDMDL
MODEL      216
REMARK 921   NORMALIZED FREE ENERGY PREDICTED BY IDOCK:   -3.54 KCAL/MOL
REMARK 922        TOTAL FREE ENERGY PREDICTED BY IDOCK:   -4.98 KCAL/MOL
REMARK 923 INTER-LIGAND FREE ENERGY PREDICTED BY IDOCK:   -4.33 KCAL/MOL
REMARK 924 INTRA-LIGAND FREE ENERGY PREDICTED BY IDOCK:   -0.65 KCAL/MOL
REMARK 927      BINDING AFFINITY PREDICTED BY RF-SCORE:    0.00 PKD
ROOT
HETATM    1 CL   UNL     1      -6.328  10.469  70.003  1.00  0.00    -0.101 Cl 
HETATM    2  C   UNL     1      -7.019  10.667  68.441  1.00  0.00    -0.066 A  
HETATM    3  C   UNL     1      -6.564  11.682  67.611  1.00  0.00    -0.082 A  
HETATM    4  C   UNL     1      -7.119  11.833  66.339  1.00  0.00     0.218 A  
HETATM    5  C   UNL     1      -8.121  10.969  65.876  1.00  0.00    -0.075 A  
HETATM    6  C   UNL     1      -8.034   9.813  68.011  1.00  0.00    -0.097 A  
HETATM    7  C   UNL     1      -8.593   9.971  66.735  1.00  0.00    -0.129 A  
ENDROOT
BRANCH   5   8
HETATM    8  N   UNL     1      -8.683  11.077  64.579  1.00  0.00    -0.374 N  
HETATM    9  H   UNL     1      -8.125  10.759  63.786  1.00  0.00     0.000 HD 
BRANCH   8  10
HETATM   10  C   UNL     1      -9.945  11.589  64.325  1.00  0.00    -0.271 C  
HETATM   11  O   UNL     1     -10.879  10.914  63.904  1.00  0.00    -0.283 OA 
BRANCH  10  12
HETATM   12  N   UNL     1     -10.048  12.943  64.597  1.00  0.00    -0.544 N  
HETATM   13  H   UNL     1      -9.728  13.602  63.886  1.00  0.00     0.000 HD 
BRANCH  12  14
HETATM   14  C   UNL     1     -10.572  13.467  65.805  1.00  0.00    -0.283 A  
HETATM   15  C   UNL     1     -10.285  14.765  66.252  1.00  0.00    -0.309 A  
HETATM   16  C   UNL     1     -10.845  15.266  67.432  1.00  0.00    -0.304 A  
HETATM   17 CL   UNL     1     -10.448  16.886  67.885  1.00  0.00    -0.331 Cl 
HETATM   18  C   UNL     1     -11.689  14.458  68.193  1.00  0.00    -0.342 A  
HETATM   19  C   UNL     1     -11.958  13.152  67.774  1.00  0.00    -0.352 A  
HETATM   20 CL   UNL     1     -12.423  15.008  69.657  1.00  0.00    -0.224 Cl 
HETATM   21  C   UNL     1     -11.393  12.654  66.591  1.00  0.00    -0.379 A  
ENDBRANCH  12  14
ENDBRANCH  10  12
ENDBRANCH   8  10
ENDBRANCH   5   8
TORSDOF 4
ENDMDL
MODEL      217
REMARK 921   NORMALIZED FREE ENERGY PREDICTED BY IDOCK:   -3.49 KCAL/MOL
REMARK 922        TOTAL FREE ENERGY PREDICTED BY IDOCK:   -4.91 KCAL/MOL
REMARK 923 INTER-LIGAND FREE ENERGY PREDICTED BY IDOCK:   -4.58 KCAL/MOL
REMARK 924 INTRA-LIGAND FREE ENERGY PREDICTED BY IDOCK:   -0.33 KCAL/MOL
REMARK 927      BINDING AFFINITY PREDICTED BY RF-SCORE:    0.00 PKD
ROOT
HETATM    1 CL   UNL     1      -7.010   5.477  72.780  1.00  0.00    -0.081 Cl 
HETATM    2  C   UNL     1      -7.855   6.181  71.459  1.00  0.00    -0.102 A  
HETATM    3  C   UNL     1      -7.669   7.524  71.159  1.00  0.00    -0.089 A  
HETATM    4  C   UNL     1      -8.350   8.089  70.079  1.00  0.00    -0.123 A  
HETATM    5  C   UNL     1      -9.209   7.323  69.279  1.00  0.00    -0.144 A  
HETATM    6  C   UNL     1      -8.727   5.407  70.694  1.00  0.00    -0.135 A  
HETATM    7  C   UNL     1      -9.413   5.980  69.613  1.00  0.00    -0.167 A  
ENDROOT
BRANCH   5   8
HETATM    8  N   UNL     1      -9.890   7.860  68.158  1.00  0.00    -0.163 N  
HETATM    9  H   UNL     1     -10.424   7.221  67.570  1.00  0.00     0.000 HD 
BRANCH   8  10
HETATM   10  C   UNL     1      -9.873   9.202  67.815  1.00  0.00    -0.174 C  
HETATM   11  O   UNL     1      -8.849   9.816  67.529  1.00  0.00    -0.125 OA 
BRANCH  10  12
HETATM   12  N   UNL     1     -11.130   9.783  67.826  1.00  0.00    -0.486 N  
HETATM   13  H   UNL     1     -11.803   9.486  67.120  1.00  0.00     0.000 HD 
BRANCH  12  14
HETATM   14  C   UNL     1     -11.535  10.768  68.762  1.00  0.00    -0.295 A  
HETATM   15  C   UNL     1     -11.588  12.133  68.446  1.00  0.00    -0.381 A  
HETATM   16  C   UNL     1     -12.024  13.078  69.380  1.00  0.00    -0.281 A  
HETATM   17 CL   UNL     1     -12.074  14.733  68.885  1.00  0.00    -0.284 Cl 
HETATM   18  C   UNL     1     -12.397  12.663  70.658  1.00  0.00    -0.290 A  
HETATM   19  C   UNL     1     -12.320  11.309  70.995  1.00  0.00    -0.472 A  
HETATM   20 CL   UNL     1     -12.953  13.769  71.862  1.00  0.00    -0.436 Cl 
HETATM   21  C   UNL     1     -11.880  10.365  70.055  1.00  0.00    -0.351 A  
ENDBRANCH  12  14
ENDBRANCH  10  12
ENDBRANCH   8  10
ENDBRANCH   5   8
TORSDOF 4
ENDMDL
MODEL      218
REMARK 921   NORMALIZED FREE ENERGY PREDICTED BY IDOCK:   -3.45 KCAL/MOL
REMARK 922        TOTAL FREE ENERGY PREDICTED BY IDOCK:   -4.87 KCAL/MOL
REMARK 923 INTER-LIGAND FREE ENERGY PREDICTED BY IDOCK:   -4.27 KCAL/MOL
REMARK 924 INTRA-LIGAND FREE ENERGY PREDICTED BY IDOCK:   -0.60 KCAL/MOL
REMARK 927      BINDING AFFINITY PREDICTED BY RF-SCORE:    0.00 PKD
ROOT
HETATM    1 CL   UNL     1      -7.417   5.077  73.038  1.00  0.00    -0.090 Cl 
HETATM    2  C   UNL     1      -8.531   5.443  71.780  1.00  0.00    -0.127 A  
HETATM    3  C   UNL     1      -8.847   6.766  71.502  1.00  0.00    -0.137 A  
HETATM    4  C   UNL     1      -9.744   7.059  70.473  1.00  0.00    -0.178 A  
HETATM    5  C   UNL     1     -10.323   6.042  69.702  1.00  0.00    -0.232 A  
HETATM    6  C   UNL     1      -9.117   4.414  71.043  1.00  0.00    -0.185 A  
HETATM    7  C   UNL     1     -10.021   4.712  70.014  1.00  0.00    -0.302 A  
ENDROOT
BRANCH   5   8
HETATM    8  N   UNL     1     -11.212   6.308  68.631  1.00  0.00    -0.496 N  
HETATM    9  H   UNL     1     -12.203   6.421  68.846  1.00  0.00     0.000 HD 
BRANCH   8  10
HETATM   10  C   UNL     1     -10.815   6.424  67.309  1.00  0.00    -0.385 C  
HETATM   11  O   UNL     1     -10.337   5.498  66.660  1.00  0.00    -0.218 OA 
BRANCH  10  12
HETATM   12  N   UNL     1     -11.014   7.693  66.790  1.00  0.00    -0.430 N  
HETATM   13  H   UNL     1     -11.913   7.898  66.354  1.00  0.00     0.000 HD 
BRANCH  12  14
HETATM   14  C   UNL     1     -10.040   8.721  66.828  1.00  0.00    -0.288 A  
HETATM   15  C   UNL     1     -10.358  10.070  66.617  1.00  0.00    -0.281 A  
HETATM   16  C   UNL     1      -9.380  11.068  66.695  1.00  0.00    -0.177 A  
HETATM   17 CL   UNL     1      -9.878  12.703  66.441  1.00  0.00    -0.254 Cl 
HETATM   18  C   UNL     1      -8.059  10.718  66.970  1.00  0.00    -0.124 A  
HETATM   19  C   UNL     1      -7.723   9.373  67.153  1.00  0.00    -0.091 A  
HETATM   20 CL   UNL     1      -6.798  11.892  67.090  1.00  0.00    -0.144 Cl 
HETATM   21  C   UNL     1      -8.707   8.377  67.071  1.00  0.00    -0.132 A  
ENDBRANCH  12  14
ENDBRANCH  10  12
ENDBRANCH   8  10
ENDBRANCH   5   8
TORSDOF 4
ENDMDL
MODEL      219
REMARK 921   NORMALIZED FREE ENERGY PREDICTED BY IDOCK:   -3.42 KCAL/MOL
REMARK 922        TOTAL FREE ENERGY PREDICTED BY IDOCK:   -4.83 KCAL/MOL
REMARK 923 INTER-LIGAND FREE ENERGY PREDICTED BY IDOCK:   -4.96 KCAL/MOL
REMARK 924 INTRA-LIGAND FREE ENERGY PREDICTED BY IDOCK:    0.13 KCAL/MOL
REMARK 927      BINDING AFFINITY PREDICTED BY RF-SCORE:    0.00 PKD
ROOT
HETATM    1 CL   UNL     1     -10.174   6.564  74.514  1.00  0.00    -0.356 Cl 
HETATM    2  C   UNL     1     -10.547   6.517  72.836  1.00  0.00    -0.241 A  
HETATM    3  C   UNL     1     -11.470   7.410  72.310  1.00  0.00    -0.329 A  
HETATM    4  C   UNL     1     -11.763   7.375  70.946  1.00  0.00    -0.325 A  
HETATM    5  C   UNL     1     -11.131   6.463  70.090  1.00  0.00    -0.365 A  
HETATM    6  C   UNL     1      -9.927   5.582  72.008  1.00  0.00    -0.225 A  
HETATM    7  C   UNL     1     -10.227   5.546  70.639  1.00  0.00    -0.308 A  
ENDROOT
BRANCH   5   8
HETATM    8  N   UNL     1     -11.383   6.423  68.696  1.00  0.00    -0.559 N  
HETATM    9  H   UNL     1     -11.831   5.590  68.313  1.00  0.00     0.000 HD 
BRANCH   8  10
HETATM   10  C   UNL     1     -11.057   7.448  67.823  1.00  0.00     0.099 C  
HETATM   11  O   UNL     1     -11.057   7.325  66.602  1.00  0.00    -0.059 OA 
BRANCH  10  12
HETATM   12  N   UNL     1     -10.730   8.630  68.468  1.00  0.00    -0.416 N  
HETATM   13  H   UNL     1     -10.646   8.615  69.485  1.00  0.00     0.000 HD 
BRANCH  12  14
HETATM   14  C   UNL     1     -10.507   9.858  67.797  1.00  0.00    -0.242 A  
HETATM   15  C   UNL     1     -11.428  10.914  67.830  1.00  0.00    -0.344 A  
HETATM   16  C   UNL     1     -11.165  12.128  67.186  1.00  0.00    -0.314 A  
HETATM   17 CL   UNL     1     -12.354  13.376  67.305  1.00  0.00    -0.259 Cl 
HETATM   18  C   UNL     1      -9.973  12.289  66.480  1.00  0.00    -0.220 A  
HETATM   19  C   UNL     1      -9.060  11.233  66.414  1.00  0.00    -0.201 A  
HETATM   20 CL   UNL     1      -9.573  13.759  65.666  1.00  0.00    -0.119 Cl 
HETATM   21  C   UNL     1      -9.330  10.018  67.061  1.00  0.00    -0.180 A  
ENDBRANCH  12  14
ENDBRANCH  10  12
ENDBRANCH   8  10
ENDBRANCH   5   8
TORSDOF 4
ENDMDL
MODEL      220
REMARK 921   NORMALIZED FREE ENERGY PREDICTED BY IDOCK:   -3.40 KCAL/MOL
REMARK 922        TOTAL FREE ENERGY PREDICTED BY IDOCK:   -4.80 KCAL/MOL
REMARK 923 INTER-LIGAND FREE ENERGY PREDICTED BY IDOCK:   -4.14 KCAL/MOL
REMARK 924 INTRA-LIGAND FREE ENERGY PREDICTED BY IDOCK:   -0.67 KCAL/MOL
REMARK 927      BINDING AFFINITY PREDICTED BY RF-SCORE:    0.00 PKD
ROOT
HETATM    1 CL   UNL     1     -13.759   9.374  72.318  1.00  0.00    -0.510 Cl 
HETATM    2  C   UNL     1     -12.119   8.954  72.018  1.00  0.00    -0.371 A  
HETATM    3  C   UNL     1     -11.413   9.603  71.014  1.00  0.00    -0.444 A  
HETATM    4  C   UNL     1     -10.079   9.267  70.781  1.00  0.00    -0.358 A  
HETATM    5  C   UNL     1      -9.429   8.293  71.552  1.00  0.00    -0.186 A  
HETATM    6  C   UNL     1     -11.500   7.962  72.779  1.00  0.00    -0.428 A  
HETATM    7  C   UNL     1     -10.161   7.623  72.538  1.00  0.00    -0.298 A  
ENDROOT
BRANCH   5   8
HETATM    8  N   UNL     1      -8.067   7.951  71.361  1.00  0.00    -0.097 N  
HETATM    9  H   UNL     1      -7.794   6.977  71.493  1.00  0.00     0.000 HD 
BRANCH   8  10
HETATM   10  C   UNL     1      -7.086   8.861  71.004  1.00  0.00    -0.090 C  
HETATM   11  O   UNL     1      -6.736   9.796  71.718  1.00  0.00    -0.257 OA 
BRANCH  10  12
HETATM   12  N   UNL     1      -6.536   8.609  69.758  1.00  0.00    -0.041 N  
HETATM   13  H   UNL     1      -5.586   8.241  69.717  1.00  0.00     0.000 HD 
BRANCH  12  14
HETATM   14  C   UNL     1      -7.218   8.835  68.536  1.00  0.00    -0.074 A  
HETATM   15  C   UNL     1      -7.951   7.832  67.884  1.00  0.00    -0.125 A  
HETATM   16  C   UNL     1      -8.642   8.094  66.697  1.00  0.00    -0.135 A  
HETATM   17 CL   UNL     1      -9.535   6.797  65.984  1.00  0.00    -0.051 Cl 
HETATM   18  C   UNL     1      -8.589   9.369  66.134  1.00  0.00    -0.136 A  
HETATM   19  C   UNL     1      -7.836  10.369  66.758  1.00  0.00    -0.117 A  
HETATM   20 CL   UNL     1      -9.421   9.771  64.675  1.00  0.00    -0.336 Cl 
HETATM   21  C   UNL     1      -7.144  10.101  67.948  1.00  0.00    -0.085 A  
ENDBRANCH  12  14
ENDBRANCH  10  12
ENDBRANCH   8  10
ENDBRANCH   5   8
TORSDOF 4
ENDMDL
MODEL      221
REMARK 921   NORMALIZED FREE ENERGY PREDICTED BY IDOCK:   -3.38 KCAL/MOL
REMARK 922        TOTAL FREE ENERGY PREDICTED BY IDOCK:   -4.78 KCAL/MOL
REMARK 923 INTER-LIGAND FREE ENERGY PREDICTED BY IDOCK:   -4.92 KCAL/MOL
REMARK 924 INTRA-LIGAND FREE ENERGY PREDICTED BY IDOCK:    0.14 KCAL/MOL
REMARK 927      BINDING AFFINITY PREDICTED BY RF-SCORE:    0.00 PKD
ROOT
HETATM    1 CL   UNL     1      -7.235   2.880  66.877  1.00  0.00    -0.057 Cl 
HETATM    2  C   UNL     1      -8.268   4.254  66.910  1.00  0.00    -0.101 A  
HETATM    3  C   UNL     1      -7.815   5.469  66.415  1.00  0.00    -0.100 A  
HETATM    4  C   UNL     1      -8.661   6.580  66.433  1.00  0.00    -0.136 A  
HETATM    5  C   UNL     1      -9.968   6.489  66.930  1.00  0.00    -0.173 A  
HETATM    6  C   UNL     1      -9.556   4.148  67.434  1.00  0.00    -0.222 A  
HETATM    7  C   UNL     1     -10.401   5.267  67.456  1.00  0.00    -0.221 A  
ENDROOT
BRANCH   5   8
HETATM    8  N   UNL     1     -10.861   7.590  66.935  1.00  0.00    -0.542 N  
HETATM    9  H   UNL     1     -11.857   7.400  67.042  1.00  0.00     0.000 HD 
BRANCH   8  10
HETATM   10  C   UNL     1     -10.460   8.909  66.801  1.00  0.00    -0.199 C  
HETATM   11  O   UNL     1      -9.705   9.303  65.918  1.00  0.00    -0.265 OA 
BRANCH  10  12
HETATM   12  N   UNL     1     -10.999   9.743  67.768  1.00  0.00    -0.460 N  
HETATM   13  H   UNL     1     -11.408   9.314  68.598  1.00  0.00     0.000 HD 
BRANCH  12  14
HETATM   14  C   UNL     1     -11.015  11.156  67.669  1.00  0.00    -0.269 A  
HETATM   15  C   UNL     1     -11.644  11.832  66.613  1.00  0.00    -0.273 A  
HETATM   16  C   UNL     1     -11.673  13.229  66.560  1.00  0.00    -0.377 A  
HETATM   17 CL   UNL     1     -12.493  13.966  65.229  1.00  0.00    -0.481 Cl 
HETATM   18  C   UNL     1     -11.050  13.971  67.563  1.00  0.00    -0.298 A  
HETATM   19  C   UNL     1     -10.393  13.309  68.605  1.00  0.00    -0.206 A  
HETATM   20 CL   UNL     1     -11.049  15.698  67.571  1.00  0.00    -0.317 Cl 
HETATM   21  C   UNL     1     -10.366  11.907  68.653  1.00  0.00    -0.218 A  
ENDBRANCH  12  14
ENDBRANCH  10  12
ENDBRANCH   8  10
ENDBRANCH   5   8
TORSDOF 4
ENDMDL
MODEL      222
REMARK 921   NORMALIZED FREE ENERGY PREDICTED BY IDOCK:   -3.38 KCAL/MOL
REMARK 922        TOTAL FREE ENERGY PREDICTED BY IDOCK:   -4.78 KCAL/MOL
REMARK 923 INTER-LIGAND FREE ENERGY PREDICTED BY IDOCK:   -4.37 KCAL/MOL
REMARK 924 INTRA-LIGAND FREE ENERGY PREDICTED BY IDOCK:   -0.41 KCAL/MOL
REMARK 927      BINDING AFFINITY PREDICTED BY RF-SCORE:    0.00 PKD
ROOT
HETATM    1 CL   UNL     1     -12.234  12.392  63.114  1.00  0.00    -0.470 Cl 
HETATM    2  C   UNL     1     -11.675  12.269  64.736  1.00  0.00    -0.358 A  
HETATM    3  C   UNL     1     -12.260  13.047  65.726  1.00  0.00    -0.511 A  
HETATM    4  C   UNL     1     -11.810  12.937  67.044  1.00  0.00    -0.437 A  
HETATM    5  C   UNL     1     -10.788  12.043  67.391  1.00  0.00    -0.242 A  
HETATM    6  C   UNL     1     -10.638  11.393  65.054  1.00  0.00    -0.359 A  
HETATM    7  C   UNL     1     -10.186  11.289  66.378  1.00  0.00    -0.273 A  
ENDROOT
BRANCH   5   8
HETATM    8  N   UNL     1     -10.331  11.885  68.723  1.00  0.00    -0.321 N  
HETATM    9  H   UNL     1     -10.900  12.274  69.475  1.00  0.00     0.000 HD 
BRANCH   8  10
HETATM   10  C   UNL     1      -9.157  11.234  69.065  1.00  0.00     0.029 C  
HETATM   11  O   UNL     1      -8.043  11.618  68.720  1.00  0.00    -0.140 OA 
BRANCH  10  12
HETATM   12  N   UNL     1      -9.366  10.104  69.838  1.00  0.00    -0.391 N  
HETATM   13  H   UNL     1      -9.852  10.214  70.728  1.00  0.00     0.000 HD 
BRANCH  12  14
HETATM   14  C   UNL     1      -8.943   8.804  69.464  1.00  0.00    -0.145 A  
HETATM   15  C   UNL     1      -8.216   7.970  70.326  1.00  0.00    -0.123 A  
HETATM   16  C   UNL     1      -7.842   6.678  69.941  1.00  0.00    -0.115 A  
HETATM   17 CL   UNL     1      -6.968   5.721  71.084  1.00  0.00    -0.065 Cl 
HETATM   18  C   UNL     1      -8.178   6.212  68.670  1.00  0.00    -0.108 A  
HETATM   19  C   UNL     1      -8.876   7.046  67.791  1.00  0.00    -0.123 A  
HETATM   20 CL   UNL     1      -7.758   4.628  68.126  1.00  0.00    -0.080 Cl 
HETATM   21  C   UNL     1      -9.248   8.340  68.181  1.00  0.00    -0.137 A  
ENDBRANCH  12  14
ENDBRANCH  10  12
ENDBRANCH   8  10
ENDBRANCH   5   8
TORSDOF 4
ENDMDL
MODEL      223
REMARK 921   NORMALIZED FREE ENERGY PREDICTED BY IDOCK:   -3.36 KCAL/MOL
REMARK 922        TOTAL FREE ENERGY PREDICTED BY IDOCK:   -4.76 KCAL/MOL
REMARK 923 INTER-LIGAND FREE ENERGY PREDICTED BY IDOCK:   -4.81 KCAL/MOL
REMARK 924 INTRA-LIGAND FREE ENERGY PREDICTED BY IDOCK:    0.05 KCAL/MOL
REMARK 927      BINDING AFFINITY PREDICTED BY RF-SCORE:    0.00 PKD
ROOT
HETATM    1 CL   UNL     1      -6.161   7.024  73.904  1.00  0.00    -0.066 Cl 
HETATM    2  C   UNL     1      -7.518   7.707  73.099  1.00  0.00    -0.098 A  
HETATM    3  C   UNL     1      -8.780   7.609  73.670  1.00  0.00    -0.283 A  
HETATM    4  C   UNL     1      -9.877   8.175  73.018  1.00  0.00    -0.319 A  
HETATM    5  C   UNL     1      -9.729   8.855  71.802  1.00  0.00    -0.295 A  
HETATM    6  C   UNL     1      -7.352   8.356  71.875  1.00  0.00    -0.118 A  
HETATM    7  C   UNL     1      -8.458   8.918  71.221  1.00  0.00    -0.239 A  
ENDROOT
BRANCH   5   8
HETATM    8  N   UNL     1     -10.818   9.466  71.131  1.00  0.00    -0.331 N  
HETATM    9  H   UNL     1     -11.337  10.193  71.623  1.00  0.00     0.000 HD 
BRANCH   8  10
HETATM   10  C   UNL     1     -11.219   9.133  69.848  1.00  0.00    -0.102 C  
HETATM   11  O   UNL     1     -11.172   7.992  69.397  1.00  0.00     0.012 OA 
BRANCH  10  12
HETATM   12  N   UNL     1     -11.680  10.219  69.122  1.00  0.00    -0.491 N  
HETATM   13  H   UNL     1     -12.386  10.818  69.550  1.00  0.00     0.000 HD 
BRANCH  12  14
HETATM   14  C   UNL     1     -11.228  10.546  67.819  1.00  0.00    -0.273 A  
HETATM   15  C   UNL     1     -11.616  11.719  67.158  1.00  0.00    -0.342 A  
HETATM   16  C   UNL     1     -11.126  12.031  65.885  1.00  0.00    -0.324 A  
HETATM   17 CL   UNL     1     -11.647  13.513  65.164  1.00  0.00    -0.322 Cl 
HETATM   18  C   UNL     1     -10.250  11.153  65.249  1.00  0.00    -0.280 A  
HETATM   19  C   UNL     1      -9.879   9.965  65.885  1.00  0.00    -0.342 A  
HETATM   20 CL   UNL     1      -9.597  11.472  63.682  1.00  0.00    -0.277 Cl 
HETATM   21  C   UNL     1     -10.375   9.656  67.160  1.00  0.00    -0.319 A  
ENDBRANCH  12  14
ENDBRANCH  10  12
ENDBRANCH   8  10
ENDBRANCH   5   8
TORSDOF 4
ENDMDL
MODEL      224
REMARK 921   NORMALIZED FREE ENERGY PREDICTED BY IDOCK:   -3.35 KCAL/MOL
REMARK 922        TOTAL FREE ENERGY PREDICTED BY IDOCK:   -4.74 KCAL/MOL
REMARK 923 INTER-LIGAND FREE ENERGY PREDICTED BY IDOCK:   -4.05 KCAL/MOL
REMARK 924 INTRA-LIGAND FREE ENERGY PREDICTED BY IDOCK:   -0.69 KCAL/MOL
REMARK 927      BINDING AFFINITY PREDICTED BY RF-SCORE:    0.00 PKD
ROOT
HETATM    1 CL   UNL     1     -14.125   8.729  71.999  1.00  0.00    -0.495 Cl 
HETATM    2  C   UNL     1     -12.410   8.667  71.902  1.00  0.00    -0.354 A  
HETATM    3  C   UNL     1     -11.750   9.372  70.905  1.00  0.00    -0.378 A  
HETATM    4  C   UNL     1     -10.356   9.327  70.836  1.00  0.00    -0.367 A  
HETATM    5  C   UNL     1      -9.606   8.594  71.765  1.00  0.00    -0.290 A  
HETATM    6  C   UNL     1     -11.684   7.909  72.821  1.00  0.00    -0.338 A  
HETATM    7  C   UNL     1     -10.285   7.862  72.745  1.00  0.00    -0.380 A  
ENDROOT
BRANCH   5   8
HETATM    8  N   UNL     1      -8.189   8.554  71.741  1.00  0.00    -0.155 N  
HETATM    9  H   UNL     1      -7.695   8.500  72.631  1.00  0.00     0.000 HD 
BRANCH   8  10
HETATM   10  C   UNL     1      -7.436   8.585  70.578  1.00  0.00    -0.062 C  
HETATM   11  O   UNL     1      -7.080   9.622  70.027  1.00  0.00    -0.073 OA 
BRANCH  10  12
HETATM   12  N   UNL     1      -7.123   7.323  70.099  1.00  0.00    -0.064 N  
HETATM   13  H   UNL     1      -6.329   6.835  70.513  1.00  0.00     0.000 HD 
BRANCH  12  14
HETATM   14  C   UNL     1      -7.842   6.672  69.065  1.00  0.00    -0.111 A  
HETATM   15  C   UNL     1      -7.514   6.818  67.710  1.00  0.00    -0.098 A  
HETATM   16  C   UNL     1      -8.221   6.136  66.714  1.00  0.00    -0.109 A  
HETATM   17 CL   UNL     1      -7.725   6.366  65.075  1.00  0.00    -0.092 Cl 
HETATM   18  C   UNL     1      -9.285   5.307  67.069  1.00  0.00    -0.116 A  
HETATM   19  C   UNL     1      -9.641   5.177  68.414  1.00  0.00    -0.185 A  
HETATM   20 CL   UNL     1     -10.200   4.426  65.898  1.00  0.00    -0.264 Cl 
HETATM   21  C   UNL     1      -8.930   5.864  69.409  1.00  0.00    -0.122 A  
ENDBRANCH  12  14
ENDBRANCH  10  12
ENDBRANCH   8  10
ENDBRANCH   5   8
TORSDOF 4
ENDMDL
MODEL      225
REMARK 921   NORMALIZED FREE ENERGY PREDICTED BY IDOCK:   -3.34 KCAL/MOL
REMARK 922        TOTAL FREE ENERGY PREDICTED BY IDOCK:   -4.73 KCAL/MOL
REMARK 923 INTER-LIGAND FREE ENERGY PREDICTED BY IDOCK:   -4.16 KCAL/MOL
REMARK 924 INTRA-LIGAND FREE ENERGY PREDICTED BY IDOCK:   -0.57 KCAL/MOL
REMARK 927      BINDING AFFINITY PREDICTED BY RF-SCORE:    0.00 PKD
ROOT
HETATM    1 CL   UNL     1      -7.408  17.230  68.303  1.00  0.00    -0.205 Cl 
HETATM    2  C   UNL     1      -7.536  15.516  68.367  1.00  0.00    -0.115 A  
HETATM    3  C   UNL     1      -8.783  14.923  68.502  1.00  0.00    -0.172 A  
HETATM    4  C   UNL     1      -8.884  13.531  68.542  1.00  0.00    -0.086 A  
HETATM    5  C   UNL     1      -7.748  12.717  68.435  1.00  0.00    -0.133 A  
HETATM    6  C   UNL     1      -6.389  14.726  68.286  1.00  0.00    -0.123 A  
HETATM    7  C   UNL     1      -6.494  13.328  68.333  1.00  0.00    -0.091 A  
ENDROOT
BRANCH   5   8
HETATM    8  N   UNL     1      -7.820  11.302  68.442  1.00  0.00    -0.128 N  
HETATM    9  H   UNL     1      -7.766  10.823  69.341  1.00  0.00     0.000 HD 
BRANCH   8  10
HETATM   10  C   UNL     1      -7.958  10.530  67.300  1.00  0.00    -0.114 C  
HETATM   11  O   UNL     1      -7.011  10.146  66.621  1.00  0.00    -0.087 OA 
BRANCH  10  12
HETATM   12  N   UNL     1      -9.278  10.234  66.999  1.00  0.00    -0.149 N  
HETATM   13  H   UNL     1      -9.719   9.455  67.487  1.00  0.00     0.000 HD 
BRANCH  12  14
HETATM   14  C   UNL     1     -10.051  10.952  66.052  1.00  0.00    -0.249 A  
HETATM   15  C   UNL     1     -10.951  11.962  66.422  1.00  0.00    -0.337 A  
HETATM   16  C   UNL     1     -11.675  12.677  65.462  1.00  0.00    -0.402 A  
HETATM   17 CL   UNL     1     -12.741  13.917  66.019  1.00  0.00    -0.475 Cl 
HETATM   18  C   UNL     1     -11.517  12.371  64.111  1.00  0.00    -0.381 A  
HETATM   19  C   UNL     1     -10.646  11.346  63.731  1.00  0.00    -0.464 A  
HETATM   20 CL   UNL     1     -12.370  13.214  62.868  1.00  0.00    -0.052 Cl 
HETATM   21  C   UNL     1      -9.924  10.631  64.698  1.00  0.00    -0.401 A  
ENDBRANCH  12  14
ENDBRANCH  10  12
ENDBRANCH   8  10
ENDBRANCH   5   8
TORSDOF 4
ENDMDL
MODEL      226
REMARK 921   NORMALIZED FREE ENERGY PREDICTED BY IDOCK:   -3.34 KCAL/MOL
REMARK 922        TOTAL FREE ENERGY PREDICTED BY IDOCK:   -4.73 KCAL/MOL
REMARK 923 INTER-LIGAND FREE ENERGY PREDICTED BY IDOCK:   -4.43 KCAL/MOL
REMARK 924 INTRA-LIGAND FREE ENERGY PREDICTED BY IDOCK:   -0.30 KCAL/MOL
REMARK 927      BINDING AFFINITY PREDICTED BY RF-SCORE:    0.00 PKD
ROOT
HETATM    1 CL   UNL     1      -6.683  16.791  66.943  1.00  0.00    -0.239 Cl 
HETATM    2  C   UNL     1      -7.662  15.379  66.897  1.00  0.00    -0.124 A  
HETATM    3  C   UNL     1      -8.944  15.446  66.367  1.00  0.00    -0.351 A  
HETATM    4  C   UNL     1      -9.732  14.295  66.321  1.00  0.00    -0.321 A  
HETATM    5  C   UNL     1      -9.249  13.065  66.788  1.00  0.00    -0.228 A  
HETATM    6  C   UNL     1      -7.172  14.171  67.392  1.00  0.00    -0.124 A  
HETATM    7  C   UNL     1      -7.969  13.018  67.349  1.00  0.00    -0.173 A  
ENDROOT
BRANCH   5   8
HETATM    8  N   UNL     1     -10.013  11.872  66.727  1.00  0.00    -0.194 N  
HETATM    9  H   UNL     1      -9.879  11.256  65.925  1.00  0.00     0.000 HD 
BRANCH   8  10
HETATM   10  C   UNL     1     -10.932  11.495  67.692  1.00  0.00    -0.242 C  
HETATM   11  O   UNL     1     -12.138  11.710  67.602  1.00  0.00    -0.615 OA 
BRANCH  10  12
HETATM   12  N   UNL     1     -10.354  10.846  68.771  1.00  0.00    -0.189 N  
HETATM   13  H   UNL     1     -10.015  11.414  69.547  1.00  0.00     0.000 HD 
BRANCH  12  14
HETATM   14  C   UNL     1     -10.206   9.439  68.858  1.00  0.00    -0.200 A  
HETATM   15  C   UNL     1      -9.684   8.804  69.993  1.00  0.00    -0.182 A  
HETATM   16  C   UNL     1      -9.581   7.411  70.063  1.00  0.00    -0.168 A  
HETATM   17 CL   UNL     1      -8.946   6.723  71.516  1.00  0.00    -0.138 Cl 
HETATM   18  C   UNL     1      -9.987   6.634  68.978  1.00  0.00    -0.153 A  
HETATM   19  C   UNL     1     -10.481   7.257  67.828  1.00  0.00    -0.292 A  
HETATM   20 CL   UNL     1      -9.899   4.909  68.992  1.00  0.00    -0.248 Cl 
HETATM   21  C   UNL     1     -10.580   8.655  67.763  1.00  0.00    -0.249 A  
ENDBRANCH  12  14
ENDBRANCH  10  12
ENDBRANCH   8  10
ENDBRANCH   5   8
TORSDOF 4
ENDMDL
MODEL      227
REMARK 921   NORMALIZED FREE ENERGY PREDICTED BY IDOCK:   -3.34 KCAL/MOL
REMARK 922        TOTAL FREE ENERGY PREDICTED BY IDOCK:   -4.73 KCAL/MOL
REMARK 923 INTER-LIGAND FREE ENERGY PREDICTED BY IDOCK:   -4.12 KCAL/MOL
REMARK 924 INTRA-LIGAND FREE ENERGY PREDICTED BY IDOCK:   -0.61 KCAL/MOL
REMARK 927      BINDING AFFINITY PREDICTED BY RF-SCORE:    0.00 PKD
ROOT
HETATM    1 CL   UNL     1      -5.229   8.818  63.566  1.00  0.00    -0.061 Cl 
HETATM    2  C   UNL     1      -6.731   8.826  64.404  1.00  0.00    -0.071 A  
HETATM    3  C   UNL     1      -7.038   7.791  65.276  1.00  0.00    -0.060 A  
HETATM    4  C   UNL     1      -8.254   7.806  65.963  1.00  0.00    -0.123 A  
HETATM    5  C   UNL     1      -9.167   8.857  65.800  1.00  0.00    -0.221 A  
HETATM    6  C   UNL     1      -7.637   9.867  64.206  1.00  0.00    -0.139 A  
HETATM    7  C   UNL     1      -8.859   9.876  64.893  1.00  0.00    -0.223 A  
ENDROOT
BRANCH   5   8
HETATM    8  N   UNL     1     -10.395   8.917  66.505  1.00  0.00    -0.250 N  
HETATM    9  H   UNL     1     -11.259   8.803  65.975  1.00  0.00     0.000 HD 
BRANCH   8  10
HETATM   10  C   UNL     1     -10.491   9.122  67.871  1.00  0.00    -0.237 C  
HETATM   11  O   UNL     1     -10.091   8.318  68.708  1.00  0.00    -0.189 OA 
BRANCH  10  12
HETATM   12  N   UNL     1     -11.083  10.330  68.201  1.00  0.00    -0.383 N  
HETATM   13  H   UNL     1     -11.712  10.353  69.004  1.00  0.00     0.000 HD 
BRANCH  12  14
HETATM   14  C   UNL     1     -10.866  11.535  67.487  1.00  0.00    -0.237 A  
HETATM   15  C   UNL     1      -9.687  12.283  67.610  1.00  0.00    -0.194 A  
HETATM   16  C   UNL     1      -9.487  13.451  66.866  1.00  0.00    -0.253 A  
HETATM   17 CL   UNL     1      -7.990  14.288  67.072  1.00  0.00    -0.107 Cl 
HETATM   18  C   UNL     1     -10.484  13.895  65.999  1.00  0.00    -0.298 A  
HETATM   19  C   UNL     1     -11.678  13.175  65.891  1.00  0.00    -0.427 A  
HETATM   20 CL   UNL     1     -10.308  15.322  65.043  1.00  0.00    -0.409 Cl 
HETATM   21  C   UNL     1     -11.873  12.006  66.640  1.00  0.00    -0.239 A  
ENDBRANCH  12  14
ENDBRANCH  10  12
ENDBRANCH   8  10
ENDBRANCH   5   8
TORSDOF 4
ENDMDL
MODEL      228
REMARK 921   NORMALIZED FREE ENERGY PREDICTED BY IDOCK:   -3.32 KCAL/MOL
REMARK 922        TOTAL FREE ENERGY PREDICTED BY IDOCK:   -4.70 KCAL/MOL
REMARK 923 INTER-LIGAND FREE ENERGY PREDICTED BY IDOCK:   -4.41 KCAL/MOL
REMARK 924 INTRA-LIGAND FREE ENERGY PREDICTED BY IDOCK:   -0.30 KCAL/MOL
REMARK 927      BINDING AFFINITY PREDICTED BY RF-SCORE:    0.00 PKD
ROOT
HETATM    1 CL   UNL     1      -9.344   9.938  63.512  1.00  0.00    -0.292 Cl 
HETATM    2  C   UNL     1      -8.590   9.875  65.055  1.00  0.00    -0.161 A  
HETATM    3  C   UNL     1      -8.445  11.038  65.799  1.00  0.00    -0.119 A  
HETATM    4  C   UNL     1      -7.841  10.981  67.057  1.00  0.00    -0.137 A  
HETATM    5  C   UNL     1      -7.389   9.767  67.592  1.00  0.00    -0.090 A  
HETATM    6  C   UNL     1      -8.123   8.660  65.557  1.00  0.00    -0.114 A  
HETATM    7  C   UNL     1      -7.512   8.608  66.818  1.00  0.00    -0.086 A  
ENDROOT
BRANCH   5   8
HETATM    8  N   UNL     1      -6.801   9.671  68.878  1.00  0.00    -0.054 N  
HETATM    9  H   UNL     1      -5.820   9.399  68.937  1.00  0.00     0.000 HD 
BRANCH   8  10
HETATM   10  C   UNL     1      -7.480   9.926  70.058  1.00  0.00    -0.168 C  
HETATM   11  O   UNL     1      -6.963   9.848  71.169  1.00  0.00    -0.338 OA 
BRANCH  10  12
HETATM   12  N   UNL     1      -8.804  10.279  69.859  1.00  0.00    -0.379 N  
HETATM   13  H   UNL     1      -9.001  11.180  69.424  1.00  0.00     0.000 HD 
BRANCH  12  14
HETATM   14  C   UNL     1      -9.902   9.461  70.227  1.00  0.00    -0.243 A  
HETATM   15  C   UNL     1      -9.956   8.092  69.926  1.00  0.00    -0.190 A  
HETATM   16  C   UNL     1     -11.038   7.303  70.332  1.00  0.00    -0.268 A  
HETATM   17 CL   UNL     1     -11.000   5.622  69.933  1.00  0.00    -0.383 Cl 
HETATM   18  C   UNL     1     -12.093   7.886  71.032  1.00  0.00    -0.230 A  
HETATM   19  C   UNL     1     -12.065   9.255  71.311  1.00  0.00    -0.412 A  
HETATM   20 CL   UNL     1     -13.458   6.976  71.573  1.00  0.00    -0.404 Cl 
HETATM   21  C   UNL     1     -10.979  10.043  70.900  1.00  0.00    -0.337 A  
ENDBRANCH  12  14
ENDBRANCH  10  12
ENDBRANCH   8  10
ENDBRANCH   5   8
TORSDOF 4
ENDMDL
MODEL      229
REMARK 921   NORMALIZED FREE ENERGY PREDICTED BY IDOCK:   -3.28 KCAL/MOL
REMARK 922        TOTAL FREE ENERGY PREDICTED BY IDOCK:   -4.66 KCAL/MOL
REMARK 923 INTER-LIGAND FREE ENERGY PREDICTED BY IDOCK:   -4.46 KCAL/MOL
REMARK 924 INTRA-LIGAND FREE ENERGY PREDICTED BY IDOCK:   -0.20 KCAL/MOL
REMARK 927      BINDING AFFINITY PREDICTED BY RF-SCORE:    0.00 PKD
ROOT
HETATM    1 CL   UNL     1     -11.810   5.800  72.411  1.00  0.00    -0.304 Cl 
HETATM    2  C   UNL     1     -10.808   6.800  71.434  1.00  0.00    -0.236 A  
HETATM    3  C   UNL     1     -11.380   7.799  70.659  1.00  0.00    -0.275 A  
HETATM    4  C   UNL     1     -10.562   8.616  69.876  1.00  0.00    -0.227 A  
HETATM    5  C   UNL     1      -9.170   8.456  69.867  1.00  0.00    -0.151 A  
HETATM    6  C   UNL     1      -9.428   6.605  71.420  1.00  0.00    -0.161 A  
HETATM    7  C   UNL     1      -8.610   7.424  70.627  1.00  0.00    -0.141 A  
ENDROOT
BRANCH   5   8
HETATM    8  N   UNL     1      -8.311   9.289  69.107  1.00  0.00    -0.123 N  
HETATM    9  H   UNL     1      -8.100   9.013  68.148  1.00  0.00     0.000 HD 
BRANCH   8  10
HETATM   10  C   UNL     1      -7.740  10.454  69.590  1.00  0.00    -0.144 C  
HETATM   11  O   UNL     1      -6.976  10.489  70.550  1.00  0.00    -0.307 OA 
BRANCH  10  12
HETATM   12  N   UNL     1      -8.118  11.582  68.878  1.00  0.00    -0.322 N  
HETATM   13  H   UNL     1      -7.943  12.495  69.297  1.00  0.00     0.000 HD 
BRANCH  12  14
HETATM   14  C   UNL     1      -8.735  11.538  67.603  1.00  0.00    -0.142 A  
HETATM   15  C   UNL     1     -10.015  12.059  67.366  1.00  0.00    -0.200 A  
HETATM   16  C   UNL     1     -10.584  12.032  66.088  1.00  0.00    -0.263 A  
HETATM   17 CL   UNL     1     -12.158  12.720  65.895  1.00  0.00    -0.500 Cl 
HETATM   18  C   UNL     1      -9.877  11.462  65.030  1.00  0.00    -0.261 A  
HETATM   19  C   UNL     1      -8.613  10.912  65.260  1.00  0.00    -0.103 A  
HETATM   20 CL   UNL     1     -10.510  11.398  63.424  1.00  0.00    -0.443 Cl 
HETATM   21  C   UNL     1      -8.047  10.940  66.543  1.00  0.00    -0.154 A  
ENDBRANCH  12  14
ENDBRANCH  10  12
ENDBRANCH   8  10
ENDBRANCH   5   8
TORSDOF 4
ENDMDL
MODEL      230
REMARK 921   NORMALIZED FREE ENERGY PREDICTED BY IDOCK:   -3.26 KCAL/MOL
REMARK 922        TOTAL FREE ENERGY PREDICTED BY IDOCK:   -4.63 KCAL/MOL
REMARK 923 INTER-LIGAND FREE ENERGY PREDICTED BY IDOCK:   -4.17 KCAL/MOL
REMARK 924 INTRA-LIGAND FREE ENERGY PREDICTED BY IDOCK:   -0.46 KCAL/MOL
REMARK 927      BINDING AFFINITY PREDICTED BY RF-SCORE:    0.00 PKD
ROOT
HETATM    1 CL   UNL     1      -6.571   7.501  73.372  1.00  0.00    -0.065 Cl 
HETATM    2  C   UNL     1      -7.802   7.960  72.262  1.00  0.00    -0.112 A  
HETATM    3  C   UNL     1      -9.038   7.329  72.305  1.00  0.00    -0.152 A  
HETATM    4  C   UNL     1     -10.038   7.711  71.409  1.00  0.00    -0.204 A  
HETATM    5  C   UNL     1      -9.824   8.732  70.473  1.00  0.00    -0.188 A  
HETATM    6  C   UNL     1      -7.558   8.959  71.320  1.00  0.00    -0.132 A  
HETATM    7  C   UNL     1      -8.563   9.336  70.418  1.00  0.00    -0.250 A  
ENDROOT
BRANCH   5   8
HETATM    8  N   UNL     1     -10.828   9.164  69.571  1.00  0.00    -0.332 N  
HETATM    9  H   UNL     1     -11.635   9.658  69.951  1.00  0.00     0.000 HD 
BRANCH   8  10
HETATM   10  C   UNL     1     -10.778   8.955  68.202  1.00  0.00    -0.092 C  
HETATM   11  O   UNL     1     -10.417   7.900  67.690  1.00  0.00    -0.228 OA 
BRANCH  10  12
HETATM   12  N   UNL     1     -11.180  10.058  67.467  1.00  0.00    -0.378 N  
HETATM   13  H   UNL     1     -11.680   9.897  66.593  1.00  0.00     0.000 HD 
BRANCH  12  14
HETATM   14  C   UNL     1     -10.935  11.398  67.860  1.00  0.00    -0.240 A  
HETATM   15  C   UNL     1     -11.840  12.133  68.640  1.00  0.00    -0.358 A  
HETATM   16  C   UNL     1     -11.556  13.442  69.041  1.00  0.00    -0.312 A  
HETATM   17 CL   UNL     1     -12.725  14.254  70.020  1.00  0.00    -0.270 Cl 
HETATM   18  C   UNL     1     -10.361  14.041  68.645  1.00  0.00    -0.238 A  
HETATM   19  C   UNL     1      -9.465  13.330  67.841  1.00  0.00    -0.214 A  
HETATM   20 CL   UNL     1      -9.936  15.650  69.105  1.00  0.00    -0.227 Cl 
HETATM   21  C   UNL     1      -9.755  12.018  67.441  1.00  0.00    -0.185 A  
ENDBRANCH  12  14
ENDBRANCH  10  12
ENDBRANCH   8  10
ENDBRANCH   5   8
TORSDOF 4
ENDMDL
MODEL      231
REMARK 921   NORMALIZED FREE ENERGY PREDICTED BY IDOCK:   -3.26 KCAL/MOL
REMARK 922        TOTAL FREE ENERGY PREDICTED BY IDOCK:   -4.63 KCAL/MOL
REMARK 923 INTER-LIGAND FREE ENERGY PREDICTED BY IDOCK:   -4.19 KCAL/MOL
REMARK 924 INTRA-LIGAND FREE ENERGY PREDICTED BY IDOCK:   -0.44 KCAL/MOL
REMARK 927      BINDING AFFINITY PREDICTED BY RF-SCORE:    0.00 PKD
ROOT
HETATM    1 CL   UNL     1      -5.338  11.063  71.266  1.00  0.00    -0.076 Cl 
HETATM    2  C   UNL     1      -6.343  10.327  70.081  1.00  0.00    -0.117 A  
HETATM    3  C   UNL     1      -6.556  10.965  68.866  1.00  0.00    -0.056 A  
HETATM    4  C   UNL     1      -7.364  10.359  67.902  1.00  0.00    -0.086 A  
HETATM    5  C   UNL     1      -7.955   9.108  68.131  1.00  0.00    -0.100 A  
HETATM    6  C   UNL     1      -6.943   9.095  70.340  1.00  0.00    -0.071 A  
HETATM    7  C   UNL     1      -7.759   8.493  69.371  1.00  0.00    -0.092 A  
ENDROOT
BRANCH   5   8
HETATM    8  N   UNL     1      -8.755   8.453  67.161  1.00  0.00    -0.125 N  
HETATM    9  H   UNL     1      -8.302   7.788  66.535  1.00  0.00     0.000 HD 
BRANCH   8  10
HETATM   10  C   UNL     1     -10.116   8.664  67.014  1.00  0.00    -0.272 C  
HETATM   11  O   UNL     1     -10.945   7.759  66.993  1.00  0.00    -0.247 OA 
BRANCH  10  12
HETATM   12  N   UNL     1     -10.450  10.004  66.894  1.00  0.00    -0.233 N  
HETATM   13  H   UNL     1     -10.267  10.466  66.003  1.00  0.00     0.000 HD 
BRANCH  12  14
HETATM   14  C   UNL     1     -11.032  10.767  67.936  1.00  0.00    -0.289 A  
HETATM   15  C   UNL     1     -11.496  10.189  69.126  1.00  0.00    -0.155 A  
HETATM   16  C   UNL     1     -12.035  10.973  70.152  1.00  0.00    -0.360 A  
HETATM   17 CL   UNL     1     -12.558  10.168  71.589  1.00  0.00    -0.507 Cl 
HETATM   18  C   UNL     1     -12.132  12.354  69.986  1.00  0.00    -0.263 A  
HETATM   19  C   UNL     1     -11.701  12.939  68.792  1.00  0.00    -0.363 A  
HETATM   20 CL   UNL     1     -12.778  13.389  71.209  1.00  0.00    -0.445 Cl 
HETATM   21  C   UNL     1     -11.163  12.148  67.766  1.00  0.00    -0.333 A  
ENDBRANCH  12  14
ENDBRANCH  10  12
ENDBRANCH   8  10
ENDBRANCH   5   8
TORSDOF 4
ENDMDL
MODEL      232
REMARK 921   NORMALIZED FREE ENERGY PREDICTED BY IDOCK:   -3.25 KCAL/MOL
REMARK 922        TOTAL FREE ENERGY PREDICTED BY IDOCK:   -4.62 KCAL/MOL
REMARK 923 INTER-LIGAND FREE ENERGY PREDICTED BY IDOCK:   -4.59 KCAL/MOL
REMARK 924 INTRA-LIGAND FREE ENERGY PREDICTED BY IDOCK:   -0.03 KCAL/MOL
REMARK 927      BINDING AFFINITY PREDICTED BY RF-SCORE:    0.00 PKD
ROOT
HETATM    1 CL   UNL     1      -9.841   4.040  66.851  1.00  0.00    -0.217 Cl 
HETATM    2  C   UNL     1     -10.088   5.621  67.481  1.00  0.00    -0.174 A  
HETATM    3  C   UNL     1     -10.213   5.805  68.851  1.00  0.00    -0.267 A  
HETATM    4  C   UNL     1     -10.403   7.092  69.359  1.00  0.00    -0.218 A  
HETATM    5  C   UNL     1     -10.455   8.207  68.512  1.00  0.00    -0.162 A  
HETATM    6  C   UNL     1     -10.164   6.714  66.618  1.00  0.00    -0.208 A  
HETATM    7  C   UNL     1     -10.361   8.004  67.131  1.00  0.00    -0.395 A  
ENDROOT
BRANCH   5   8
HETATM    8  N   UNL     1     -10.616   9.529  68.999  1.00  0.00    -0.219 N  
HETATM    9  H   UNL     1     -10.404   9.708  69.980  1.00  0.00     0.000 HD 
BRANCH   8  10
HETATM   10  C   UNL     1     -11.045  10.591  68.220  1.00  0.00    -0.284 C  
HETATM   11  O   UNL     1     -12.222  10.919  68.109  1.00  0.00    -0.503 OA 
BRANCH  10  12
HETATM   12  N   UNL     1     -10.008  11.250  67.579  1.00  0.00    -0.180 N  
HETATM   13  H   UNL     1      -9.491  10.745  66.859  1.00  0.00     0.000 HD 
BRANCH  12  14
HETATM   14  C   UNL     1      -9.625  12.584  67.867  1.00  0.00    -0.206 A  
HETATM   15  C   UNL     1     -10.516  13.527  68.397  1.00  0.00    -0.252 A  
HETATM   16  C   UNL     1     -10.100  14.827  68.702  1.00  0.00    -0.238 A  
HETATM   17 CL   UNL     1     -11.269  15.908  69.374  1.00  0.00    -0.310 Cl 
HETATM   18  C   UNL     1      -8.779  15.204  68.460  1.00  0.00    -0.172 A  
HETATM   19  C   UNL     1      -7.889  14.281  67.902  1.00  0.00    -0.156 A  
HETATM   20 CL   UNL     1      -8.189  16.787  68.817  1.00  0.00    -0.248 Cl 
HETATM   21  C   UNL     1      -8.312  12.980  67.596  1.00  0.00    -0.181 A  
ENDBRANCH  12  14
ENDBRANCH  10  12
ENDBRANCH   8  10
ENDBRANCH   5   8
TORSDOF 4
ENDMDL
MODEL      233
REMARK 921   NORMALIZED FREE ENERGY PREDICTED BY IDOCK:   -3.24 KCAL/MOL
REMARK 922        TOTAL FREE ENERGY PREDICTED BY IDOCK:   -4.61 KCAL/MOL
REMARK 923 INTER-LIGAND FREE ENERGY PREDICTED BY IDOCK:   -4.47 KCAL/MOL
REMARK 924 INTRA-LIGAND FREE ENERGY PREDICTED BY IDOCK:   -0.14 KCAL/MOL
REMARK 927      BINDING AFFINITY PREDICTED BY RF-SCORE:    0.00 PKD
ROOT
HETATM    1 CL   UNL     1     -12.268  17.367  74.455  1.00  0.00     0.051 Cl 
HETATM    2  C   UNL     1     -12.735  15.936  73.624  1.00  0.00    -0.604 A  
HETATM    3  C   UNL     1     -13.904  15.925  72.875  1.00  0.00    -0.530 A  
HETATM    4  C   UNL     1     -14.274  14.765  72.192  1.00  0.00    -0.608 A  
HETATM    5  C   UNL     1     -13.479  13.611  72.236  1.00  0.00    -0.555 A  
HETATM    6  C   UNL     1     -11.943  14.791  73.703  1.00  0.00    -0.288 A  
HETATM    7  C   UNL     1     -12.321  13.626  73.021  1.00  0.00     0.739 A  
ENDROOT
BRANCH   5   8
HETATM    8  N   UNL     1     -13.811  12.428  71.530  1.00  0.00     0.542 N  
HETATM    9  H   UNL     1     -14.778  12.107  71.560  1.00  0.00     0.000 HD 
BRANCH   8  10
HETATM   10  C   UNL     1     -12.899  11.683  70.801  1.00  0.00    -0.109 C  
HETATM   11  O   UNL     1     -12.019  12.179  70.103  1.00  0.00    -0.339 OA 
BRANCH  10  12
HETATM   12  N   UNL     1     -13.078  10.316  70.939  1.00  0.00    -0.454 N  
HETATM   13  H   UNL     1     -13.955   9.911  70.612  1.00  0.00     0.000 HD 
BRANCH  12  14
HETATM   14  C   UNL     1     -12.113   9.448  71.508  1.00  0.00    -0.379 A  
HETATM   15  C   UNL     1     -10.757   9.493  71.155  1.00  0.00    -0.408 A  
HETATM   16  C   UNL     1      -9.821   8.646  71.759  1.00  0.00    -0.295 A  
HETATM   17 CL   UNL     1      -8.170   8.795  71.271  1.00  0.00    -0.198 Cl 
HETATM   18  C   UNL     1     -10.242   7.725  72.718  1.00  0.00    -0.299 A  
HETATM   19  C   UNL     1     -11.596   7.650  73.056  1.00  0.00    -0.183 A  
HETATM   20 CL   UNL     1      -9.146   6.653  73.513  1.00  0.00    -0.139 Cl 
HETATM   21  C   UNL     1     -12.530   8.500  72.446  1.00  0.00    -0.416 A  
ENDBRANCH  12  14
ENDBRANCH  10  12
ENDBRANCH   8  10
ENDBRANCH   5   8
TORSDOF 4
ENDMDL
MODEL      234
REMARK 921   NORMALIZED FREE ENERGY PREDICTED BY IDOCK:   -3.19 KCAL/MOL
REMARK 922        TOTAL FREE ENERGY PREDICTED BY IDOCK:   -4.54 KCAL/MOL
REMARK 923 INTER-LIGAND FREE ENERGY PREDICTED BY IDOCK:   -3.83 KCAL/MOL
REMARK 924 INTRA-LIGAND FREE ENERGY PREDICTED BY IDOCK:   -0.71 KCAL/MOL
REMARK 927      BINDING AFFINITY PREDICTED BY RF-SCORE:    0.00 PKD
ROOT
HETATM    1 CL   UNL     1     -10.131   7.425  73.931  1.00  0.00    -0.322 Cl 
HETATM    2  C   UNL     1     -10.366   7.685  72.248  1.00  0.00    -0.224 A  
HETATM    3  C   UNL     1     -10.635   6.607  71.415  1.00  0.00    -0.255 A  
HETATM    4  C   UNL     1     -10.836   6.823  70.051  1.00  0.00    -0.311 A  
HETATM    5  C   UNL     1     -10.785   8.113  69.504  1.00  0.00    -0.175 A  
HETATM    6  C   UNL     1     -10.283   8.973  71.720  1.00  0.00    -0.389 A  
HETATM    7  C   UNL     1     -10.480   9.186  70.348  1.00  0.00    -0.268 A  
ENDROOT
BRANCH   5   8
HETATM    8  N   UNL     1     -11.014   8.369  68.129  1.00  0.00    -0.449 N  
HETATM    9  H   UNL     1     -11.977   8.503  67.820  1.00  0.00     0.000 HD 
BRANCH   8  10
HETATM   10  C   UNL     1     -10.008   8.447  67.180  1.00  0.00    -0.238 C  
HETATM   11  O   UNL     1      -9.389   7.472  66.765  1.00  0.00    -0.149 OA 
BRANCH  10  12
HETATM   12  N   UNL     1      -9.770   9.740  66.744  1.00  0.00    -0.183 N  
HETATM   13  H   UNL     1     -10.258  10.063  65.909  1.00  0.00     0.000 HD 
BRANCH  12  14
HETATM   14  C   UNL     1      -8.886  10.640  67.391  1.00  0.00    -0.132 A  
HETATM   15  C   UNL     1      -7.648  10.237  67.913  1.00  0.00    -0.089 A  
HETATM   16  C   UNL     1      -6.782  11.155  68.516  1.00  0.00    -0.062 A  
HETATM   17 CL   UNL     1      -5.269  10.564  69.107  1.00  0.00    -0.038 Cl 
HETATM   18  C   UNL     1      -7.159  12.494  68.621  1.00  0.00    -0.100 A  
HETATM   19  C   UNL     1      -8.403  12.901  68.132  1.00  0.00    -0.168 A  
HETATM   20 CL   UNL     1      -6.141  13.686  69.345  1.00  0.00    -0.098 Cl 
HETATM   21  C   UNL     1      -9.269  11.977  67.530  1.00  0.00    -0.180 A  
ENDBRANCH  12  14
ENDBRANCH  10  12
ENDBRANCH   8  10
ENDBRANCH   5   8
TORSDOF 4
ENDMDL
MODEL      235
REMARK 921   NORMALIZED FREE ENERGY PREDICTED BY IDOCK:   -3.17 KCAL/MOL
REMARK 922        TOTAL FREE ENERGY PREDICTED BY IDOCK:   -4.52 KCAL/MOL
REMARK 923 INTER-LIGAND FREE ENERGY PREDICTED BY IDOCK:   -3.84 KCAL/MOL
REMARK 924 INTRA-LIGAND FREE ENERGY PREDICTED BY IDOCK:   -0.68 KCAL/MOL
REMARK 927      BINDING AFFINITY PREDICTED BY RF-SCORE:    0.00 PKD
ROOT
HETATM    1 CL   UNL     1      -7.429  11.667  67.510  1.00  0.00    -0.115 Cl 
HETATM    2  C   UNL     1      -7.865  10.022  67.264  1.00  0.00    -0.102 A  
HETATM    3  C   UNL     1      -7.273   9.030  68.034  1.00  0.00    -0.080 A  
HETATM    4  C   UNL     1      -7.637   7.696  67.838  1.00  0.00    -0.117 A  
HETATM    5  C   UNL     1      -8.602   7.338  66.887  1.00  0.00    -0.124 A  
HETATM    6  C   UNL     1      -8.807   9.685  66.293  1.00  0.00    -0.172 A  
HETATM    7  C   UNL     1      -9.166   8.344  66.096  1.00  0.00    -0.263 A  
ENDROOT
BRANCH   5   8
HETATM    8  N   UNL     1      -9.016   5.998  66.686  1.00  0.00    -0.124 N  
HETATM    9  H   UNL     1      -8.393   5.375  66.173  1.00  0.00     0.000 HD 
BRANCH   8  10
HETATM   10  C   UNL     1     -10.217   5.484  67.147  1.00  0.00    -0.218 C  
HETATM   11  O   UNL     1     -11.285   5.622  66.559  1.00  0.00    -0.098 OA 
BRANCH  10  12
HETATM   12  N   UNL     1     -10.091   4.793  68.342  1.00  0.00    -0.090 N  
HETATM   13  H   UNL     1      -9.903   3.792  68.301  1.00  0.00     0.000 HD 
BRANCH  12  14
HETATM   14  C   UNL     1     -10.210   5.399  69.618  1.00  0.00    -0.274 A  
HETATM   15  C   UNL     1     -11.053   6.493  69.858  1.00  0.00    -0.430 A  
HETATM   16  C   UNL     1     -11.175   7.048  71.137  1.00  0.00    -0.270 A  
HETATM   17 CL   UNL     1     -12.258   8.381  71.334  1.00  0.00    -0.326 Cl 
HETATM   18  C   UNL     1     -10.432   6.520  72.192  1.00  0.00    -0.205 A  
HETATM   19  C   UNL     1      -9.564   5.449  71.958  1.00  0.00    -0.186 A  
HETATM   20 CL   UNL     1     -10.534   7.146  73.798  1.00  0.00    -0.409 Cl 
HETATM   21  C   UNL     1      -9.445   4.897  70.675  1.00  0.00    -0.237 A  
ENDBRANCH  12  14
ENDBRANCH  10  12
ENDBRANCH   8  10
ENDBRANCH   5   8
TORSDOF 4
ENDMDL
MODEL      236
REMARK 921   NORMALIZED FREE ENERGY PREDICTED BY IDOCK:   -3.10 KCAL/MOL
REMARK 922        TOTAL FREE ENERGY PREDICTED BY IDOCK:   -4.44 KCAL/MOL
REMARK 923 INTER-LIGAND FREE ENERGY PREDICTED BY IDOCK:   -4.28 KCAL/MOL
REMARK 924 INTRA-LIGAND FREE ENERGY PREDICTED BY IDOCK:   -0.16 KCAL/MOL
REMARK 927      BINDING AFFINITY PREDICTED BY RF-SCORE:    0.00 PKD
ROOT
HETATM    1 CL   UNL     1     -11.267  16.202  64.574  1.00  0.00    -0.409 Cl 
HETATM    2  C   UNL     1     -10.702  14.750  65.300  1.00  0.00    -0.390 A  
HETATM    3  C   UNL     1     -10.153  14.785  66.575  1.00  0.00    -0.281 A  
HETATM    4  C   UNL     1      -9.705  13.602  67.165  1.00  0.00    -0.245 A  
HETATM    5  C   UNL     1      -9.810  12.372  66.500  1.00  0.00    -0.235 A  
HETATM    6  C   UNL     1     -10.791  13.541  64.609  1.00  0.00    -0.416 A  
HETATM    7  C   UNL     1     -10.334  12.356  65.203  1.00  0.00    -0.313 A  
ENDROOT
BRANCH   5   8
HETATM    8  N   UNL     1      -9.393  11.150  67.084  1.00  0.00    -0.164 N  
HETATM    9  H   UNL     1      -8.392  10.986  67.191  1.00  0.00     0.000 HD 
BRANCH   8  10
HETATM   10  C   UNL     1     -10.264  10.165  67.519  1.00  0.00    -0.211 C  
HETATM   11  O   UNL     1     -11.486  10.282  67.497  1.00  0.00    -0.323 OA 
BRANCH  10  12
HETATM   12  N   UNL     1      -9.617   9.030  67.981  1.00  0.00    -0.145 N  
HETATM   13  H   UNL     1      -9.368   8.988  68.969  1.00  0.00     0.000 HD 
BRANCH  12  14
HETATM   14  C   UNL     1      -9.282   7.925  67.159  1.00  0.00    -0.146 A  
HETATM   15  C   UNL     1      -9.573   6.602  67.520  1.00  0.00    -0.142 A  
HETATM   16  C   UNL     1      -9.260   5.533  66.672  1.00  0.00    -0.135 A  
HETATM   17 CL   UNL     1      -9.681   3.941  67.197  1.00  0.00    -0.229 Cl 
HETATM   18  C   UNL     1      -8.630   5.781  65.453  1.00  0.00    -0.143 A  
HETATM   19  C   UNL     1      -8.307   7.094  65.097  1.00  0.00    -0.081 A  
HETATM   20 CL   UNL     1      -8.220   4.516  64.352  1.00  0.00    -0.103 Cl 
HETATM   21  C   UNL     1      -8.621   8.161  65.951  1.00  0.00    -0.171 A  
ENDBRANCH  12  14
ENDBRANCH  10  12
ENDBRANCH   8  10
ENDBRANCH   5   8
TORSDOF 4
ENDMDL
MODEL      237
REMARK 921   NORMALIZED FREE ENERGY PREDICTED BY IDOCK:   -3.10 KCAL/MOL
REMARK 922        TOTAL FREE ENERGY PREDICTED BY IDOCK:   -4.44 KCAL/MOL
REMARK 923 INTER-LIGAND FREE ENERGY PREDICTED BY IDOCK:   -4.02 KCAL/MOL
REMARK 924 INTRA-LIGAND FREE ENERGY PREDICTED BY IDOCK:   -0.42 KCAL/MOL
REMARK 927      BINDING AFFINITY PREDICTED BY RF-SCORE:    0.00 PKD
ROOT
HETATM    1 CL   UNL     1      -6.981  18.371  67.111  1.00  0.00    -0.206 Cl 
HETATM    2  C   UNL     1      -7.616  16.870  67.660  1.00  0.00    -0.164 A  
HETATM    3  C   UNL     1      -8.852  16.834  68.292  1.00  0.00    -0.228 A  
HETATM    4  C   UNL     1      -9.368  15.612  68.727  1.00  0.00    -0.213 A  
HETATM    5  C   UNL     1      -8.669  14.414  68.525  1.00  0.00    -0.180 A  
HETATM    6  C   UNL     1      -6.890  15.693  67.474  1.00  0.00    -0.221 A  
HETATM    7  C   UNL     1      -7.410  14.469  67.917  1.00  0.00    -0.166 A  
ENDROOT
BRANCH   5   8
HETATM    8  N   UNL     1      -9.180  13.155  68.927  1.00  0.00    -0.373 N  
HETATM    9  H   UNL     1      -8.722  12.676  69.701  1.00  0.00     0.000 HD 
BRANCH   8  10
HETATM   10  C   UNL     1     -10.266  12.537  68.329  1.00  0.00    -0.234 C  
HETATM   11  O   UNL     1     -10.511  12.607  67.128  1.00  0.00    -0.233 OA 
BRANCH  10  12
HETATM   12  N   UNL     1     -11.051  11.828  69.224  1.00  0.00    -0.346 N  
HETATM   13  H   UNL     1     -11.897  12.274  69.578  1.00  0.00     0.000 HD 
BRANCH  12  14
HETATM   14  C   UNL     1     -10.745  10.520  69.677  1.00  0.00    -0.259 A  
HETATM   15  C   UNL     1     -10.398   9.481  68.802  1.00  0.00    -0.228 A  
HETATM   16  C   UNL     1     -10.068   8.209  69.280  1.00  0.00    -0.202 A  
HETATM   17 CL   UNL     1      -9.633   7.002  68.122  1.00  0.00    -0.130 Cl 
HETATM   18  C   UNL     1     -10.100   7.958  70.652  1.00  0.00    -0.194 A  
HETATM   19  C   UNL     1     -10.474   8.978  71.532  1.00  0.00    -0.410 A  
HETATM   20 CL   UNL     1      -9.698   6.417  71.319  1.00  0.00    -0.186 Cl 
HETATM   21  C   UNL     1     -10.805  10.251  71.047  1.00  0.00     0.147 A  
ENDBRANCH  12  14
ENDBRANCH  10  12
ENDBRANCH   8  10
ENDBRANCH   5   8
TORSDOF 4
ENDMDL
MODEL      238
REMARK 921   NORMALIZED FREE ENERGY PREDICTED BY IDOCK:   -3.10 KCAL/MOL
REMARK 922        TOTAL FREE ENERGY PREDICTED BY IDOCK:   -4.44 KCAL/MOL
REMARK 923 INTER-LIGAND FREE ENERGY PREDICTED BY IDOCK:   -4.18 KCAL/MOL
REMARK 924 INTRA-LIGAND FREE ENERGY PREDICTED BY IDOCK:   -0.25 KCAL/MOL
REMARK 927      BINDING AFFINITY PREDICTED BY RF-SCORE:    0.00 PKD
ROOT
HETATM    1 CL   UNL     1      -9.404   2.012  64.801  1.00  0.00    -0.126 Cl 
HETATM    2  C   UNL     1      -9.157   3.449  65.711  1.00  0.00    -0.152 A  
HETATM    3  C   UNL     1      -9.466   3.469  67.065  1.00  0.00    -0.207 A  
HETATM    4  C   UNL     1      -9.255   4.635  67.803  1.00  0.00    -0.150 A  
HETATM    5  C   UNL     1      -8.722   5.786  67.206  1.00  0.00    -0.108 A  
HETATM    6  C   UNL     1      -8.653   4.592  65.092  1.00  0.00    -0.135 A  
HETATM    7  C   UNL     1      -8.447   5.763  65.835  1.00  0.00    -0.139 A  
ENDROOT
BRANCH   5   8
HETATM    8  N   UNL     1      -8.468   6.975  67.935  1.00  0.00    -0.124 N  
HETATM    9  H   UNL     1      -8.186   6.889  68.911  1.00  0.00     0.000 HD 
BRANCH   8  10
HETATM   10  C   UNL     1      -8.579   8.247  67.399  1.00  0.00    -0.125 C  
HETATM   11  O   UNL     1      -7.622   8.997  67.225  1.00  0.00    -0.087 OA 
BRANCH  10  12
HETATM   12  N   UNL     1      -9.881   8.590  67.075  1.00  0.00    -0.200 N  
HETATM   13  H   UNL     1     -10.615   7.901  67.238  1.00  0.00     0.000 HD 
BRANCH  12  14
HETATM   14  C   UNL     1     -10.253   9.844  66.528  1.00  0.00    -0.222 A  
HETATM   15  C   UNL     1     -10.935  10.819  67.272  1.00  0.00    -0.359 A  
HETATM   16  C   UNL     1     -11.259  12.061  66.715  1.00  0.00    -0.322 A  
HETATM   17 CL   UNL     1     -12.079  13.202  67.721  1.00  0.00    -0.331 Cl 
HETATM   18  C   UNL     1     -10.917  12.334  65.391  1.00  0.00    -0.301 A  
HETATM   19  C   UNL     1     -10.265  11.359  64.631  1.00  0.00    -0.347 A  
HETATM   20 CL   UNL     1     -11.276  13.846  64.638  1.00  0.00    -0.369 Cl 
HETATM   21  C   UNL     1      -9.944  10.115  65.193  1.00  0.00    -0.379 A  
ENDBRANCH  12  14
ENDBRANCH  10  12
ENDBRANCH   8  10
ENDBRANCH   5   8
TORSDOF 4
ENDMDL
MODEL      239
REMARK 921   NORMALIZED FREE ENERGY PREDICTED BY IDOCK:   -3.10 KCAL/MOL
REMARK 922        TOTAL FREE ENERGY PREDICTED BY IDOCK:   -4.43 KCAL/MOL
REMARK 923 INTER-LIGAND FREE ENERGY PREDICTED BY IDOCK:   -3.96 KCAL/MOL
REMARK 924 INTRA-LIGAND FREE ENERGY PREDICTED BY IDOCK:   -0.48 KCAL/MOL
REMARK 927      BINDING AFFINITY PREDICTED BY RF-SCORE:    0.00 PKD
ROOT
HETATM    1 CL   UNL     1     -10.420   7.309  73.817  1.00  0.00    -0.396 Cl 
HETATM    2  C   UNL     1     -10.496   7.568  72.118  1.00  0.00    -0.214 A  
HETATM    3  C   UNL     1     -10.691   6.490  71.266  1.00  0.00    -0.280 A  
HETATM    4  C   UNL     1     -10.763   6.705  69.888  1.00  0.00    -0.297 A  
HETATM    5  C   UNL     1     -10.655   7.994  69.347  1.00  0.00    -0.205 A  
HETATM    6  C   UNL     1     -10.358   8.855  71.600  1.00  0.00    -0.416 A  
HETATM    7  C   UNL     1     -10.424   9.066  70.215  1.00  0.00    -0.248 A  
ENDROOT
BRANCH   5   8
HETATM    8  N   UNL     1     -10.754   8.249  67.957  1.00  0.00    -0.447 N  
HETATM    9  H   UNL     1     -11.682   8.391  67.560  1.00  0.00     0.000 HD 
BRANCH   8  10
HETATM   10  C   UNL     1      -9.663   8.315  67.105  1.00  0.00    -0.195 C  
HETATM   11  O   UNL     1      -9.613   9.049  66.122  1.00  0.00    -0.233 OA 
BRANCH  10  12
HETATM   12  N   UNL     1      -8.630   7.470  67.475  1.00  0.00    -0.122 N  
HETATM   13  H   UNL     1      -7.890   7.846  68.067  1.00  0.00     0.000 HD 
BRANCH  12  14
HETATM   14  C   UNL     1      -8.542   6.112  67.078  1.00  0.00    -0.108 A  
HETATM   15  C   UNL     1      -9.175   5.620  65.928  1.00  0.00    -0.145 A  
HETATM   16  C   UNL     1      -9.043   4.281  65.543  1.00  0.00    -0.138 A  
HETATM   17 CL   UNL     1      -9.843   3.779  64.096  1.00  0.00    -0.171 Cl 
HETATM   18  C   UNL     1      -8.284   3.411  66.324  1.00  0.00    -0.097 A  
HETATM   19  C   UNL     1      -7.673   3.882  67.490  1.00  0.00    -0.075 A  
HETATM   20 CL   UNL     1      -8.068   1.748  65.910  1.00  0.00    -0.078 Cl 
HETATM   21  C   UNL     1      -7.811   5.224  67.872  1.00  0.00    -0.092 A  
ENDBRANCH  12  14
ENDBRANCH  10  12
ENDBRANCH   8  10
ENDBRANCH   5   8
TORSDOF 4
ENDMDL
MODEL      240
REMARK 921   NORMALIZED FREE ENERGY PREDICTED BY IDOCK:   -3.09 KCAL/MOL
REMARK 922        TOTAL FREE ENERGY PREDICTED BY IDOCK:   -4.43 KCAL/MOL
REMARK 923 INTER-LIGAND FREE ENERGY PREDICTED BY IDOCK:   -4.39 KCAL/MOL
REMARK 924 INTRA-LIGAND FREE ENERGY PREDICTED BY IDOCK:   -0.04 KCAL/MOL
REMARK 927      BINDING AFFINITY PREDICTED BY RF-SCORE:    0.00 PKD
ROOT
HETATM    1 CL   UNL     1      -7.039  15.923  67.360  1.00  0.00    -0.208 Cl 
HETATM    2  C   UNL     1      -7.968  14.483  67.226  1.00  0.00    -0.191 A  
HETATM    3  C   UNL     1      -9.299  14.555  66.838  1.00  0.00    -0.258 A  
HETATM    4  C   UNL     1     -10.047  13.382  66.721  1.00  0.00    -0.260 A  
HETATM    5  C   UNL     1      -9.476  12.128  66.974  1.00  0.00    -0.201 A  
HETATM    6  C   UNL     1      -7.388  13.247  67.510  1.00  0.00    -0.159 A  
HETATM    7  C   UNL     1      -8.144  12.072  67.397  1.00  0.00    -0.168 A  
ENDROOT
BRANCH   5   8
HETATM    8  N   UNL     1     -10.201  10.917  66.835  1.00  0.00    -0.219 N  
HETATM    9  H   UNL     1     -10.077  10.381  65.976  1.00  0.00     0.000 HD 
BRANCH   8  10
HETATM   10  C   UNL     1     -11.066  10.421  67.795  1.00  0.00    -0.299 C  
HETATM   11  O   UNL     1     -12.138  10.947  68.081  1.00  0.00    -0.563 OA 
BRANCH  10  12
HETATM   12  N   UNL     1     -10.601   9.266  68.403  1.00  0.00    -0.316 N  
HETATM   13  H   UNL     1     -10.467   9.276  69.414  1.00  0.00     0.000 HD 
BRANCH  12  14
HETATM   14  C   UNL     1     -10.302   8.071  67.701  1.00  0.00    -0.246 A  
HETATM   15  C   UNL     1      -9.385   8.029  66.641  1.00  0.00    -0.249 A  
HETATM   16  C   UNL     1      -9.085   6.828  65.989  1.00  0.00    -0.072 A  
HETATM   17 CL   UNL     1      -7.923   6.877  64.710  1.00  0.00    -0.122 Cl 
HETATM   18  C   UNL     1      -9.720   5.652  66.383  1.00  0.00    -0.156 A  
HETATM   19  C   UNL     1     -10.660   5.687  67.417  1.00  0.00    -0.312 A  
HETATM   20 CL   UNL     1      -9.397   4.131  65.632  1.00  0.00    -0.150 Cl 
HETATM   21  C   UNL     1     -10.959   6.893  68.067  1.00  0.00    -0.241 A  
ENDBRANCH  12  14
ENDBRANCH  10  12
ENDBRANCH   8  10
ENDBRANCH   5   8
TORSDOF 4
ENDMDL
MODEL      241
REMARK 921   NORMALIZED FREE ENERGY PREDICTED BY IDOCK:   -3.07 KCAL/MOL
REMARK 922        TOTAL FREE ENERGY PREDICTED BY IDOCK:   -4.39 KCAL/MOL
REMARK 923 INTER-LIGAND FREE ENERGY PREDICTED BY IDOCK:   -3.71 KCAL/MOL
REMARK 924 INTRA-LIGAND FREE ENERGY PREDICTED BY IDOCK:   -0.68 KCAL/MOL
REMARK 927      BINDING AFFINITY PREDICTED BY RF-SCORE:    0.00 PKD
ROOT
HETATM    1 CL   UNL     1      -7.208  10.586  65.317  1.00  0.00    -0.098 Cl 
HETATM    2  C   UNL     1      -7.416   9.134  66.215  1.00  0.00    -0.092 A  
HETATM    3  C   UNL     1      -6.582   8.865  67.292  1.00  0.00    -0.062 A  
HETATM    4  C   UNL     1      -6.760   7.691  68.025  1.00  0.00    -0.063 A  
HETATM    5  C   UNL     1      -7.777   6.781  67.704  1.00  0.00    -0.111 A  
HETATM    6  C   UNL     1      -8.416   8.230  65.861  1.00  0.00    -0.151 A  
HETATM    7  C   UNL     1      -8.589   7.049  66.597  1.00  0.00    -0.124 A  
ENDROOT
BRANCH   5   8
HETATM    8  N   UNL     1      -8.004   5.596  68.448  1.00  0.00    -0.099 N  
HETATM    9  H   UNL     1      -7.316   4.846  68.377  1.00  0.00     0.000 HD 
BRANCH   8  10
HETATM   10  C   UNL     1      -9.104   5.396  69.265  1.00  0.00    -0.108 C  
HETATM   11  O   UNL     1     -10.018   4.623  68.995  1.00  0.00    -0.175 OA 
BRANCH  10  12
HETATM   12  N   UNL     1      -9.069   6.158  70.422  1.00  0.00    -0.152 N  
HETATM   13  H   UNL     1      -8.244   6.089  71.017  1.00  0.00     0.000 HD 
BRANCH  12  14
HETATM   14  C   UNL     1     -10.114   7.026  70.825  1.00  0.00    -0.194 A  
HETATM   15  C   UNL     1     -10.217   8.347  70.366  1.00  0.00    -0.212 A  
HETATM   16  C   UNL     1     -11.279   9.170  70.756  1.00  0.00    -0.277 A  
HETATM   17 CL   UNL     1     -11.328  10.775  70.116  1.00  0.00    -0.382 Cl 
HETATM   18  C   UNL     1     -12.247   8.680  71.631  1.00  0.00    -0.333 A  
HETATM   19  C   UNL     1     -12.139   7.374  72.120  1.00  0.00    -0.289 A  
HETATM   20 CL   UNL     1     -13.591   9.632  72.151  1.00  0.00    -0.494 Cl 
HETATM   21  C   UNL     1     -11.071   6.554  71.728  1.00  0.00    -0.299 A  
ENDBRANCH  12  14
ENDBRANCH  10  12
ENDBRANCH   8  10
ENDBRANCH   5   8
TORSDOF 4
ENDMDL
MODEL      242
REMARK 921   NORMALIZED FREE ENERGY PREDICTED BY IDOCK:   -3.06 KCAL/MOL
REMARK 922        TOTAL FREE ENERGY PREDICTED BY IDOCK:   -4.39 KCAL/MOL
REMARK 923 INTER-LIGAND FREE ENERGY PREDICTED BY IDOCK:   -3.82 KCAL/MOL
REMARK 924 INTRA-LIGAND FREE ENERGY PREDICTED BY IDOCK:   -0.57 KCAL/MOL
REMARK 927      BINDING AFFINITY PREDICTED BY RF-SCORE:    0.00 PKD
ROOT
HETATM    1 CL   UNL     1     -10.543   3.440  63.385  1.00  0.00    -0.236 Cl 
HETATM    2  C   UNL     1     -10.077   3.986  64.948  1.00  0.00    -0.205 A  
HETATM    3  C   UNL     1      -8.935   3.471  65.546  1.00  0.00    -0.141 A  
HETATM    4  C   UNL     1      -8.554   3.925  66.810  1.00  0.00    -0.107 A  
HETATM    5  C   UNL     1      -9.296   4.905  67.484  1.00  0.00    -0.133 A  
HETATM    6  C   UNL     1     -10.845   4.941  65.613  1.00  0.00    -0.079 A  
HETATM    7  C   UNL     1     -10.463   5.391  66.885  1.00  0.00    -0.337 A  
ENDROOT
BRANCH   5   8
HETATM    8  N   UNL     1      -8.919   5.409  68.754  1.00  0.00    -0.115 N  
HETATM    9  H   UNL     1      -9.562   5.274  69.534  1.00  0.00     0.000 HD 
BRANCH   8  10
HETATM   10  C   UNL     1      -7.728   6.073  68.998  1.00  0.00    -0.092 C  
HETATM   11  O   UNL     1      -6.712   5.518  69.405  1.00  0.00    -0.054 OA 
BRANCH  10  12
HETATM   12  N   UNL     1      -7.798   7.431  68.734  1.00  0.00    -0.119 N  
HETATM   13  H   UNL     1      -7.064   7.848  68.161  1.00  0.00     0.000 HD 
BRANCH  12  14
HETATM   14  C   UNL     1      -8.831   8.275  69.214  1.00  0.00    -0.143 A  
HETATM   15  C   UNL     1      -9.597   9.087  68.366  1.00  0.00    -0.163 A  
HETATM   16  C   UNL     1     -10.633   9.885  68.864  1.00  0.00    -0.218 A  
HETATM   17 CL   UNL     1     -11.533  10.832  67.734  1.00  0.00    -0.359 Cl 
HETATM   18  C   UNL     1     -10.901   9.891  70.233  1.00  0.00    -0.310 A  
HETATM   19  C   UNL     1     -10.124   9.109  71.093  1.00  0.00    -0.384 A  
HETATM   20 CL   UNL     1     -12.166  10.842  70.922  1.00  0.00    -0.464 Cl 
HETATM   21  C   UNL     1      -9.086   8.312  70.587  1.00  0.00    -0.164 A  
ENDBRANCH  12  14
ENDBRANCH  10  12
ENDBRANCH   8  10
ENDBRANCH   5   8
TORSDOF 4
ENDMDL
MODEL      243
REMARK 921   NORMALIZED FREE ENERGY PREDICTED BY IDOCK:   -3.06 KCAL/MOL
REMARK 922        TOTAL FREE ENERGY PREDICTED BY IDOCK:   -4.39 KCAL/MOL
REMARK 923 INTER-LIGAND FREE ENERGY PREDICTED BY IDOCK:   -4.20 KCAL/MOL
REMARK 924 INTRA-LIGAND FREE ENERGY PREDICTED BY IDOCK:   -0.19 KCAL/MOL
REMARK 927      BINDING AFFINITY PREDICTED BY RF-SCORE:    0.00 PKD
ROOT
HETATM    1 CL   UNL     1      -6.224  12.869  67.447  1.00  0.00    -0.153 Cl 
HETATM    2  C   UNL     1      -7.458  11.694  67.215  1.00  0.00    -0.143 A  
HETATM    3  C   UNL     1      -7.128  10.435  66.731  1.00  0.00    -0.105 A  
HETATM    4  C   UNL     1      -8.131   9.480  66.554  1.00  0.00    -0.112 A  
HETATM    5  C   UNL     1      -9.468   9.763  66.869  1.00  0.00    -0.160 A  
HETATM    6  C   UNL     1      -8.785  12.006  67.508  1.00  0.00    -0.166 A  
HETATM    7  C   UNL     1      -9.791  11.046  67.324  1.00  0.00    -0.204 A  
ENDROOT
BRANCH   5   8
HETATM    8  N   UNL     1     -10.504   8.806  66.729  1.00  0.00    -0.255 N  
HETATM    9  H   UNL     1     -11.281   9.027  66.107  1.00  0.00     0.000 HD 
BRANCH   8  10
HETATM   10  C   UNL     1     -10.522   7.588  67.388  1.00  0.00    -0.297 C  
HETATM   11  O   UNL     1     -11.100   6.593  66.960  1.00  0.00    -0.403 OA 
BRANCH  10  12
HETATM   12  N   UNL     1      -9.820   7.603  68.583  1.00  0.00    -0.166 N  
HETATM   13  H   UNL     1      -9.002   8.208  68.651  1.00  0.00     0.000 HD 
BRANCH  12  14
HETATM   14  C   UNL     1     -10.173   6.827  69.714  1.00  0.00    -0.187 A  
HETATM   15  C   UNL     1      -9.803   5.482  69.852  1.00  0.00    -0.259 A  
HETATM   16  C   UNL     1     -10.137   4.750  70.997  1.00  0.00    -0.199 A  
HETATM   17 CL   UNL     1      -9.614   3.105  71.080  1.00  0.00    -0.226 Cl 
HETATM   18  C   UNL     1     -10.869   5.359  72.015  1.00  0.00    -0.202 A  
HETATM   19  C   UNL     1     -11.271   6.691  71.876  1.00  0.00    -0.302 A  
HETATM   20 CL   UNL     1     -11.312   4.524  73.461  1.00  0.00    -0.389 Cl 
HETATM   21  C   UNL     1     -10.934   7.419  70.726  1.00  0.00    -0.272 A  
ENDBRANCH  12  14
ENDBRANCH  10  12
ENDBRANCH   8  10
ENDBRANCH   5   8
TORSDOF 4
ENDMDL
MODEL      244
REMARK 921   NORMALIZED FREE ENERGY PREDICTED BY IDOCK:   -3.05 KCAL/MOL
REMARK 922        TOTAL FREE ENERGY PREDICTED BY IDOCK:   -4.37 KCAL/MOL
REMARK 923 INTER-LIGAND FREE ENERGY PREDICTED BY IDOCK:   -4.33 KCAL/MOL
REMARK 924 INTRA-LIGAND FREE ENERGY PREDICTED BY IDOCK:   -0.05 KCAL/MOL
REMARK 927      BINDING AFFINITY PREDICTED BY RF-SCORE:    0.00 PKD
ROOT
HETATM    1 CL   UNL     1     -10.476   6.810  74.317  1.00  0.00    -0.269 Cl 
HETATM    2  C   UNL     1     -10.787   7.574  72.808  1.00  0.00    -0.346 A  
HETATM    3  C   UNL     1     -11.974   8.269  72.620  1.00  0.00    -0.360 A  
HETATM    4  C   UNL     1     -12.218   8.898  71.397  1.00  0.00    -0.374 A  
HETATM    5  C   UNL     1     -11.279   8.853  70.357  1.00  0.00    -0.230 A  
HETATM    6  C   UNL     1      -9.851   7.494  71.777  1.00  0.00    -0.192 A  
HETATM    7  C   UNL     1     -10.103   8.122  70.549  1.00  0.00    -0.201 A  
ENDROOT
BRANCH   5   8
HETATM    8  N   UNL     1     -11.484   9.506  69.116  1.00  0.00    -0.439 N  
HETATM    9  H   UNL     1     -12.441   9.603  68.776  1.00  0.00     0.000 HD 
BRANCH   8  10
HETATM   10  C   UNL     1     -10.461  10.020  68.337  1.00  0.00    -0.205 C  
HETATM   11  O   UNL     1     -10.088  11.189  68.391  1.00  0.00    -0.171 OA 
BRANCH  10  12
HETATM   12  N   UNL     1      -9.897   9.081  67.488  1.00  0.00    -0.168 N  
HETATM   13  H   UNL     1     -10.134   8.100  67.632  1.00  0.00     0.000 HD 
BRANCH  12  14
HETATM   14  C   UNL     1      -9.009   9.406  66.432  1.00  0.00    -0.152 A  
HETATM   15  C   UNL     1      -9.392   9.360  65.084  1.00  0.00    -0.288 A  
HETATM   16  C   UNL     1      -8.504   9.719  64.065  1.00  0.00    -0.182 A  
HETATM   17 CL   UNL     1      -9.079   9.651  62.436  1.00  0.00    -0.288 Cl 
HETATM   18  C   UNL     1      -7.206  10.113  64.388  1.00  0.00    -0.115 A  
HETATM   19  C   UNL     1      -6.803  10.133  65.726  1.00  0.00    -0.118 A  
HETATM   20 CL   UNL     1      -6.055  10.577  63.187  1.00  0.00    -0.132 Cl 
HETATM   21  C   UNL     1      -7.697   9.771  66.744  1.00  0.00    -0.098 A  
ENDBRANCH  12  14
ENDBRANCH  10  12
ENDBRANCH   8  10
ENDBRANCH   5   8
TORSDOF 4
ENDMDL
MODEL      245
REMARK 921   NORMALIZED FREE ENERGY PREDICTED BY IDOCK:   -3.03 KCAL/MOL
REMARK 922        TOTAL FREE ENERGY PREDICTED BY IDOCK:   -4.35 KCAL/MOL
REMARK 923 INTER-LIGAND FREE ENERGY PREDICTED BY IDOCK:   -5.28 KCAL/MOL
REMARK 924 INTRA-LIGAND FREE ENERGY PREDICTED BY IDOCK:    0.93 KCAL/MOL
REMARK 927      BINDING AFFINITY PREDICTED BY RF-SCORE:    0.00 PKD
ROOT
HETATM    1 CL   UNL     1     -12.752  11.986  63.323  1.00  0.00    -0.603 Cl 
HETATM    2  C   UNL     1     -11.486  12.176  64.470  1.00  0.00    -0.334 A  
HETATM    3  C   UNL     1     -11.427  13.327  65.246  1.00  0.00    -0.319 A  
HETATM    4  C   UNL     1     -10.403  13.473  66.184  1.00  0.00    -0.296 A  
HETATM    5  C   UNL     1      -9.439  12.473  66.370  1.00  0.00    -0.233 A  
HETATM    6  C   UNL     1     -10.521  11.181  64.620  1.00  0.00    -0.400 A  
HETATM    7  C   UNL     1      -9.491  11.334  65.559  1.00  0.00    -0.255 A  
ENDROOT
BRANCH   5   8
HETATM    8  N   UNL     1      -8.406  12.578  67.335  1.00  0.00    -0.173 N  
HETATM    9  H   UNL     1      -8.243  11.783  67.952  1.00  0.00     0.000 HD 
BRANCH   8  10
HETATM   10  C   UNL     1      -7.605  13.698  67.489  1.00  0.00    -0.170 C  
HETATM   11  O   UNL     1      -6.440  13.652  67.872  1.00  0.00    -0.124 OA 
BRANCH  10  12
HETATM   12  N   UNL     1      -8.252  14.879  67.164  1.00  0.00    -0.208 N  
HETATM   13  H   UNL     1      -9.022  14.837  66.497  1.00  0.00     0.000 HD 
BRANCH  12  14
HETATM   14  C   UNL     1      -7.906  16.142  67.706  1.00  0.00    -0.143 A  
HETATM   15  C   UNL     1      -8.845  17.164  67.898  1.00  0.00    -0.226 A  
HETATM   16  C   UNL     1      -8.480  18.389  68.467  1.00  0.00    -0.325 A  
HETATM   17 CL   UNL     1      -9.717  19.576  68.683  1.00  0.00    -0.484 Cl 
HETATM   18  C   UNL     1      -7.153  18.610  68.835  1.00  0.00    -0.293 A  
HETATM   19  C   UNL     1      -6.201  17.609  68.620  1.00  0.00    -0.187 A  
HETATM   20 CL   UNL     1      -6.627  20.092  69.549  1.00  0.00    -0.366 Cl 
HETATM   21  C   UNL     1      -6.572  16.384  68.048  1.00  0.00    -0.146 A  
ENDBRANCH  12  14
ENDBRANCH  10  12
ENDBRANCH   8  10
ENDBRANCH   5   8
TORSDOF 4
ENDMDL
MODEL      246
REMARK 921   NORMALIZED FREE ENERGY PREDICTED BY IDOCK:   -2.97 KCAL/MOL
REMARK 922        TOTAL FREE ENERGY PREDICTED BY IDOCK:   -4.27 KCAL/MOL
REMARK 923 INTER-LIGAND FREE ENERGY PREDICTED BY IDOCK:   -4.03 KCAL/MOL
REMARK 924 INTRA-LIGAND FREE ENERGY PREDICTED BY IDOCK:   -0.24 KCAL/MOL
REMARK 927      BINDING AFFINITY PREDICTED BY RF-SCORE:    0.00 PKD
ROOT
HETATM    1 CL   UNL     1      -7.476   5.553  70.051  1.00  0.00    -0.068 Cl 
HETATM    2  C   UNL     1      -8.161   6.500  68.789  1.00  0.00    -0.119 A  
HETATM    3  C   UNL     1      -9.521   6.780  68.800  1.00  0.00    -0.130 A  
HETATM    4  C   UNL     1     -10.071   7.558  67.779  1.00  0.00    -0.235 A  
HETATM    5  C   UNL     1      -9.274   8.075  66.749  1.00  0.00    -0.165 A  
HETATM    6  C   UNL     1      -7.354   6.981  67.759  1.00  0.00    -0.097 A  
HETATM    7  C   UNL     1      -7.912   7.757  66.733  1.00  0.00    -0.107 A  
ENDROOT
BRANCH   5   8
HETATM    8  N   UNL     1      -9.798   8.893  65.716  1.00  0.00    -0.465 N  
HETATM    9  H   UNL     1      -9.941   8.474  64.798  1.00  0.00     0.000 HD 
BRANCH   8  10
HETATM   10  C   UNL     1     -10.126  10.228  65.881  1.00  0.00    -0.251 C  
HETATM   11  O   UNL     1     -10.732  10.888  65.042  1.00  0.00    -0.249 OA 
BRANCH  10  12
HETATM   12  N   UNL     1      -9.703  10.748  67.094  1.00  0.00    -0.168 N  
HETATM   13  H   UNL     1      -9.213  10.127  67.738  1.00  0.00     0.000 HD 
BRANCH  12  14
HETATM   14  C   UNL     1      -9.912  12.092  67.492  1.00  0.00    -0.197 A  
HETATM   15  C   UNL     1      -8.972  13.105  67.251  1.00  0.00    -0.216 A  
HETATM   16  C   UNL     1      -9.222  14.430  67.624  1.00  0.00    -0.196 A  
HETATM   17 CL   UNL     1      -8.010  15.608  67.262  1.00  0.00    -0.204 Cl 
HETATM   18  C   UNL     1     -10.417  14.753  68.266  1.00  0.00    -0.241 A  
HETATM   19  C   UNL     1     -11.348  13.746  68.539  1.00  0.00    -0.318 A  
HETATM   20 CL   UNL     1     -10.799  16.365  68.751  1.00  0.00    -0.318 Cl 
HETATM   21  C   UNL     1     -11.093  12.419  68.164  1.00  0.00    -0.288 A  
ENDBRANCH  12  14
ENDBRANCH  10  12
ENDBRANCH   8  10
ENDBRANCH   5   8
TORSDOF 4
ENDMDL
MODEL      247
REMARK 921   NORMALIZED FREE ENERGY PREDICTED BY IDOCK:   -2.91 KCAL/MOL
REMARK 922        TOTAL FREE ENERGY PREDICTED BY IDOCK:   -4.20 KCAL/MOL
REMARK 923 INTER-LIGAND FREE ENERGY PREDICTED BY IDOCK:   -3.82 KCAL/MOL
REMARK 924 INTRA-LIGAND FREE ENERGY PREDICTED BY IDOCK:   -0.38 KCAL/MOL
REMARK 927      BINDING AFFINITY PREDICTED BY RF-SCORE:    0.00 PKD
ROOT
HETATM    1 CL   UNL     1      -9.379   9.936  62.356  1.00  0.00    -0.301 Cl 
HETATM    2  C   UNL     1      -8.872  10.042  63.996  1.00  0.00    -0.224 A  
HETATM    3  C   UNL     1      -9.820  10.149  65.005  1.00  0.00    -0.392 A  
HETATM    4  C   UNL     1      -9.404  10.225  66.335  1.00  0.00    -0.201 A  
HETATM    5  C   UNL     1      -8.045  10.179  66.676  1.00  0.00    -0.120 A  
HETATM    6  C   UNL     1      -7.513  10.022  64.310  1.00  0.00    -0.137 A  
HETATM    7  C   UNL     1      -7.100  10.104  65.648  1.00  0.00    -0.133 A  
ENDROOT
BRANCH   5   8
HETATM    8  N   UNL     1      -7.593  10.222  68.019  1.00  0.00    -0.087 N  
HETATM    9  H   UNL     1      -7.580   9.351  68.549  1.00  0.00     0.000 HD 
BRANCH   8  10
HETATM   10  C   UNL     1      -7.168  11.378  68.653  1.00  0.00    -0.100 C  
HETATM   11  O   UNL     1      -6.857  11.426  69.839  1.00  0.00    -0.092 OA 
BRANCH  10  12
HETATM   12  N   UNL     1      -7.126  12.477  67.811  1.00  0.00    -0.111 N  
HETATM   13  H   UNL     1      -6.417  12.494  67.078  1.00  0.00     0.000 HD 
BRANCH  12  14
HETATM   14  C   UNL     1      -8.011  13.580  67.910  1.00  0.00    -0.162 A  
HETATM   15  C   UNL     1      -9.063  13.786  67.007  1.00  0.00    -0.253 A  
HETATM   16  C   UNL     1      -9.942  14.866  67.150  1.00  0.00    -0.231 A  
HETATM   17 CL   UNL     1     -11.221  15.019  65.998  1.00  0.00    -0.336 Cl 
HETATM   18  C   UNL     1      -9.762  15.767  68.198  1.00  0.00    -0.211 A  
HETATM   19  C   UNL     1      -8.697  15.590  69.087  1.00  0.00    -0.247 A  
HETATM   20 CL   UNL     1     -10.808  17.118  68.445  1.00  0.00    -0.349 Cl 
HETATM   21  C   UNL     1      -7.819  14.507  68.938  1.00  0.00    -0.134 A  
ENDBRANCH  12  14
ENDBRANCH  10  12
ENDBRANCH   8  10
ENDBRANCH   5   8
TORSDOF 4
ENDMDL
MODEL      248
REMARK 921   NORMALIZED FREE ENERGY PREDICTED BY IDOCK:   -2.69 KCAL/MOL
REMARK 922        TOTAL FREE ENERGY PREDICTED BY IDOCK:   -3.93 KCAL/MOL
REMARK 923 INTER-LIGAND FREE ENERGY PREDICTED BY IDOCK:   -3.32 KCAL/MOL
REMARK 924 INTRA-LIGAND FREE ENERGY PREDICTED BY IDOCK:   -0.61 KCAL/MOL
REMARK 927      BINDING AFFINITY PREDICTED BY RF-SCORE:    0.00 PKD
ROOT
HETATM    1 CL   UNL     1      -6.658   5.223  72.247  1.00  0.00    -0.054 Cl 
HETATM    2  C   UNL     1      -7.948   5.698  71.215  1.00  0.00    -0.112 A  
HETATM    3  C   UNL     1      -8.134   7.042  70.919  1.00  0.00    -0.109 A  
HETATM    4  C   UNL     1      -9.176   7.423  70.072  1.00  0.00    -0.148 A  
HETATM    5  C   UNL     1     -10.033   6.472  69.501  1.00  0.00    -0.159 A  
HETATM    6  C   UNL     1      -8.806   4.738  70.680  1.00  0.00    -0.146 A  
HETATM    7  C   UNL     1      -9.855   5.126  69.834  1.00  0.00    -0.289 A  
ENDROOT
BRANCH   5   8
HETATM    8  N   UNL     1     -11.081   6.825  68.613  1.00  0.00    -0.497 N  
HETATM    9  H   UNL     1     -11.920   7.251  69.006  1.00  0.00     0.000 HD 
BRANCH   8  10
HETATM   10  C   UNL     1     -11.032   6.624  67.244  1.00  0.00    -0.385 C  
HETATM   11  O   UNL     1     -11.034   5.513  66.720  1.00  0.00    -0.230 OA 
BRANCH  10  12
HETATM   12  N   UNL     1     -10.982   7.805  66.521  1.00  0.00    -0.035 N  
HETATM   13  H   UNL     1     -11.855   8.177  66.149  1.00  0.00     0.000 HD 
BRANCH  12  14
HETATM   14  C   UNL     1      -9.787   8.524  66.269  1.00  0.00    -0.215 A  
HETATM   15  C   UNL     1      -8.519   7.929  66.337  1.00  0.00    -0.139 A  
HETATM   16  C   UNL     1      -7.360   8.656  66.049  1.00  0.00    -0.085 A  
HETATM   17 CL   UNL     1      -5.847   7.825  66.139  1.00  0.00    -0.037 Cl 
HETATM   18  C   UNL     1      -7.458  10.004  65.706  1.00  0.00    -0.121 A  
HETATM   19  C   UNL     1      -8.714  10.617  65.665  1.00  0.00    -0.198 A  
HETATM   20 CL   UNL     1      -6.073  10.965  65.330  1.00  0.00    -0.033 Cl 
HETATM   21  C   UNL     1      -9.873   9.883  65.956  1.00  0.00    -0.330 A  
ENDBRANCH  12  14
ENDBRANCH  10  12
ENDBRANCH   8  10
ENDBRANCH   5   8
TORSDOF 4
ENDMDL
MODEL      249
REMARK 921   NORMALIZED FREE ENERGY PREDICTED BY IDOCK:   -2.59 KCAL/MOL
REMARK 922        TOTAL FREE ENERGY PREDICTED BY IDOCK:   -3.80 KCAL/MOL
REMARK 923 INTER-LIGAND FREE ENERGY PREDICTED BY IDOCK:   -3.46 KCAL/MOL
REMARK 924 INTRA-LIGAND FREE ENERGY PREDICTED BY IDOCK:   -0.34 KCAL/MOL
REMARK 927      BINDING AFFINITY PREDICTED BY RF-SCORE:    0.00 PKD
ROOT
HETATM    1 CL   UNL     1     -10.276   2.713  62.470  1.00  0.00    -0.098 Cl 
HETATM    2  C   UNL     1      -9.858   3.699  63.815  1.00  0.00    -0.170 A  
HETATM    3  C   UNL     1     -10.814   3.990  64.779  1.00  0.00    -0.093 A  
HETATM    4  C   UNL     1     -10.467   4.782  65.875  1.00  0.00    -0.313 A  
HETATM    5  C   UNL     1      -9.166   5.279  66.031  1.00  0.00    -0.157 A  
HETATM    6  C   UNL     1      -8.564   4.206  63.936  1.00  0.00    -0.111 A  
HETATM    7  C   UNL     1      -8.222   5.006  65.036  1.00  0.00    -0.133 A  
ENDROOT
BRANCH   5   8
HETATM    8  N   UNL     1      -8.776   6.060  67.147  1.00  0.00    -0.110 N  
HETATM    9  H   UNL     1      -7.873   5.862  67.579  1.00  0.00     0.000 HD 
BRANCH   8  10
HETATM   10  C   UNL     1      -9.548   7.075  67.687  1.00  0.00    -0.131 C  
HETATM   11  O   UNL     1     -10.163   7.894  67.009  1.00  0.00    -0.253 OA 
BRANCH  10  12
HETATM   12  N   UNL     1      -9.559   7.075  69.072  1.00  0.00    -0.142 N  
HETATM   13  H   UNL     1      -8.714   6.775  69.559  1.00  0.00     0.000 HD 
BRANCH  12  14
HETATM   14  C   UNL     1     -10.676   7.466  69.852  1.00  0.00    -0.243 A  
HETATM   15  C   UNL     1     -10.762   8.722  70.469  1.00  0.00    -0.259 A  
HETATM   16  C   UNL     1     -11.893   9.094  71.204  1.00  0.00    -0.307 A  
HETATM   17 CL   UNL     1     -11.912  10.672  71.907  1.00  0.00     0.229 Cl 
HETATM   18  C   UNL     1     -12.950   8.195  71.346  1.00  0.00    -0.242 A  
HETATM   19  C   UNL     1     -12.862   6.928  70.761  1.00  0.00    -0.033 A  
HETATM   20 CL   UNL     1     -14.381   8.583  72.231  1.00  0.00    -0.510 Cl 
HETATM   21  C   UNL     1     -11.726   6.560  70.026  1.00  0.00    -0.388 A  
ENDBRANCH  12  14
ENDBRANCH  10  12
ENDBRANCH   8  10
ENDBRANCH   5   8
TORSDOF 4
ENDMDL
MODEL      250
REMARK 921   NORMALIZED FREE ENERGY PREDICTED BY IDOCK:   -2.58 KCAL/MOL
REMARK 922        TOTAL FREE ENERGY PREDICTED BY IDOCK:   -3.80 KCAL/MOL
REMARK 923 INTER-LIGAND FREE ENERGY PREDICTED BY IDOCK:   -3.04 KCAL/MOL
REMARK 924 INTRA-LIGAND FREE ENERGY PREDICTED BY IDOCK:   -0.75 KCAL/MOL
REMARK 927      BINDING AFFINITY PREDICTED BY RF-SCORE:    0.00 PKD
ROOT
HETATM    1 CL   UNL     1      -7.387  10.321  65.428  1.00  0.00    -0.144 Cl 
HETATM    2  C   UNL     1      -7.574   8.655  65.810  1.00  0.00    -0.089 A  
HETATM    3  C   UNL     1      -6.572   7.991  66.504  1.00  0.00    -0.055 A  
HETATM    4  C   UNL     1      -6.732   6.641  66.822  1.00  0.00    -0.056 A  
HETATM    5  C   UNL     1      -7.895   5.943  66.465  1.00  0.00    -0.101 A  
HETATM    6  C   UNL     1      -8.727   7.973  65.421  1.00  0.00    -0.101 A  
HETATM    7  C   UNL     1      -8.881   6.616  65.736  1.00  0.00    -0.093 A  
ENDROOT
BRANCH   5   8
HETATM    8  N   UNL     1      -8.101   4.581  66.799  1.00  0.00    -0.102 N  
HETATM    9  H   UNL     1      -7.546   3.878  66.312  1.00  0.00     0.000 HD 
BRANCH   8  10
HETATM   10  C   UNL     1      -9.012   4.149  67.749  1.00  0.00    -0.121 C  
HETATM   11  O   UNL     1     -10.006   3.481  67.481  1.00  0.00     0.014 OA 
BRANCH  10  12
HETATM   12  N   UNL     1      -8.687   4.546  69.036  1.00  0.00    -0.083 N  
HETATM   13  H   UNL     1      -7.815   4.203  69.439  1.00  0.00     0.000 HD 
BRANCH  12  14
HETATM   14  C   UNL     1      -9.497   5.402  69.824  1.00  0.00    -0.151 A  
HETATM   15  C   UNL     1     -10.140   4.967  70.992  1.00  0.00    -0.297 A  
HETATM   16  C   UNL     1     -10.905   5.844  71.768  1.00  0.00    -0.260 A  
HETATM   17 CL   UNL     1     -11.639   5.216  73.201  1.00  0.00    -0.356 Cl 
HETATM   18  C   UNL     1     -11.051   7.172  71.368  1.00  0.00    -0.242 A  
HETATM   19  C   UNL     1     -10.439   7.610  70.190  1.00  0.00    -0.227 A  
HETATM   20 CL   UNL     1     -11.973   8.315  72.277  1.00  0.00    -0.422 Cl 
HETATM   21  C   UNL     1      -9.674   6.726  69.414  1.00  0.00    -0.155 A  
ENDBRANCH  12  14
ENDBRANCH  10  12
ENDBRANCH   8  10
ENDBRANCH   5   8
TORSDOF 4
ENDMDL
MODEL      251
REMARK 921   NORMALIZED FREE ENERGY PREDICTED BY IDOCK:   -2.55 KCAL/MOL
REMARK 922        TOTAL FREE ENERGY PREDICTED BY IDOCK:   -3.76 KCAL/MOL
REMARK 923 INTER-LIGAND FREE ENERGY PREDICTED BY IDOCK:   -3.23 KCAL/MOL
REMARK 924 INTRA-LIGAND FREE ENERGY PREDICTED BY IDOCK:   -0.53 KCAL/MOL
REMARK 927      BINDING AFFINITY PREDICTED BY RF-SCORE:    0.00 PKD
ROOT
HETATM    1 CL   UNL     1      -5.298  11.171  65.927  1.00  0.00    -0.141 Cl 
HETATM    2  C   UNL     1      -6.540   9.984  65.847  1.00  0.00    -0.098 A  
HETATM    3  C   UNL     1      -6.244   8.707  65.392  1.00  0.00    -0.049 A  
HETATM    4  C   UNL     1      -7.253   7.743  65.338  1.00  0.00    -0.068 A  
HETATM    5  C   UNL     1      -8.560   8.036  65.751  1.00  0.00    -0.153 A  
HETATM    6  C   UNL     1      -7.840  10.306  66.237  1.00  0.00    -0.118 A  
HETATM    7  C   UNL     1      -8.852   9.337  66.176  1.00  0.00    -0.183 A  
ENDROOT
BRANCH   5   8
HETATM    8  N   UNL     1      -9.599   7.072  65.738  1.00  0.00    -0.305 N  
HETATM    9  H   UNL     1     -10.392   7.229  65.117  1.00  0.00     0.000 HD 
BRANCH   8  10
HETATM   10  C   UNL     1      -9.600   5.929  66.520  1.00  0.00    -0.156 C  
HETATM   11  O   UNL     1     -10.202   4.902  66.221  1.00  0.00    -0.228 OA 
BRANCH  10  12
HETATM   12  N   UNL     1      -8.849   6.059  67.677  1.00  0.00    -0.107 N  
HETATM   13  H   UNL     1      -7.890   5.712  67.669  1.00  0.00     0.000 HD 
BRANCH  12  14
HETATM   14  C   UNL     1      -9.337   6.647  68.871  1.00  0.00    -0.128 A  
HETATM   15  C   UNL     1     -10.644   6.441  69.334  1.00  0.00    -0.310 A  
HETATM   16  C   UNL     1     -11.087   7.007  70.534  1.00  0.00    -0.280 A  
HETATM   17 CL   UNL     1     -12.709   6.674  71.029  1.00  0.00    -0.221 Cl 
HETATM   18  C   UNL     1     -10.223   7.807  71.280  1.00  0.00    -0.193 A  
HETATM   19  C   UNL     1      -8.926   8.045  70.813  1.00  0.00    -0.148 A  
HETATM   20 CL   UNL     1     -10.694   8.533  72.774  1.00  0.00    -0.212 Cl 
HETATM   21  C   UNL     1      -8.488   7.477  69.609  1.00  0.00    -0.135 A  
ENDBRANCH  12  14
ENDBRANCH  10  12
ENDBRANCH   8  10
ENDBRANCH   5   8
TORSDOF 4
ENDMDL
MODEL      252
REMARK 921   NORMALIZED FREE ENERGY PREDICTED BY IDOCK:   -2.47 KCAL/MOL
REMARK 922        TOTAL FREE ENERGY PREDICTED BY IDOCK:   -3.66 KCAL/MOL
REMARK 923 INTER-LIGAND FREE ENERGY PREDICTED BY IDOCK:   -3.37 KCAL/MOL
REMARK 924 INTRA-LIGAND FREE ENERGY PREDICTED BY IDOCK:   -0.29 KCAL/MOL
REMARK 927      BINDING AFFINITY PREDICTED BY RF-SCORE:    0.00 PKD
ROOT
HETATM    1 CL   UNL     1      -5.806  17.326  70.042  1.00  0.00    -0.246 Cl 
HETATM    2  C   UNL     1      -6.378  15.819  69.443  1.00  0.00    -0.154 A  
HETATM    3  C   UNL     1      -7.656  15.731  68.908  1.00  0.00    -0.181 A  
HETATM    4  C   UNL     1      -8.113  14.508  68.413  1.00  0.00    -0.143 A  
HETATM    5  C   UNL     1      -7.300  13.366  68.433  1.00  0.00    -0.112 A  
HETATM    6  C   UNL     1      -5.563  14.689  69.499  1.00  0.00    -0.092 A  
HETATM    7  C   UNL     1      -6.028  13.461  69.006  1.00  0.00    -0.083 A  
ENDROOT
BRANCH   5   8
HETATM    8  N   UNL     1      -7.724  12.118  67.912  1.00  0.00    -0.122 N  
HETATM    9  H   UNL     1      -7.667  11.976  66.903  1.00  0.00     0.000 HD 
BRANCH   8  10
HETATM   10  C   UNL     1      -8.210  11.082  68.690  1.00  0.00    -0.151 C  
HETATM   11  O   UNL     1      -7.646  10.667  69.698  1.00  0.00    -0.149 OA 
BRANCH  10  12
HETATM   12  N   UNL     1      -9.403  10.558  68.218  1.00  0.00    -0.151 N  
HETATM   13  H   UNL     1     -10.190  11.195  68.091  1.00  0.00     0.000 HD 
BRANCH  12  14
HETATM   14  C   UNL     1      -9.593   9.190  67.901  1.00  0.00    -0.146 A  
HETATM   15  C   UNL     1     -10.197   8.287  68.788  1.00  0.00    -0.226 A  
HETATM   16  C   UNL     1     -10.401   6.949  68.434  1.00  0.00    -0.190 A  
HETATM   17 CL   UNL     1     -11.175   5.922  69.588  1.00  0.00    -0.430 Cl 
HETATM   18  C   UNL     1      -9.982   6.494  67.184  1.00  0.00    -0.157 A  
HETATM   19  C   UNL     1      -9.351   7.378  66.303  1.00  0.00    -0.166 A  
HETATM   20 CL   UNL     1     -10.206   4.860  66.672  1.00  0.00    -0.276 Cl 
HETATM   21  C   UNL     1      -9.147   8.718  66.664  1.00  0.00    -0.196 A  
ENDBRANCH  12  14
ENDBRANCH  10  12
ENDBRANCH   8  10
ENDBRANCH   5   8
TORSDOF 4
ENDMDL
MODEL      253
REMARK 921   NORMALIZED FREE ENERGY PREDICTED BY IDOCK:   -2.44 KCAL/MOL
REMARK 922        TOTAL FREE ENERGY PREDICTED BY IDOCK:   -3.62 KCAL/MOL
REMARK 923 INTER-LIGAND FREE ENERGY PREDICTED BY IDOCK:   -2.90 KCAL/MOL
REMARK 924 INTRA-LIGAND FREE ENERGY PREDICTED BY IDOCK:   -0.72 KCAL/MOL
REMARK 927      BINDING AFFINITY PREDICTED BY RF-SCORE:    0.00 PKD
ROOT
HETATM    1 CL   UNL     1      -6.939  10.488  65.180  1.00  0.00    -0.076 Cl 
HETATM    2  C   UNL     1      -7.145   8.826  65.572  1.00  0.00    -0.083 A  
HETATM    3  C   UNL     1      -6.195   8.180  66.351  1.00  0.00    -0.046 A  
HETATM    4  C   UNL     1      -6.371   6.833  66.676  1.00  0.00    -0.042 A  
HETATM    5  C   UNL     1      -7.498   6.122  66.242  1.00  0.00    -0.086 A  
HETATM    6  C   UNL     1      -8.260   8.130  65.106  1.00  0.00    -0.156 A  
HETATM    7  C   UNL     1      -8.430   6.776  65.430  1.00  0.00    -0.102 A  
ENDROOT
BRANCH   5   8
HETATM    8  N   UNL     1      -7.720   4.764  66.580  1.00  0.00    -0.094 N  
HETATM    9  H   UNL     1      -7.107   4.060  66.170  1.00  0.00     0.000 HD 
BRANCH   8  10
HETATM   10  C   UNL     1      -8.722   4.336  67.436  1.00  0.00    -0.106 C  
HETATM   11  O   UNL     1      -9.822   3.946  67.053  1.00  0.00    -0.201 OA 
BRANCH  10  12
HETATM   12  N   UNL     1      -8.359   4.390  68.772  1.00  0.00    -0.083 N  
HETATM   13  H   UNL     1      -7.625   3.760  69.096  1.00  0.00     0.000 HD 
BRANCH  12  14
HETATM   14  C   UNL     1      -8.948   5.271  69.713  1.00  0.00    -0.111 A  
HETATM   15  C   UNL     1      -8.766   6.660  69.664  1.00  0.00    -0.140 A  
HETATM   16  C   UNL     1      -9.388   7.507  70.588  1.00  0.00    -0.163 A  
HETATM   17 CL   UNL     1      -9.118   9.206  70.429  1.00  0.00    -0.242 Cl 
HETATM   18  C   UNL     1     -10.191   6.963  71.590  1.00  0.00    -0.191 A  
HETATM   19  C   UNL     1     -10.356   5.577  71.668  1.00  0.00    -0.277 A  
HETATM   20 CL   UNL     1     -10.998   7.943  72.761  1.00  0.00    -0.433 Cl 
HETATM   21  C   UNL     1      -9.728   4.733  70.741  1.00  0.00    -0.267 A  
ENDBRANCH  12  14
ENDBRANCH  10  12
ENDBRANCH   8  10
ENDBRANCH   5   8
TORSDOF 4
ENDMDL
MODEL      254
REMARK 921   NORMALIZED FREE ENERGY PREDICTED BY IDOCK:   -2.33 KCAL/MOL
REMARK 922        TOTAL FREE ENERGY PREDICTED BY IDOCK:   -3.49 KCAL/MOL
REMARK 923 INTER-LIGAND FREE ENERGY PREDICTED BY IDOCK:   -3.40 KCAL/MOL
REMARK 924 INTRA-LIGAND FREE ENERGY PREDICTED BY IDOCK:   -0.09 KCAL/MOL
REMARK 927      BINDING AFFINITY PREDICTED BY RF-SCORE:    0.00 PKD
ROOT
HETATM    1 CL   UNL     1      -5.952  17.661  67.872  1.00  0.00    -0.150 Cl 
HETATM    2  C   UNL     1      -6.481  16.071  68.257  1.00  0.00    -0.119 A  
HETATM    3  C   UNL     1      -7.114  15.830  69.468  1.00  0.00    -0.190 A  
HETATM    4  C   UNL     1      -7.552  14.539  69.772  1.00  0.00     0.160 A  
HETATM    5  C   UNL     1      -7.376  13.481  68.870  1.00  0.00    -0.045 A  
HETATM    6  C   UNL     1      -6.271  15.027  67.356  1.00  0.00     0.071 A  
HETATM    7  C   UNL     1      -6.707  13.731  67.668  1.00  0.00    -0.189 A  
ENDROOT
BRANCH   5   8
HETATM    8  N   UNL     1      -7.837  12.167  69.136  1.00  0.00    -0.333 N  
HETATM    9  H   UNL     1      -8.842  12.018  69.218  1.00  0.00     0.000 HD 
BRANCH   8  10
HETATM   10  C   UNL     1      -7.001  11.074  69.291  1.00  0.00    -0.116 C  
HETATM   11  O   UNL     1      -5.794  11.165  69.497  1.00  0.00    -0.050 OA 
BRANCH  10  12
HETATM   12  N   UNL     1      -7.665   9.861  69.192  1.00  0.00    -0.089 N  
HETATM   13  H   UNL     1      -7.267   9.144  68.586  1.00  0.00     0.000 HD 
BRANCH  12  14
HETATM   14  C   UNL     1      -8.865   9.562  69.884  1.00  0.00    -0.211 A  
HETATM   15  C   UNL     1      -8.876   8.936  71.138  1.00  0.00    -0.297 A  
HETATM   16  C   UNL     1     -10.075   8.683  71.813  1.00  0.00    -0.310 A  
HETATM   17 CL   UNL     1      -9.981   7.928  73.364  1.00  0.00    -0.350 Cl 
HETATM   18  C   UNL     1     -11.287   9.041  71.223  1.00  0.00    -0.319 A  
HETATM   19  C   UNL     1     -11.290   9.638  69.959  1.00  0.00    -0.239 A  
HETATM   20 CL   UNL     1     -12.807   8.769  71.996  1.00  0.00    -0.409 Cl 
HETATM   21  C   UNL     1     -10.085   9.887  69.286  1.00  0.00    -0.214 A  
ENDBRANCH  12  14
ENDBRANCH  10  12
ENDBRANCH   8  10
ENDBRANCH   5   8
TORSDOF 4
ENDMDL
MODEL      255
REMARK 921   NORMALIZED FREE ENERGY PREDICTED BY IDOCK:   -2.23 KCAL/MOL
REMARK 922        TOTAL FREE ENERGY PREDICTED BY IDOCK:   -3.36 KCAL/MOL
REMARK 923 INTER-LIGAND FREE ENERGY PREDICTED BY IDOCK:   -3.01 KCAL/MOL
REMARK 924 INTRA-LIGAND FREE ENERGY PREDICTED BY IDOCK:   -0.35 KCAL/MOL
REMARK 927      BINDING AFFINITY PREDICTED BY RF-SCORE:    0.00 PKD
ROOT
HETATM    1 CL   UNL     1     -10.321   2.543  62.676  1.00  0.00    -0.108 Cl 
HETATM    2  C   UNL     1      -9.832   3.614  63.928  1.00  0.00    -0.174 A  
HETATM    3  C   UNL     1     -10.747   4.006  64.897  1.00  0.00    -0.108 A  
HETATM    4  C   UNL     1     -10.342   4.868  65.918  1.00  0.00    -0.271 A  
HETATM    5  C   UNL     1      -9.023   5.336  65.994  1.00  0.00    -0.144 A  
HETATM    6  C   UNL     1      -8.522   4.090  63.970  1.00  0.00    -0.096 A  
HETATM    7  C   UNL     1      -8.121   4.960  64.994  1.00  0.00    -0.107 A  
ENDROOT
BRANCH   5   8
HETATM    8  N   UNL     1      -8.575   6.187  67.035  1.00  0.00    -0.108 N  
HETATM    9  H   UNL     1      -8.688   7.193  66.915  1.00  0.00     0.000 HD 
BRANCH   8  10
HETATM   10  C   UNL     1      -7.990   5.732  68.205  1.00  0.00    -0.104 C  
HETATM   11  O   UNL     1      -7.111   6.342  68.807  1.00  0.00    -0.077 OA 
BRANCH  10  12
HETATM   12  N   UNL     1      -8.500   4.517  68.632  1.00  0.00    -0.084 N  
HETATM   13  H   UNL     1      -8.423   3.716  68.005  1.00  0.00     0.000 HD 
BRANCH  12  14
HETATM   14  C   UNL     1      -9.123   4.322  69.891  1.00  0.00    -0.108 A  
HETATM   15  C   UNL     1     -10.002   5.259  70.450  1.00  0.00    -0.303 A  
HETATM   16  C   UNL     1     -10.629   5.024  71.679  1.00  0.00    -0.117 A  
HETATM   17 CL   UNL     1     -11.713   6.231  72.273  1.00  0.00    -0.353 Cl 
HETATM   18  C   UNL     1     -10.363   3.845  72.374  1.00  0.00    -0.124 A  
HETATM   19  C   UNL     1      -9.464   2.916  71.841  1.00  0.00    -0.203 A  
HETATM   20 CL   UNL     1     -11.102   3.479  73.891  1.00  0.00    -0.271 Cl 
HETATM   21  C   UNL     1      -8.838   3.157  70.609  1.00  0.00    -0.147 A  
ENDBRANCH  12  14
ENDBRANCH  10  12
ENDBRANCH   8  10
ENDBRANCH   5   8
TORSDOF 4
ENDMDL
MODEL      256
REMARK 921   NORMALIZED FREE ENERGY PREDICTED BY IDOCK:   -2.22 KCAL/MOL
REMARK 922        TOTAL FREE ENERGY PREDICTED BY IDOCK:   -3.35 KCAL/MOL
REMARK 923 INTER-LIGAND FREE ENERGY PREDICTED BY IDOCK:   -3.66 KCAL/MOL
REMARK 924 INTRA-LIGAND FREE ENERGY PREDICTED BY IDOCK:    0.31 KCAL/MOL
REMARK 927      BINDING AFFINITY PREDICTED BY RF-SCORE:    0.00 PKD
ROOT
HETATM    1 CL   UNL     1      -7.049  16.802  67.814  1.00  0.00    -0.140 Cl 
HETATM    2  C   UNL     1      -8.405  15.749  67.917  1.00  0.00    -0.149 A  
HETATM    3  C   UNL     1      -9.681  16.244  67.680  1.00  0.00    -0.234 A  
HETATM    4  C   UNL     1     -10.778  15.385  67.754  1.00  0.00    -0.289 A  
HETATM    5  C   UNL     1     -10.617  14.024  68.050  1.00  0.00    -0.247 A  
HETATM    6  C   UNL     1      -8.225  14.405  68.239  1.00  0.00    -0.149 A  
HETATM    7  C   UNL     1      -9.330  13.546  68.318  1.00  0.00    -0.205 A  
ENDROOT
BRANCH   5   8
HETATM    8  N   UNL     1     -11.707  13.120  68.102  1.00  0.00    -0.336 N  
HETATM    9  H   UNL     1     -12.553  13.357  67.584  1.00  0.00     0.000 HD 
BRANCH   8  10
HETATM   10  C   UNL     1     -11.691  11.932  68.815  1.00  0.00    -0.321 C  
HETATM   11  O   UNL     1     -12.361  11.738  69.825  1.00  0.00    -0.214 OA 
BRANCH  10  12
HETATM   12  N   UNL     1     -10.842  10.982  68.273  1.00  0.00    -0.198 N  
HETATM   13  H   UNL     1     -10.887  10.815  67.268  1.00  0.00     0.000 HD 
BRANCH  12  14
HETATM   14  C   UNL     1      -9.913  10.229  69.034  1.00  0.00    -0.213 A  
HETATM   15  C   UNL     1      -8.576  10.619  69.195  1.00  0.00    -0.136 A  
HETATM   16  C   UNL     1      -7.691   9.873  69.980  1.00  0.00    -0.178 A  
HETATM   17 CL   UNL     1      -6.070  10.452  70.134  1.00  0.00    -0.082 Cl 
HETATM   18  C   UNL     1      -8.136   8.707  70.603  1.00  0.00    -0.120 A  
HETATM   19  C   UNL     1      -9.459   8.291  70.425  1.00  0.00    -0.172 A  
HETATM   20 CL   UNL     1      -7.106   7.738  71.593  1.00  0.00    -0.062 Cl 
HETATM   21  C   UNL     1     -10.342   9.042  69.635  1.00  0.00    -0.217 A  
ENDBRANCH  12  14
ENDBRANCH  10  12
ENDBRANCH   8  10
ENDBRANCH   5   8
TORSDOF 4
ENDMDL
MODEL      257
REMARK 921   NORMALIZED FREE ENERGY PREDICTED BY IDOCK:   -1.97 KCAL/MOL
REMARK 922        TOTAL FREE ENERGY PREDICTED BY IDOCK:   -3.04 KCAL/MOL
REMARK 923 INTER-LIGAND FREE ENERGY PREDICTED BY IDOCK:   -2.83 KCAL/MOL
REMARK 924 INTRA-LIGAND FREE ENERGY PREDICTED BY IDOCK:   -0.22 KCAL/MOL
REMARK 927      BINDING AFFINITY PREDICTED BY RF-SCORE:    0.00 PKD
ROOT
HETATM    1 CL   UNL     1     -10.217   2.507  62.661  1.00  0.00    -0.099 Cl 
HETATM    2  C   UNL     1      -9.480   3.661  63.702  1.00  0.00    -0.132 A  
HETATM    3  C   UNL     1     -10.205   4.199  64.756  1.00  0.00    -0.210 A  
HETATM    4  C   UNL     1      -9.600   5.128  65.605  1.00  0.00    -0.104 A  
HETATM    5  C   UNL     1      -8.265   5.517  65.423  1.00  0.00    -0.133 A  
HETATM    6  C   UNL     1      -8.160   4.055  63.486  1.00  0.00    -0.089 A  
HETATM    7  C   UNL     1      -7.557   4.992  64.338  1.00  0.00    -0.077 A  
ENDROOT
BRANCH   5   8
HETATM    8  N   UNL     1      -7.614   6.434  66.286  1.00  0.00    -0.088 N  
HETATM    9  H   UNL     1      -7.454   7.382  65.947  1.00  0.00     0.000 HD 
BRANCH   8  10
HETATM   10  C   UNL     1      -7.180   6.116  67.563  1.00  0.00    -0.076 C  
HETATM   11  O   UNL     1      -6.050   6.358  67.976  1.00  0.00    -0.024 OA 
BRANCH  10  12
HETATM   12  N   UNL     1      -8.154   5.498  68.331  1.00  0.00    -0.098 N  
HETATM   13  H   UNL     1      -8.369   4.520  68.138  1.00  0.00     0.000 HD 
BRANCH  12  14
HETATM   14  C   UNL     1      -8.869   6.148  69.369  1.00  0.00    -0.126 A  
HETATM   15  C   UNL     1      -9.556   7.353  69.171  1.00  0.00    -0.156 A  
HETATM   16  C   UNL     1     -10.282   7.953  70.206  1.00  0.00    -0.200 A  
HETATM   17 CL   UNL     1     -11.114   9.427  69.855  1.00  0.00    -0.242 Cl 
HETATM   18  C   UNL     1     -10.309   7.356  71.466  1.00  0.00    -0.200 A  
HETATM   19  C   UNL     1      -9.602   6.169  71.683  1.00  0.00    -0.166 A  
HETATM   20 CL   UNL     1     -11.188   8.032  72.790  1.00  0.00    -0.462 Cl 
HETATM   21  C   UNL     1      -8.875   5.573  70.643  1.00  0.00    -0.142 A  
ENDBRANCH  12  14
ENDBRANCH  10  12
ENDBRANCH   8  10
ENDBRANCH   5   8
TORSDOF 4
ENDMDL
MODEL      258
REMARK 921   NORMALIZED FREE ENERGY PREDICTED BY IDOCK:   -1.79 KCAL/MOL
REMARK 922        TOTAL FREE ENERGY PREDICTED BY IDOCK:   -2.82 KCAL/MOL
REMARK 923 INTER-LIGAND FREE ENERGY PREDICTED BY IDOCK:   -2.69 KCAL/MOL
REMARK 924 INTRA-LIGAND FREE ENERGY PREDICTED BY IDOCK:   -0.14 KCAL/MOL
REMARK 927      BINDING AFFINITY PREDICTED BY RF-SCORE:    0.00 PKD
ROOT
HETATM    1 CL   UNL     1     -10.369   2.826  62.362  1.00  0.00    -0.107 Cl 
HETATM    2  C   UNL     1      -9.939   3.761  63.739  1.00  0.00    -0.185 A  
HETATM    3  C   UNL     1     -10.929   4.216  64.600  1.00  0.00    -0.058 A  
HETATM    4  C   UNL     1     -10.574   4.966  65.723  1.00  0.00    -0.229 A  
HETATM    5  C   UNL     1      -9.234   5.258  66.008  1.00  0.00    -0.157 A  
HETATM    6  C   UNL     1      -8.601   4.064  63.989  1.00  0.00    -0.102 A  
HETATM    7  C   UNL     1      -8.249   4.822  65.115  1.00  0.00    -0.121 A  
ENDROOT
BRANCH   5   8
HETATM    8  N   UNL     1      -8.840   5.990  67.156  1.00  0.00    -0.109 N  
HETATM    9  H   UNL     1      -8.973   5.559  68.070  1.00  0.00     0.000 HD 
BRANCH   8  10
HETATM   10  C   UNL     1      -8.284   7.258  67.109  1.00  0.00    -0.118 C  
HETATM   11  O   UNL     1      -7.515   7.630  66.227  1.00  0.00    -0.080 OA 
BRANCH  10  12
HETATM   12  N   UNL     1      -8.684   8.068  68.160  1.00  0.00    -0.126 N  
HETATM   13  H   UNL     1      -8.998   7.619  69.020  1.00  0.00     0.000 HD 
BRANCH  12  14
HETATM   14  C   UNL     1      -8.681   9.485  68.108  1.00  0.00    -0.120 A  
HETATM   15  C   UNL     1      -9.582  10.212  67.316  1.00  0.00    -0.189 A  
HETATM   16  C   UNL     1      -9.578  11.611  67.312  1.00  0.00    -0.174 A  
HETATM   17 CL   UNL     1     -10.743  12.414  66.320  1.00  0.00    -0.278 Cl 
HETATM   18  C   UNL     1      -8.651  12.301  68.092  1.00  0.00    -0.181 A  
HETATM   19  C   UNL     1      -7.728  11.586  68.862  1.00  0.00    -0.088 A  
HETATM   20 CL   UNL     1      -8.589  14.026  68.145  1.00  0.00    -0.173 Cl 
HETATM   21  C   UNL     1      -7.735  10.184  68.862  1.00  0.00    -0.093 A  
ENDBRANCH  12  14
ENDBRANCH  10  12
ENDBRANCH   8  10
ENDBRANCH   5   8
TORSDOF 4
ENDMDL
MODEL      259
REMARK 921   NORMALIZED FREE ENERGY PREDICTED BY IDOCK:   -1.66 KCAL/MOL
REMARK 922        TOTAL FREE ENERGY PREDICTED BY IDOCK:   -2.66 KCAL/MOL
REMARK 923 INTER-LIGAND FREE ENERGY PREDICTED BY IDOCK:   -2.41 KCAL/MOL
REMARK 924 INTRA-LIGAND FREE ENERGY PREDICTED BY IDOCK:   -0.25 KCAL/MOL
REMARK 927      BINDING AFFINITY PREDICTED BY RF-SCORE:    0.00 PKD
ROOT
HETATM    1 CL   UNL     1      -7.475  16.184  69.236  1.00  0.00    -0.227 Cl 
HETATM    2  C   UNL     1      -6.812  14.607  69.405  1.00  0.00    -0.159 A  
HETATM    3  C   UNL     1      -6.325  14.193  70.637  1.00  0.00    -0.053 A  
HETATM    4  C   UNL     1      -5.798  12.907  70.773  1.00  0.00    -0.068 A  
HETATM    5  C   UNL     1      -5.763  12.018  69.690  1.00  0.00    -0.095 A  
HETATM    6  C   UNL     1      -6.762  13.748  68.308  1.00  0.00    -0.109 A  
HETATM    7  C   UNL     1      -6.226  12.459  68.447  1.00  0.00    -0.057 A  
ENDROOT
BRANCH   5   8
HETATM    8  N   UNL     1      -5.262  10.697  69.803  1.00  0.00    -0.038 N  
HETATM    9  H   UNL     1      -4.290  10.574  70.086  1.00  0.00     0.000 HD 
BRANCH   8  10
HETATM   10  C   UNL     1      -6.016   9.562  69.553  1.00  0.00    -0.033 C  
HETATM   11  O   UNL     1      -5.528   8.467  69.287  1.00  0.00    -0.034 OA 
BRANCH  10  12
HETATM   12  N   UNL     1      -7.381   9.785  69.635  1.00  0.00    -0.088 N  
HETATM   13  H   UNL     1      -7.705  10.591  70.170  1.00  0.00     0.000 HD 
BRANCH  12  14
HETATM   14  C   UNL     1      -8.353   8.959  69.018  1.00  0.00    -0.124 A  
HETATM   15  C   UNL     1      -8.967   7.889  69.685  1.00  0.00    -0.146 A  
HETATM   16  C   UNL     1      -9.948   7.111  69.061  1.00  0.00    -0.174 A  
HETATM   17 CL   UNL     1     -10.660   5.830  69.977  1.00  0.00    -0.353 Cl 
HETATM   18  C   UNL     1     -10.314   7.388  67.745  1.00  0.00    -0.213 A  
HETATM   19  C   UNL     1      -9.688   8.433  67.059  1.00  0.00    -0.268 A  
HETATM   20 CL   UNL     1     -11.522   6.479  66.910  1.00  0.00    -0.049 Cl 
HETATM   21  C   UNL     1      -8.703   9.209  67.688  1.00  0.00    -0.120 A  
ENDBRANCH  12  14
ENDBRANCH  10  12
ENDBRANCH   8  10
ENDBRANCH   5   8
TORSDOF 4
ENDMDL
MODEL      260
REMARK 921   NORMALIZED FREE ENERGY PREDICTED BY IDOCK:   -1.56 KCAL/MOL
REMARK 922        TOTAL FREE ENERGY PREDICTED BY IDOCK:   -2.54 KCAL/MOL
REMARK 923 INTER-LIGAND FREE ENERGY PREDICTED BY IDOCK:   -2.28 KCAL/MOL
REMARK 924 INTRA-LIGAND FREE ENERGY PREDICTED BY IDOCK:   -0.26 KCAL/MOL
REMARK 927      BINDING AFFINITY PREDICTED BY RF-SCORE:    0.00 PKD
ROOT
HETATM    1 CL   UNL     1      -5.212  15.375  71.941  1.00  0.00    -0.038 Cl 
HETATM    2  C   UNL     1      -5.571  14.027  70.936  1.00  0.00    -0.188 A  
HETATM    3  C   UNL     1      -6.141  14.231  69.687  1.00  0.00    -0.120 A  
HETATM    4  C   UNL     1      -6.421  13.135  68.869  1.00  0.00    -0.097 A  
HETATM    5  C   UNL     1      -6.124  11.828  69.279  1.00  0.00    -0.084 A  
HETATM    6  C   UNL     1      -5.292  12.733  71.375  1.00  0.00    -0.103 A  
HETATM    7  C   UNL     1      -5.580  11.633  70.553  1.00  0.00    -0.153 A  
ENDROOT
BRANCH   5   8
HETATM    8  N   UNL     1      -6.368  10.697  68.460  1.00  0.00    -0.053 N  
HETATM    9  H   UNL     1      -5.954  10.681  67.528  1.00  0.00     0.000 HD 
BRANCH   8  10
HETATM   10  C   UNL     1      -7.135   9.612  68.851  1.00  0.00    -0.067 C  
HETATM   11  O   UNL     1      -8.095   9.698  69.611  1.00  0.00    -0.110 OA 
BRANCH  10  12
HETATM   12  N   UNL     1      -6.709   8.416  68.297  1.00  0.00    -0.064 N  
HETATM   13  H   UNL     1      -5.708   8.226  68.273  1.00  0.00     0.000 HD 
BRANCH  12  14
HETATM   14  C   UNL     1      -7.587   7.440  67.760  1.00  0.00    -0.107 A  
HETATM   15  C   UNL     1      -8.173   6.439  68.547  1.00  0.00    -0.113 A  
HETATM   16  C   UNL     1      -9.062   5.510  67.995  1.00  0.00    -0.108 A  
HETATM   17 CL   UNL     1      -9.750   4.329  69.054  1.00  0.00    -0.236 Cl 
HETATM   18  C   UNL     1      -9.360   5.564  66.634  1.00  0.00    -0.141 A  
HETATM   19  C   UNL     1      -8.757   6.538  65.833  1.00  0.00    -0.149 A  
HETATM   20 CL   UNL     1     -10.452   4.457  65.883  1.00  0.00    -0.246 Cl 
HETATM   21  C   UNL     1      -7.866   7.466  66.391  1.00  0.00    -0.102 A  
ENDBRANCH  12  14
ENDBRANCH  10  12
ENDBRANCH   8  10
ENDBRANCH   5   8
TORSDOF 4
ENDMDL
MODEL      261
REMARK 921   NORMALIZED FREE ENERGY PREDICTED BY IDOCK:   -1.49 KCAL/MOL
REMARK 922        TOTAL FREE ENERGY PREDICTED BY IDOCK:   -2.45 KCAL/MOL
REMARK 923 INTER-LIGAND FREE ENERGY PREDICTED BY IDOCK:   -2.17 KCAL/MOL
REMARK 924 INTRA-LIGAND FREE ENERGY PREDICTED BY IDOCK:   -0.28 KCAL/MOL
REMARK 927      BINDING AFFINITY PREDICTED BY RF-SCORE:    0.00 PKD
ROOT
HETATM    1 CL   UNL     1     -10.384   2.855  62.431  1.00  0.00    -0.112 Cl 
HETATM    2  C   UNL     1      -9.727   3.618  63.825  1.00  0.00    -0.157 A  
HETATM    3  C   UNL     1     -10.549   3.900  64.907  1.00  0.00    -0.088 A  
HETATM    4  C   UNL     1     -10.010   4.511  66.041  1.00  0.00    -0.265 A  
HETATM    5  C   UNL     1      -8.648   4.833  66.115  1.00  0.00    -0.115 A  
HETATM    6  C   UNL     1      -8.375   3.955  63.866  1.00  0.00    -0.092 A  
HETATM    7  C   UNL     1      -7.838   4.574  65.005  1.00  0.00    -0.090 A  
ENDROOT
BRANCH   5   8
HETATM    8  N   UNL     1      -8.065   5.425  67.263  1.00  0.00    -0.101 N  
HETATM    9  H   UNL     1      -7.122   5.138  67.525  1.00  0.00     0.000 HD 
BRANCH   8  10
HETATM   10  C   UNL     1      -8.701   6.371  68.051  1.00  0.00    -0.115 C  
HETATM   11  O   UNL     1      -8.921   6.220  69.249  1.00  0.00    -0.125 OA 
BRANCH  10  12
HETATM   12  N   UNL     1      -9.064   7.509  67.349  1.00  0.00    -0.125 N  
HETATM   13  H   UNL     1     -10.051   7.765  67.327  1.00  0.00     0.000 HD 
BRANCH  12  14
HETATM   14  C   UNL     1      -8.143   8.338  66.661  1.00  0.00    -0.102 A  
HETATM   15  C   UNL     1      -7.500   9.422  67.274  1.00  0.00    -0.091 A  
HETATM   16  C   UNL     1      -6.569  10.202  66.579  1.00  0.00    -0.077 A  
HETATM   17 CL   UNL     1      -5.813  11.502  67.431  1.00  0.00    -0.069 Cl 
HETATM   18  C   UNL     1      -6.286   9.912  65.245  1.00  0.00    -0.093 A  
HETATM   19  C   UNL     1      -6.944   8.852  64.613  1.00  0.00    -0.084 A  
HETATM   20 CL   UNL     1      -5.145  10.823  64.323  1.00  0.00    -0.158 Cl 
HETATM   21  C   UNL     1      -7.877   8.075  65.315  1.00  0.00    -0.113 A  
ENDBRANCH  12  14
ENDBRANCH  10  12
ENDBRANCH   8  10
ENDBRANCH   5   8
TORSDOF 4
ENDMDL
MODEL      262
REMARK 921   NORMALIZED FREE ENERGY PREDICTED BY IDOCK:   -1.22 KCAL/MOL
REMARK 922        TOTAL FREE ENERGY PREDICTED BY IDOCK:   -2.12 KCAL/MOL
REMARK 923 INTER-LIGAND FREE ENERGY PREDICTED BY IDOCK:   -1.89 KCAL/MOL
REMARK 924 INTRA-LIGAND FREE ENERGY PREDICTED BY IDOCK:   -0.23 KCAL/MOL
REMARK 927      BINDING AFFINITY PREDICTED BY RF-SCORE:    0.00 PKD
ROOT
HETATM    1 CL   UNL     1      -5.156  15.372  71.960  1.00  0.00    -0.113 Cl 
HETATM    2  C   UNL     1      -5.454  13.933  71.068  1.00  0.00    -0.185 A  
HETATM    3  C   UNL     1      -5.991  14.014  69.790  1.00  0.00    -0.122 A  
HETATM    4  C   UNL     1      -6.222  12.843  69.065  1.00  0.00    -0.095 A  
HETATM    5  C   UNL     1      -5.907  11.585  69.596  1.00  0.00    -0.087 A  
HETATM    6  C   UNL     1      -5.159  12.690  71.626  1.00  0.00    -0.100 A  
HETATM    7  C   UNL     1      -5.397  11.516  70.896  1.00  0.00    -0.124 A  
ENDROOT
BRANCH   5   8
HETATM    8  N   UNL     1      -6.101  10.381  68.873  1.00  0.00    -0.040 N  
HETATM    9  H   UNL     1      -5.570  10.247  68.013  1.00  0.00     0.000 HD 
BRANCH   8  10
HETATM   10  C   UNL     1      -6.969   9.376  69.266  1.00  0.00    -0.053 C  
HETATM   11  O   UNL     1      -7.868   9.538  70.086  1.00  0.00    -0.122 OA 
BRANCH  10  12
HETATM   12  N   UNL     1      -6.721   8.166  68.639  1.00  0.00    -0.057 N  
HETATM   13  H   UNL     1      -6.073   8.156  67.852  1.00  0.00     0.000 HD 
BRANCH  12  14
HETATM   14  C   UNL     1      -7.318   6.940  69.028  1.00  0.00    -0.093 A  
HETATM   15  C   UNL     1      -6.707   6.056  69.928  1.00  0.00    -0.052 A  
HETATM   16  C   UNL     1      -7.336   4.869  70.319  1.00  0.00    -0.055 A  
HETATM   17 CL   UNL     1      -6.510   3.857  71.451  1.00  0.00    -0.015 Cl 
HETATM   18  C   UNL     1      -8.586   4.545  69.794  1.00  0.00    -0.069 A  
HETATM   19  C   UNL     1      -9.192   5.404  68.872  1.00  0.00    -0.147 A  
HETATM   20 CL   UNL     1      -9.428   3.103  70.234  1.00  0.00    -0.238 Cl 
HETATM   21  C   UNL     1      -8.556   6.592  68.482  1.00  0.00    -0.123 A  
ENDBRANCH  12  14
ENDBRANCH  10  12
ENDBRANCH   8  10
ENDBRANCH   5   8
TORSDOF 4
ENDMDL
MODEL      263
REMARK 921   NORMALIZED FREE ENERGY PREDICTED BY IDOCK:   -0.01 KCAL/MOL
REMARK 922        TOTAL FREE ENERGY PREDICTED BY IDOCK:   -0.62 KCAL/MOL
REMARK 923 INTER-LIGAND FREE ENERGY PREDICTED BY IDOCK:   -0.61 KCAL/MOL
REMARK 924 INTRA-LIGAND FREE ENERGY PREDICTED BY IDOCK:   -0.01 KCAL/MOL
REMARK 927      BINDING AFFINITY PREDICTED BY RF-SCORE:    0.00 PKD
ROOT
HETATM    1 CL   UNL     1      -5.699  15.368  72.088  1.00  0.00     0.550 Cl 
HETATM    2  C   UNL     1      -5.600  14.013  71.034  1.00  0.00    -0.199 A  
HETATM    3  C   UNL     1      -5.651  14.204  69.660  1.00  0.00    -0.097 A  
HETATM    4  C   UNL     1      -5.560  13.102  68.807  1.00  0.00    -0.073 A  
HETATM    5  C   UNL     1      -5.403  11.804  69.312  1.00  0.00    -0.048 A  
HETATM    6  C   UNL     1      -5.472  12.727  71.558  1.00  0.00     0.015 A  
HETATM    7  C   UNL     1      -5.387  11.623  70.699  1.00  0.00    -0.141 A  
ENDROOT
BRANCH   5   8
HETATM    8  N   UNL     1      -5.277  10.669  68.472  1.00  0.00    -0.037 N  
HETATM    9  H   UNL     1      -4.706  10.755  67.632  1.00  0.00     0.000 HD 
BRANCH   8  10
HETATM   10  C   UNL     1      -5.884   9.450  68.726  1.00  0.00    -0.040 C  
HETATM   11  O   UNL     1      -6.880   9.322  69.432  1.00  0.00    -0.047 OA 
BRANCH  10  12
HETATM   12  N   UNL     1      -5.254   8.387  68.100  1.00  0.00    -0.033 N  
HETATM   13  H   UNL     1      -4.234   8.360  68.109  1.00  0.00     0.000 HD 
BRANCH  12  14
HETATM   14  C   UNL     1      -5.944   7.334  67.449  1.00  0.00    -0.037 A  
HETATM   15  C   UNL     1      -6.267   7.374  66.085  1.00  0.00    -0.041 A  
HETATM   16  C   UNL     1      -6.919   6.305  65.461  1.00  0.00    -0.056 A  
HETATM   17 CL   UNL     1      -7.251   6.442  63.771  1.00  0.00    -0.051 Cl 
HETATM   18  C   UNL     1      -7.275   5.184  66.209  1.00  0.00    -0.077 A  
HETATM   19  C   UNL     1      -6.986   5.145  67.577  1.00  0.00    -0.065 A  
HETATM   20 CL   UNL     1      -8.074   3.822  65.510  1.00  0.00    -0.096 Cl 
HETATM   21  C   UNL     1      -6.333   6.220  68.197  1.00  0.00    -0.040 A  
ENDBRANCH  12  14
ENDBRANCH  10  12
ENDBRANCH   8  10
ENDBRANCH   5   8
TORSDOF 4
ENDMDL
MODEL      264
REMARK 921   NORMALIZED FREE ENERGY PREDICTED BY IDOCK:    2.90 KCAL/MOL
REMARK 922        TOTAL FREE ENERGY PREDICTED BY IDOCK:    2.97 KCAL/MOL
REMARK 923 INTER-LIGAND FREE ENERGY PREDICTED BY IDOCK:    3.30 KCAL/MOL
REMARK 924 INTRA-LIGAND FREE ENERGY PREDICTED BY IDOCK:   -0.33 KCAL/MOL
REMARK 927      BINDING AFFINITY PREDICTED BY RF-SCORE:    0.00 PKD
ROOT
HETATM    1 CL   UNL     1      -6.381  16.053  72.620  1.00  0.00     3.042 Cl 
HETATM    2  C   UNL     1      -6.042  14.434  72.151  1.00  0.00     0.424 A  
HETATM    3  C   UNL     1      -6.122  14.073  70.813  1.00  0.00    -0.141 A  
HETATM    4  C   UNL     1      -5.835  12.760  70.435  1.00  0.00    -0.153 A  
HETATM    5  C   UNL     1      -5.453  11.798  71.380  1.00  0.00     0.124 A  
HETATM    6  C   UNL     1      -5.691  13.486  73.112  1.00  0.00     0.421 A  
HETATM    7  C   UNL     1      -5.409  12.167  72.729  1.00  0.00     0.762 A  
ENDROOT
BRANCH   5   8
HETATM    8  N   UNL     1      -5.126  10.466  71.025  1.00  0.00    -0.075 N  
HETATM    9  H   UNL     1      -4.153  10.251  70.811  1.00  0.00     0.000 HD 
BRANCH   8  10
HETATM   10  C   UNL     1      -6.052   9.438  70.950  1.00  0.00    -0.069 C  
HETATM   11  O   UNL     1      -7.100   9.421  71.588  1.00  0.00    -0.320 OA 
BRANCH  10  12
HETATM   12  N   UNL     1      -5.677   8.429  70.078  1.00  0.00    -0.025 N  
HETATM   13  H   UNL     1      -4.794   7.948  70.251  1.00  0.00     0.000 HD 
BRANCH  12  14
HETATM   14  C   UNL     1      -6.448   8.026  68.959  1.00  0.00    -0.040 A  
HETATM   15  C   UNL     1      -7.295   8.906  68.271  1.00  0.00    -0.083 A  
HETATM   16  C   UNL     1      -8.019   8.489  67.149  1.00  0.00    -0.101 A  
HETATM   17 CL   UNL     1      -9.017   9.656  66.356  1.00  0.00    -0.168 Cl 
HETATM   18  C   UNL     1      -7.915   7.168  66.714  1.00  0.00    -0.108 A  
HETATM   19  C   UNL     1      -7.098   6.273  67.411  1.00  0.00    -0.070 A  
HETATM   20 CL   UNL     1      -8.771   6.580  65.334  1.00  0.00    -0.078 Cl 
HETATM   21  C   UNL     1      -6.376   6.696  68.536  1.00  0.00    -0.038 A  
ENDBRANCH  12  14
ENDBRANCH  10  12
ENDBRANCH   8  10
ENDBRANCH   5   8
TORSDOF 4
ENDMDL
MODEL      265
REMARK 921   NORMALIZED FREE ENERGY PREDICTED BY IDOCK:    2.95 KCAL/MOL
REMARK 922        TOTAL FREE ENERGY PREDICTED BY IDOCK:    3.03 KCAL/MOL
REMARK 923 INTER-LIGAND FREE ENERGY PREDICTED BY IDOCK:    2.91 KCAL/MOL
REMARK 924 INTRA-LIGAND FREE ENERGY PREDICTED BY IDOCK:    0.13 KCAL/MOL
REMARK 927      BINDING AFFINITY PREDICTED BY RF-SCORE:    0.00 PKD
ROOT
HETATM    1 CL   UNL     1      -6.381  16.053  72.620  1.00  0.00     3.042 Cl 
HETATM    2  C   UNL     1      -6.042  14.434  72.151  1.00  0.00     0.424 A  
HETATM    3  C   UNL     1      -6.122  14.073  70.813  1.00  0.00    -0.141 A  
HETATM    4  C   UNL     1      -5.835  12.760  70.435  1.00  0.00    -0.153 A  
HETATM    5  C   UNL     1      -5.453  11.798  71.380  1.00  0.00     0.124 A  
HETATM    6  C   UNL     1      -5.691  13.486  73.112  1.00  0.00     0.421 A  
HETATM    7  C   UNL     1      -5.409  12.167  72.729  1.00  0.00     0.762 A  
ENDROOT
BRANCH   5   8
HETATM    8  N   UNL     1      -5.126  10.466  71.025  1.00  0.00    -0.075 N  
HETATM    9  H   UNL     1      -4.502  10.320  70.232  1.00  0.00     0.000 HD 
BRANCH   8  10
HETATM   10  C   UNL     1      -5.605   9.350  71.691  1.00  0.00    -0.074 C  
HETATM   11  O   UNL     1      -5.955   9.360  72.868  1.00  0.00    -0.300 OA 
BRANCH  10  12
HETATM   12  N   UNL     1      -5.651   8.217  70.895  1.00  0.00    -0.032 N  
HETATM   13  H   UNL     1      -4.782   7.893  70.471  1.00  0.00     0.000 HD 
BRANCH  12  14
HETATM   14  C   UNL     1      -6.836   7.484  70.635  1.00  0.00    -0.047 A  
HETATM   15  C   UNL     1      -8.104   8.081  70.619  1.00  0.00    -0.104 A  
HETATM   16  C   UNL     1      -9.253   7.338  70.326  1.00  0.00    -0.155 A  
HETATM   17 CL   UNL     1     -10.767   8.171  70.310  1.00  0.00    -0.233 Cl 
HETATM   18  C   UNL     1      -9.143   5.973  70.062  1.00  0.00    -0.146 A  
HETATM   19  C   UNL     1      -7.887   5.360  70.105  1.00  0.00    -0.081 A  
HETATM   20 CL   UNL     1     -10.512   4.991  69.685  1.00  0.00    -0.272 Cl 
HETATM   21  C   UNL     1      -6.739   6.109  70.401  1.00  0.00    -0.053 A  
ENDBRANCH  12  14
ENDBRANCH  10  12
ENDBRANCH   8  10
ENDBRANCH   5   8
TORSDOF 4
ENDMDL
MODEL      266
REMARK 921   NORMALIZED FREE ENERGY PREDICTED BY IDOCK:    4.71 KCAL/MOL
REMARK 922        TOTAL FREE ENERGY PREDICTED BY IDOCK:    5.20 KCAL/MOL
REMARK 923 INTER-LIGAND FREE ENERGY PREDICTED BY IDOCK:    4.53 KCAL/MOL
REMARK 924 INTRA-LIGAND FREE ENERGY PREDICTED BY IDOCK:    0.67 KCAL/MOL
REMARK 927      BINDING AFFINITY PREDICTED BY RF-SCORE:    0.00 PKD
ROOT
HETATM    1 CL   UNL     1      -9.827   8.329  62.776  1.00  0.00     3.274 Cl 
HETATM    2  C   UNL     1      -9.439   9.546  63.926  1.00  0.00     0.262 A  
HETATM    3  C   UNL     1     -10.363   9.889  64.904  1.00  0.00     0.355 A  
HETATM    4  C   UNL     1     -10.040  10.871  65.842  1.00  0.00    -0.307 A  
HETATM    5  C   UNL     1      -8.793  11.510  65.826  1.00  0.00    -0.058 A  
HETATM    6  C   UNL     1      -8.203  10.189  63.874  1.00  0.00    -0.164 A  
HETATM    7  C   UNL     1      -7.885  11.179  64.816  1.00  0.00     0.615 A  
ENDROOT
BRANCH   5   8
HETATM    8  N   UNL     1      -8.424  12.489  66.783  1.00  0.00    -0.367 N  
HETATM    9  H   UNL     1      -8.248  12.182  67.740  1.00  0.00     0.000 HD 
BRANCH   8  10
HETATM   10  C   UNL     1      -8.289  13.837  66.496  1.00  0.00     0.464 C  
HETATM   11  O   UNL     1      -8.903  14.404  65.597  1.00  0.00     0.547 OA 
BRANCH  10  12
HETATM   12  N   UNL     1      -7.391  14.484  67.328  1.00  0.00    -0.285 N  
HETATM   13  H   UNL     1      -7.083  15.421  67.067  1.00  0.00     0.000 HD 
BRANCH  12  14
HETATM   14  C   UNL     1      -6.873  13.919  68.521  1.00  0.00    -0.098 A  
HETATM   15  C   UNL     1      -6.567  14.692  69.650  1.00  0.00    -0.155 A  
HETATM   16  C   UNL     1      -6.090  14.101  70.825  1.00  0.00    -0.165 A  
HETATM   17 CL   UNL     1      -5.764  15.137  72.170  1.00  0.00     0.398 Cl 
HETATM   18  C   UNL     1      -5.895  12.722  70.875  1.00  0.00     0.026 A  
HETATM   19  C   UNL     1      -6.168  11.945  69.745  1.00  0.00    -0.137 A  
HETATM   20 CL   UNL     1      -5.317  11.920  72.290  1.00  0.00     0.402 Cl 
HETATM   21  C   UNL     1      -6.644  12.542  68.569  1.00  0.00    -0.077 A  
ENDBRANCH  12  14
ENDBRANCH  10  12
ENDBRANCH   8  10
ENDBRANCH   5   8
TORSDOF 4
ENDMDL
MODEL      267
REMARK 921   NORMALIZED FREE ENERGY PREDICTED BY IDOCK:   17.57 KCAL/MOL
REMARK 922        TOTAL FREE ENERGY PREDICTED BY IDOCK:   21.07 KCAL/MOL
REMARK 923 INTER-LIGAND FREE ENERGY PREDICTED BY IDOCK:   21.57 KCAL/MOL
REMARK 924 INTRA-LIGAND FREE ENERGY PREDICTED BY IDOCK:   -0.50 KCAL/MOL
REMARK 927      BINDING AFFINITY PREDICTED BY RF-SCORE:    0.00 PKD
ROOT
HETATM    1 CL   UNL     1     -11.422   3.355  73.182  1.00  0.00    -0.072 Cl 
HETATM    2  C   UNL     1     -11.735   4.252  71.749  1.00  0.00     2.408 A  
HETATM    3  C   UNL     1     -13.010   4.746  71.510  1.00  0.00     5.738 A  
HETATM    4  C   UNL     1     -13.258   5.482  70.350  1.00  0.00     7.133 A  
HETATM    5  C   UNL     1     -12.238   5.746  69.425  1.00  0.00     3.555 A  
HETATM    6  C   UNL     1     -10.712   4.479  70.829  1.00  0.00     0.494 A  
HETATM    7  C   UNL     1     -10.966   5.215  69.662  1.00  0.00     0.515 A  
ENDROOT
BRANCH   5   8
HETATM    8  N   UNL     1     -12.450   6.516  68.254  1.00  0.00     2.924 N  
HETATM    9  H   UNL     1     -13.392   6.857  68.068  1.00  0.00     0.000 HD 
BRANCH   8  10
HETATM   10  C   UNL     1     -11.451   6.833  67.348  1.00  0.00     0.278 C  
HETATM   11  O   UNL     1     -11.163   6.131  66.383  1.00  0.00    -0.033 OA 
BRANCH  10  12
HETATM   12  N   UNL     1     -10.809   8.025  67.639  1.00  0.00    -0.506 N  
HETATM   13  H   UNL     1     -11.279   8.897  67.394  1.00  0.00     0.000 HD 
BRANCH  12  14
HETATM   14  C   UNL     1      -9.536   8.104  68.257  1.00  0.00    -0.141 A  
HETATM   15  C   UNL     1      -9.378   8.268  69.641  1.00  0.00    -0.158 A  
HETATM   16  C   UNL     1      -8.108   8.308  70.226  1.00  0.00    -0.104 A  
HETATM   17 CL   UNL     1      -8.020   8.489  71.943  1.00  0.00    -0.177 Cl 
HETATM   18  C   UNL     1      -6.974   8.203  69.422  1.00  0.00    -0.051 A  
HETATM   19  C   UNL     1      -7.118   8.071  68.038  1.00  0.00    -0.086 A  
HETATM   20 CL   UNL     1      -5.374   8.237  70.072  1.00  0.00    -0.023 Cl 
HETATM   21  C   UNL     1      -8.393   8.033  67.455  1.00  0.00    -0.123 A  
ENDBRANCH  12  14
ENDBRANCH  10  12
ENDBRANCH   8  10
ENDBRANCH   5   8
TORSDOF 4
ENDMDL
