MODEL        1
REMARK 921   NORMALIZED FREE ENERGY PREDICTED BY IDOCK:   -3.81 KCAL/MOL
REMARK 922        TOTAL FREE ENERGY PREDICTED BY IDOCK:   -5.88 KCAL/MOL
REMARK 923 INTER-LIGAND FREE ENERGY PREDICTED BY IDOCK:   -5.37 KCAL/MOL
REMARK 924 INTRA-LIGAND FREE ENERGY PREDICTED BY IDOCK:   -0.51 KCAL/MOL
REMARK 927      BINDING AFFINITY PREDICTED BY RF-SCORE:    0.00 PKD
ROOT
HETATM    1  N   UNL     1     -11.536  16.277  63.817  1.00  0.00    -1.482 NA 
HETATM    2  H2  UNL     1     -12.315  15.716  63.472  1.00  0.00     0.000 HD 
HETATM    3  C   UNL     1     -11.027  15.749  65.086  1.00  0.00    -0.382 C  
HETATM    4  H1  UNL     1     -11.793  17.262  63.878  1.00  0.00     0.000 HD 
ENDROOT
BRANCH   3   5
HETATM    5  C   UNL     1     -10.640  14.262  64.994  1.00  0.00    -0.425 C  
BRANCH   5   6
HETATM    6  N   UNL     1     -11.551  13.420  65.778  1.00  0.00    -0.322 NA 
HETATM    7  H   UNL     1     -12.056  13.964  66.477  1.00  0.00     0.000 HD 
BRANCH   6   8
HETATM    8  C   UNL     1     -12.470  12.674  64.907  1.00  0.00    -0.494 C  
BRANCH   8   9
HETATM    9  C   UNL     1     -11.873  12.516  63.495  1.00  0.00    -0.534 C  
BRANCH   9  10
HETATM   10  N   UNL     1     -11.367  11.151  63.266  1.00  0.00    -0.736 NA 
HETATM   11  H   UNL     1     -11.754  10.738  62.417  1.00  0.00     0.000 HD 
BRANCH  10  12
HETATM   12  C   UNL     1      -9.895  11.150  63.256  1.00  0.00    -0.381 C  
BRANCH  12  13
HETATM   13  C   UNL     1      -9.324  10.382  64.463  1.00  0.00    -0.264 C  
HETATM   14  N   UNL     1      -8.907  11.276  65.549  1.00  0.00    -0.354 NA 
HETATM   15  H1  UNL     1      -8.529  10.767  66.348  1.00  0.00     0.000 HD 
HETATM   16  H2  UNL     1      -9.670  11.891  65.833  1.00  0.00     0.000 HD 
ENDBRANCH  12  13
ENDBRANCH  10  12
ENDBRANCH   9  10
ENDBRANCH   8   9
ENDBRANCH   6   8
ENDBRANCH   5   6
ENDBRANCH   3   5
TORSDOF 7
ENDMDL
MODEL        2
REMARK 921   NORMALIZED FREE ENERGY PREDICTED BY IDOCK:   -3.66 KCAL/MOL
REMARK 922        TOTAL FREE ENERGY PREDICTED BY IDOCK:   -5.67 KCAL/MOL
REMARK 923 INTER-LIGAND FREE ENERGY PREDICTED BY IDOCK:   -5.38 KCAL/MOL
REMARK 924 INTRA-LIGAND FREE ENERGY PREDICTED BY IDOCK:   -0.28 KCAL/MOL
REMARK 927      BINDING AFFINITY PREDICTED BY RF-SCORE:    0.00 PKD
ROOT
HETATM    1  N   UNL     1     -11.551  16.333  63.931  1.00  0.00    -1.573 NA 
HETATM    2  H2  UNL     1     -12.145  15.523  64.106  1.00  0.00     0.000 HD 
HETATM    3  C   UNL     1     -11.018  16.876  65.184  1.00  0.00    -0.053 C  
HETATM    4  H1  UNL     1     -12.043  17.036  63.379  1.00  0.00     0.000 HD 
ENDROOT
BRANCH   3   5
HETATM    5  C   UNL     1     -10.277  15.816  66.018  1.00  0.00    -0.333 C  
BRANCH   5   6
HETATM    6  N   UNL     1     -10.959  15.559  67.291  1.00  0.00    -0.318 NA 
HETATM    7  H   UNL     1     -11.453  16.386  67.625  1.00  0.00     0.000 HD 
BRANCH   6   8
HETATM    8  C   UNL     1     -11.856  14.399  67.191  1.00  0.00    -0.410 C  
BRANCH   8   9
HETATM    9  C   UNL     1     -11.052  13.114  66.909  1.00  0.00    -0.282 C  
BRANCH   9  10
HETATM   10  N   UNL     1     -11.797  12.185  66.041  1.00  0.00    -0.561 NA 
HETATM   11  H   UNL     1     -12.518  11.677  66.555  1.00  0.00     0.000 HD 
BRANCH  10  12
HETATM   12  C   UNL     1     -12.353  12.906  64.884  1.00  0.00    -0.475 C  
BRANCH  12  13
HETATM   13  C   UNL     1     -12.507  11.979  63.663  1.00  0.00    -0.525 C  
HETATM   14  N   UNL     1     -11.221  11.441  63.203  1.00  0.00    -0.854 NA 
HETATM   15  H1  UNL     1     -11.324  10.827  62.395  1.00  0.00     0.000 HD 
HETATM   16  H2  UNL     1     -10.727  10.972  63.961  1.00  0.00     0.000 HD 
ENDBRANCH  12  13
ENDBRANCH  10  12
ENDBRANCH   9  10
ENDBRANCH   8   9
ENDBRANCH   6   8
ENDBRANCH   5   6
ENDBRANCH   3   5
TORSDOF 7
ENDMDL
MODEL        3
REMARK 921   NORMALIZED FREE ENERGY PREDICTED BY IDOCK:   -3.65 KCAL/MOL
REMARK 922        TOTAL FREE ENERGY PREDICTED BY IDOCK:   -5.65 KCAL/MOL
REMARK 923 INTER-LIGAND FREE ENERGY PREDICTED BY IDOCK:   -5.36 KCAL/MOL
REMARK 924 INTRA-LIGAND FREE ENERGY PREDICTED BY IDOCK:   -0.29 KCAL/MOL
REMARK 927      BINDING AFFINITY PREDICTED BY RF-SCORE:    0.00 PKD
ROOT
HETATM    1  N   UNL     1     -11.591  16.386  63.818  1.00  0.00    -1.515 NA 
HETATM    2  H2  UNL     1     -12.538  16.728  63.655  1.00  0.00     0.000 HD 
HETATM    3  C   UNL     1     -11.573  15.362  64.865  1.00  0.00    -0.248 C  
HETATM    4  H1  UNL     1     -10.952  17.157  64.014  1.00  0.00     0.000 HD 
ENDROOT
BRANCH   3   5
HETATM    5  C   UNL     1     -12.538  14.199  64.570  1.00  0.00    -0.211 C  
BRANCH   5   6
HETATM    6  N   UNL     1     -12.229  13.556  63.288  1.00  0.00    -1.002 NA 
HETATM    7  H   UNL     1     -11.479  14.042  62.796  1.00  0.00     0.000 HD 
BRANCH   6   8
HETATM    8  C   UNL     1     -11.923  12.130  63.466  1.00  0.00    -0.524 C  
BRANCH   8   9
HETATM    9  C   UNL     1     -10.402  11.889  63.404  1.00  0.00    -0.444 C  
BRANCH   9  10
HETATM   10  N   UNL     1      -9.774  12.030  64.730  1.00  0.00    -0.428 NA 
HETATM   11  H   UNL     1      -9.693  13.008  65.011  1.00  0.00     0.000 HD 
BRANCH  10  12
HETATM   12  C   UNL     1     -10.505  11.230  65.726  1.00  0.00    -0.254 C  
BRANCH  12  13
HETATM   13  C   UNL     1     -10.382  11.837  67.137  1.00  0.00    -0.215 C  
HETATM   14  N   UNL     1     -11.680  11.952  67.811  1.00  0.00    -0.516 NA 
HETATM   15  H1  UNL     1     -11.599  12.353  68.745  1.00  0.00     0.000 HD 
HETATM   16  H2  UNL     1     -12.161  11.053  67.838  1.00  0.00     0.000 HD 
ENDBRANCH  12  13
ENDBRANCH  10  12
ENDBRANCH   9  10
ENDBRANCH   8   9
ENDBRANCH   6   8
ENDBRANCH   5   6
ENDBRANCH   3   5
TORSDOF 7
ENDMDL
MODEL        4
REMARK 921   NORMALIZED FREE ENERGY PREDICTED BY IDOCK:   -3.62 KCAL/MOL
REMARK 922        TOTAL FREE ENERGY PREDICTED BY IDOCK:   -5.61 KCAL/MOL
REMARK 923 INTER-LIGAND FREE ENERGY PREDICTED BY IDOCK:   -5.50 KCAL/MOL
REMARK 924 INTRA-LIGAND FREE ENERGY PREDICTED BY IDOCK:   -0.11 KCAL/MOL
REMARK 927      BINDING AFFINITY PREDICTED BY RF-SCORE:    0.00 PKD
ROOT
HETATM    1  N   UNL     1     -13.931  13.485  72.346  1.00  0.00    -0.703 NA 
HETATM    2  H2  UNL     1     -13.643  12.932  71.539  1.00  0.00     0.000 HD 
HETATM    3  C   UNL     1     -13.042  14.633  72.543  1.00  0.00    -0.414 C  
HETATM    4  H1  UNL     1     -14.007  12.902  73.180  1.00  0.00     0.000 HD 
ENDROOT
BRANCH   3   5
HETATM    5  C   UNL     1     -12.925  15.512  71.284  1.00  0.00    -0.499 C  
BRANCH   5   6
HETATM    6  N   UNL     1     -13.024  14.712  70.059  1.00  0.00    -0.546 NA 
HETATM    7  H   UNL     1     -13.764  15.054  69.446  1.00  0.00     0.000 HD 
BRANCH   6   8
HETATM    8  C   UNL     1     -11.733  14.645  69.360  1.00  0.00    -0.316 C  
BRANCH   8   9
HETATM    9  C   UNL     1     -11.868  13.857  68.042  1.00  0.00    -0.375 C  
BRANCH   9  10
HETATM   10  N   UNL     1     -12.358  14.710  66.945  1.00  0.00    -0.432 NA 
HETATM   11  H   UNL     1     -12.492  15.677  67.245  1.00  0.00     0.000 HD 
BRANCH  10  12
HETATM   12  C   UNL     1     -11.458  14.614  65.784  1.00  0.00    -0.338 C  
BRANCH  12  13
HETATM   13  C   UNL     1     -10.976  16.004  65.328  1.00  0.00    -0.299 C  
HETATM   14  N   UNL     1     -11.498  16.371  64.006  1.00  0.00    -1.573 NA 
HETATM   15  H1  UNL     1     -11.179  17.291  63.704  1.00  0.00     0.000 HD 
HETATM   16  H2  UNL     1     -12.516  16.308  63.983  1.00  0.00     0.000 HD 
ENDBRANCH  12  13
ENDBRANCH  10  12
ENDBRANCH   9  10
ENDBRANCH   8   9
ENDBRANCH   6   8
ENDBRANCH   5   6
ENDBRANCH   3   5
TORSDOF 7
ENDMDL
MODEL        5
REMARK 921   NORMALIZED FREE ENERGY PREDICTED BY IDOCK:   -3.61 KCAL/MOL
REMARK 922        TOTAL FREE ENERGY PREDICTED BY IDOCK:   -5.60 KCAL/MOL
REMARK 923 INTER-LIGAND FREE ENERGY PREDICTED BY IDOCK:   -5.47 KCAL/MOL
REMARK 924 INTRA-LIGAND FREE ENERGY PREDICTED BY IDOCK:   -0.12 KCAL/MOL
REMARK 927      BINDING AFFINITY PREDICTED BY RF-SCORE:    0.00 PKD
ROOT
HETATM    1  N   UNL     1     -11.431  16.331  64.128  1.00  0.00    -1.386 NA 
HETATM    2  H2  UNL     1     -10.540  16.753  64.392  1.00  0.00     0.000 HD 
HETATM    3  C   UNL     1     -11.564  14.985  64.693  1.00  0.00    -0.386 C  
HETATM    4  H1  UNL     1     -11.556  16.344  63.116  1.00  0.00     0.000 HD 
ENDROOT
BRANCH   3   5
HETATM    5  C   UNL     1     -11.373  14.965  66.221  1.00  0.00    -0.306 C  
BRANCH   5   6
HETATM    6  N   UNL     1     -12.382  14.126  66.878  1.00  0.00    -0.565 NA 
HETATM    7  H   UNL     1     -12.864  13.527  66.209  1.00  0.00     0.000 HD 
BRANCH   6   8
HETATM    8  C   UNL     1     -11.794  13.347  67.976  1.00  0.00    -0.357 C  
BRANCH   8   9
HETATM    9  C   UNL     1     -11.607  11.875  67.558  1.00  0.00    -0.304 C  
BRANCH   9  10
HETATM   10  N   UNL     1     -12.193  10.950  68.545  1.00  0.00    -0.809 NA 
HETATM   11  H   UNL     1     -12.129   9.978  68.241  1.00  0.00     0.000 HD 
BRANCH  10  12
HETATM   12  C   UNL     1     -11.575  11.156  69.865  1.00  0.00    -0.337 C  
BRANCH  12  13
HETATM   13  C   UNL     1     -12.559  10.832  71.005  1.00  0.00    -0.420 C  
HETATM   14  N   UNL     1     -13.369   9.641  70.724  1.00  0.00    -0.603 NA 
HETATM   15  H1  UNL     1     -14.020   9.427  71.478  1.00  0.00     0.000 HD 
HETATM   16  H2  UNL     1     -12.778   8.838  70.508  1.00  0.00     0.000 HD 
ENDBRANCH  12  13
ENDBRANCH  10  12
ENDBRANCH   9  10
ENDBRANCH   8   9
ENDBRANCH   6   8
ENDBRANCH   5   6
ENDBRANCH   3   5
TORSDOF 7
ENDMDL
MODEL        6
REMARK 921   NORMALIZED FREE ENERGY PREDICTED BY IDOCK:   -3.58 KCAL/MOL
REMARK 922        TOTAL FREE ENERGY PREDICTED BY IDOCK:   -5.55 KCAL/MOL
REMARK 923 INTER-LIGAND FREE ENERGY PREDICTED BY IDOCK:   -5.18 KCAL/MOL
REMARK 924 INTRA-LIGAND FREE ENERGY PREDICTED BY IDOCK:   -0.36 KCAL/MOL
REMARK 927      BINDING AFFINITY PREDICTED BY RF-SCORE:    0.00 PKD
ROOT
HETATM    1  N   UNL     1     -12.021  16.026  63.727  1.00  0.00    -1.339 NA 
HETATM    2  H2  UNL     1     -11.055  16.291  63.535  1.00  0.00     0.000 HD 
HETATM    3  C   UNL     1     -12.089  14.718  64.384  1.00  0.00    -0.440 C  
HETATM    4  H1  UNL     1     -12.587  16.068  62.880  1.00  0.00     0.000 HD 
ENDROOT
BRANCH   3   5
HETATM    5  C   UNL     1     -11.234  14.654  65.662  1.00  0.00    -0.342 C  
BRANCH   5   6
HETATM    6  N   UNL     1      -9.804  14.783  65.360  1.00  0.00    -0.466 NA 
HETATM    7  H   UNL     1      -9.645  14.946  64.366  1.00  0.00     0.000 HD 
BRANCH   6   8
HETATM    8  C   UNL     1      -9.176  15.823  66.185  1.00  0.00    -0.350 C  
BRANCH   8   9
HETATM    9  C   UNL     1     -10.206  16.901  66.578  1.00  0.00    -0.318 C  
BRANCH   9  10
HETATM   10  N   UNL     1     -10.328  17.941  65.541  1.00  0.00    -0.597 NA 
HETATM   11  H   UNL     1     -11.062  17.722  64.867  1.00  0.00     0.000 HD 
BRANCH  10  12
HETATM   12  C   UNL     1     -10.530  19.259  66.165  1.00  0.00    -0.488 C  
BRANCH  12  13
HETATM   13  C   UNL     1      -9.192  19.888  66.598  1.00  0.00    -0.385 C  
HETATM   14  N   UNL     1      -8.273  20.079  65.470  1.00  0.00    -0.456 NA 
HETATM   15  H1  UNL     1      -7.387  20.496  65.756  1.00  0.00     0.000 HD 
HETATM   16  H2  UNL     1      -8.712  20.623  64.727  1.00  0.00     0.000 HD 
ENDBRANCH  12  13
ENDBRANCH  10  12
ENDBRANCH   9  10
ENDBRANCH   8   9
ENDBRANCH   6   8
ENDBRANCH   5   6
ENDBRANCH   3   5
TORSDOF 7
ENDMDL
MODEL        7
REMARK 921   NORMALIZED FREE ENERGY PREDICTED BY IDOCK:   -3.55 KCAL/MOL
REMARK 922        TOTAL FREE ENERGY PREDICTED BY IDOCK:   -5.51 KCAL/MOL
REMARK 923 INTER-LIGAND FREE ENERGY PREDICTED BY IDOCK:   -5.24 KCAL/MOL
REMARK 924 INTRA-LIGAND FREE ENERGY PREDICTED BY IDOCK:   -0.27 KCAL/MOL
REMARK 927      BINDING AFFINITY PREDICTED BY RF-SCORE:    0.00 PKD
ROOT
HETATM    1  N   UNL     1     -13.479  16.112  73.622  1.00  0.00    -0.894 NA 
HETATM    2  H2  UNL     1     -14.478  16.221  73.799  1.00  0.00     0.000 HD 
HETATM    3  C   UNL     1     -13.196  14.826  72.978  1.00  0.00    -0.490 C  
HETATM    4  H1  UNL     1     -12.939  16.249  74.476  1.00  0.00     0.000 HD 
ENDROOT
BRANCH   3   5
HETATM    5  C   UNL     1     -14.012  14.619  71.689  1.00  0.00    -0.465 C  
BRANCH   5   6
HETATM    6  N   UNL     1     -13.624  15.576  70.647  1.00  0.00    -0.849 NA 
HETATM    7  H   UNL     1     -13.776  16.539  70.947  1.00  0.00     0.000 HD 
BRANCH   6   8
HETATM    8  C   UNL     1     -12.237  15.359  70.213  1.00  0.00    -0.380 C  
BRANCH   8   9
HETATM    9  C   UNL     1     -12.159  14.197  69.202  1.00  0.00    -0.325 C  
BRANCH   9  10
HETATM   10  N   UNL     1     -11.244  13.137  69.661  1.00  0.00    -0.474 NA 
HETATM   11  H   UNL     1     -10.591  13.477  70.368  1.00  0.00     0.000 HD 
BRANCH  10  12
HETATM   12  C   UNL     1     -12.011  11.973  70.133  1.00  0.00    -0.321 C  
BRANCH  12  13
HETATM   13  C   UNL     1     -11.554  10.677  69.436  1.00  0.00    -0.280 C  
HETATM   14  N   UNL     1     -11.880  10.667  68.006  1.00  0.00    -0.767 NA 
HETATM   15  H1  UNL     1     -11.578   9.809  67.544  1.00  0.00     0.000 HD 
HETATM   16  H2  UNL     1     -11.501  11.489  67.537  1.00  0.00     0.000 HD 
ENDBRANCH  12  13
ENDBRANCH  10  12
ENDBRANCH   9  10
ENDBRANCH   8   9
ENDBRANCH   6   8
ENDBRANCH   5   6
ENDBRANCH   3   5
TORSDOF 7
ENDMDL
MODEL        8
REMARK 921   NORMALIZED FREE ENERGY PREDICTED BY IDOCK:   -3.52 KCAL/MOL
REMARK 922        TOTAL FREE ENERGY PREDICTED BY IDOCK:   -5.47 KCAL/MOL
REMARK 923 INTER-LIGAND FREE ENERGY PREDICTED BY IDOCK:   -5.36 KCAL/MOL
REMARK 924 INTRA-LIGAND FREE ENERGY PREDICTED BY IDOCK:   -0.11 KCAL/MOL
REMARK 927      BINDING AFFINITY PREDICTED BY RF-SCORE:    0.00 PKD
ROOT
HETATM    1  N   UNL     1      -9.997   8.272  66.178  1.00  0.00    -0.468 NA 
HETATM    2  H2  UNL     1     -10.785   8.195  65.535  1.00  0.00     0.000 HD 
HETATM    3  C   UNL     1      -8.921   9.082  65.599  1.00  0.00    -0.202 C  
HETATM    4  H1  UNL     1      -9.676   7.351  66.477  1.00  0.00     0.000 HD 
ENDROOT
BRANCH   3   5
HETATM    5  C   UNL     1      -9.406  10.472  65.148  1.00  0.00    -0.216 C  
BRANCH   5   6
HETATM    6  N   UNL     1     -10.037  10.418  63.825  1.00  0.00    -0.453 NA 
HETATM    7  H   UNL     1     -10.804   9.746  63.802  1.00  0.00     0.000 HD 
BRANCH   6   8
HETATM    8  C   UNL     1     -10.474  11.751  63.388  1.00  0.00    -0.434 C  
BRANCH   8   9
HETATM    9  C   UNL     1     -11.837  12.108  64.013  1.00  0.00    -0.434 C  
BRANCH   9  10
HETATM   10  N   UNL     1     -12.383  13.357  63.453  1.00  0.00    -0.896 NA 
HETATM   11  H   UNL     1     -13.262  13.201  62.958  1.00  0.00     0.000 HD 
BRANCH  10  12
HETATM   12  C   UNL     1     -12.521  14.371  64.512  1.00  0.00    -0.339 C  
BRANCH  12  13
HETATM   13  C   UNL     1     -11.245  15.225  64.643  1.00  0.00    -0.356 C  
HETATM   14  N   UNL     1     -11.371  16.526  63.976  1.00  0.00    -1.559 NA 
HETATM   15  H1  UNL     1     -10.527  17.091  64.063  1.00  0.00     0.000 HD 
HETATM   16  H2  UNL     1     -12.190  17.033  64.312  1.00  0.00     0.000 HD 
ENDBRANCH  12  13
ENDBRANCH  10  12
ENDBRANCH   9  10
ENDBRANCH   8   9
ENDBRANCH   6   8
ENDBRANCH   5   6
ENDBRANCH   3   5
TORSDOF 7
ENDMDL
MODEL        9
REMARK 921   NORMALIZED FREE ENERGY PREDICTED BY IDOCK:   -3.52 KCAL/MOL
REMARK 922        TOTAL FREE ENERGY PREDICTED BY IDOCK:   -5.46 KCAL/MOL
REMARK 923 INTER-LIGAND FREE ENERGY PREDICTED BY IDOCK:   -5.03 KCAL/MOL
REMARK 924 INTRA-LIGAND FREE ENERGY PREDICTED BY IDOCK:   -0.44 KCAL/MOL
REMARK 927      BINDING AFFINITY PREDICTED BY RF-SCORE:    0.00 PKD
ROOT
HETATM    1  N   UNL     1     -14.283   8.966  73.152  1.00  0.00    -1.200 NA 
HETATM    2  H2  UNL     1     -14.630   9.925  73.148  1.00  0.00     0.000 HD 
HETATM    3  C   UNL     1     -13.487   8.689  71.953  1.00  0.00    -0.397 C  
HETATM    4  H1  UNL     1     -15.047   8.301  73.276  1.00  0.00     0.000 HD 
ENDROOT
BRANCH   3   5
HETATM    5  C   UNL     1     -12.335   9.694  71.765  1.00  0.00    -0.392 C  
BRANCH   5   6
HETATM    6  N   UNL     1     -12.785  10.904  71.069  1.00  0.00    -0.390 NA 
HETATM    7  H   UNL     1     -12.884  11.690  71.711  1.00  0.00     0.000 HD 
BRANCH   6   8
HETATM    8  C   UNL     1     -11.898  11.234  69.945  1.00  0.00    -0.360 C  
BRANCH   8   9
HETATM    9  C   UNL     1     -11.942  12.745  69.643  1.00  0.00    -0.288 C  
BRANCH   9  10
HETATM   10  N   UNL     1     -11.876  13.549  70.877  1.00  0.00    -0.471 NA 
HETATM   11  H   UNL     1     -10.924  13.858  71.079  1.00  0.00     0.000 HD 
BRANCH  10  12
HETATM   12  C   UNL     1     -12.816  14.679  70.798  1.00  0.00    -0.358 C  
BRANCH  12  13
HETATM   13  C   UNL     1     -13.736  14.734  72.032  1.00  0.00    -0.428 C  
HETATM   14  N   UNL     1     -13.990  13.405  72.600  1.00  0.00    -0.743 NA 
HETATM   15  H1  UNL     1     -14.599  13.441  73.417  1.00  0.00     0.000 HD 
HETATM   16  H2  UNL     1     -13.116  12.924  72.813  1.00  0.00     0.000 HD 
ENDBRANCH  12  13
ENDBRANCH  10  12
ENDBRANCH   9  10
ENDBRANCH   8   9
ENDBRANCH   6   8
ENDBRANCH   5   6
ENDBRANCH   3   5
TORSDOF 7
ENDMDL
MODEL       10
REMARK 921   NORMALIZED FREE ENERGY PREDICTED BY IDOCK:   -3.52 KCAL/MOL
REMARK 922        TOTAL FREE ENERGY PREDICTED BY IDOCK:   -5.46 KCAL/MOL
REMARK 923 INTER-LIGAND FREE ENERGY PREDICTED BY IDOCK:   -5.23 KCAL/MOL
REMARK 924 INTRA-LIGAND FREE ENERGY PREDICTED BY IDOCK:   -0.23 KCAL/MOL
REMARK 927      BINDING AFFINITY PREDICTED BY RF-SCORE:    0.00 PKD
ROOT
HETATM    1  N   UNL     1     -10.422  10.863  63.067  1.00  0.00    -0.769 NA 
HETATM    2  H2  UNL     1     -10.695  10.817  62.085  1.00  0.00     0.000 HD 
HETATM    3  C   UNL     1     -10.815  12.142  63.664  1.00  0.00    -0.464 C  
HETATM    4  H1  UNL     1      -9.427  10.669  63.180  1.00  0.00     0.000 HD 
ENDROOT
BRANCH   3   5
HETATM    5  C   UNL     1     -12.317  12.436  63.494  1.00  0.00    -0.546 C  
BRANCH   5   6
HETATM    6  N   UNL     1     -12.963  12.703  64.783  1.00  0.00    -0.867 NA 
HETATM    7  H   UNL     1     -12.881  11.907  65.415  1.00  0.00     0.000 HD 
BRANCH   6   8
HETATM    8  C   UNL     1     -12.442  13.933  65.396  1.00  0.00    -0.501 C  
BRANCH   8   9
HETATM    9  C   UNL     1     -12.001  13.672  66.849  1.00  0.00    -0.410 C  
BRANCH   9  10
HETATM   10  N   UNL     1     -12.024  12.236  67.176  1.00  0.00    -0.576 NA 
HETATM   11  H   UNL     1     -11.523  11.679  66.483  1.00  0.00     0.000 HD 
BRANCH  10  12
HETATM   12  C   UNL     1     -11.507  12.015  68.537  1.00  0.00    -0.293 C  
BRANCH  12  13
HETATM   13  C   UNL     1     -11.588  13.299  69.385  1.00  0.00    -0.305 C  
HETATM   14  N   UNL     1     -12.036  13.035  70.757  1.00  0.00    -0.497 NA 
HETATM   15  H1  UNL     1     -12.090  13.885  71.319  1.00  0.00     0.000 HD 
HETATM   16  H2  UNL     1     -11.449  12.333  71.207  1.00  0.00     0.000 HD 
ENDBRANCH  12  13
ENDBRANCH  10  12
ENDBRANCH   9  10
ENDBRANCH   8   9
ENDBRANCH   6   8
ENDBRANCH   5   6
ENDBRANCH   3   5
TORSDOF 7
ENDMDL
MODEL       11
REMARK 921   NORMALIZED FREE ENERGY PREDICTED BY IDOCK:   -3.51 KCAL/MOL
REMARK 922        TOTAL FREE ENERGY PREDICTED BY IDOCK:   -5.45 KCAL/MOL
REMARK 923 INTER-LIGAND FREE ENERGY PREDICTED BY IDOCK:   -5.44 KCAL/MOL
REMARK 924 INTRA-LIGAND FREE ENERGY PREDICTED BY IDOCK:   -0.02 KCAL/MOL
REMARK 927      BINDING AFFINITY PREDICTED BY RF-SCORE:    0.00 PKD
ROOT
HETATM    1  N   UNL     1     -10.482  10.924  62.787  1.00  0.00    -0.781 NA 
HETATM    2  H2  UNL     1     -10.612  11.281  61.840  1.00  0.00     0.000 HD 
HETATM    3  C   UNL     1     -10.893  11.915  63.785  1.00  0.00    -0.418 C  
HETATM    4  H1  UNL     1      -9.524  10.601  62.928  1.00  0.00     0.000 HD 
ENDROOT
BRANCH   3   5
HETATM    5  C   UNL     1     -12.337  12.403  63.571  1.00  0.00    -0.546 C  
BRANCH   5   6
HETATM    6  N   UNL     1     -13.014  12.657  64.848  1.00  0.00    -0.850 NA 
HETATM    7  H   UNL     1     -12.896  11.879  65.496  1.00  0.00     0.000 HD 
BRANCH   6   8
HETATM    8  C   UNL     1     -12.571  13.926  65.444  1.00  0.00    -0.507 C  
BRANCH   8   9
HETATM    9  C   UNL     1     -11.693  13.667  66.684  1.00  0.00    -0.388 C  
BRANCH   9  10
HETATM   10  N   UNL     1     -12.271  14.275  67.896  1.00  0.00    -0.595 NA 
HETATM   11  H   UNL     1     -13.291  14.239  67.891  1.00  0.00     0.000 HD 
BRANCH  10  12
HETATM   12  C   UNL     1     -11.704  13.645  69.100  1.00  0.00    -0.329 C  
BRANCH  12  13
HETATM   13  C   UNL     1     -12.481  14.050  70.367  1.00  0.00    -0.350 C  
HETATM   14  N   UNL     1     -13.041  15.403  70.270  1.00  0.00    -0.672 NA 
HETATM   15  H1  UNL     1     -13.556  15.672  71.109  1.00  0.00     0.000 HD 
HETATM   16  H2  UNL     1     -13.620  15.502  69.437  1.00  0.00     0.000 HD 
ENDBRANCH  12  13
ENDBRANCH  10  12
ENDBRANCH   9  10
ENDBRANCH   8   9
ENDBRANCH   6   8
ENDBRANCH   5   6
ENDBRANCH   3   5
TORSDOF 7
ENDMDL
MODEL       12
REMARK 921   NORMALIZED FREE ENERGY PREDICTED BY IDOCK:   -3.50 KCAL/MOL
REMARK 922        TOTAL FREE ENERGY PREDICTED BY IDOCK:   -5.44 KCAL/MOL
REMARK 923 INTER-LIGAND FREE ENERGY PREDICTED BY IDOCK:   -5.26 KCAL/MOL
REMARK 924 INTRA-LIGAND FREE ENERGY PREDICTED BY IDOCK:   -0.18 KCAL/MOL
REMARK 927      BINDING AFFINITY PREDICTED BY RF-SCORE:    0.00 PKD
ROOT
HETATM    1  N   UNL     1     -11.384  15.046  72.327  1.00  0.00    -0.441 NA 
HETATM    2  H2  UNL     1     -11.507  16.022  72.599  1.00  0.00     0.000 HD 
HETATM    3  C   UNL     1     -11.986  14.784  71.017  1.00  0.00    -0.331 C  
HETATM    4  H1  UNL     1     -11.734  14.418  73.051  1.00  0.00     0.000 HD 
ENDROOT
BRANCH   3   5
HETATM    5  C   UNL     1     -11.458  15.733  69.925  1.00  0.00    -0.346 C  
BRANCH   5   6
HETATM    6  N   UNL     1     -12.056  15.435  68.619  1.00  0.00    -0.570 NA 
HETATM    7  H   UNL     1     -11.640  16.001  67.879  1.00  0.00     0.000 HD 
BRANCH   6   8
HETATM    8  C   UNL     1     -11.976  14.001  68.310  1.00  0.00    -0.349 C  
BRANCH   8   9
HETATM    9  C   UNL     1     -11.388  13.779  66.902  1.00  0.00    -0.328 C  
BRANCH   9  10
HETATM   10  N   UNL     1     -12.444  13.542  65.902  1.00  0.00    -0.445 NA 
HETATM   11  H   UNL     1     -13.348  13.901  66.210  1.00  0.00     0.000 HD 
BRANCH  10  12
HETATM   12  C   UNL     1     -12.045  14.101  64.600  1.00  0.00    -0.452 C  
BRANCH  12  13
HETATM   13  C   UNL     1     -11.185  15.368  64.770  1.00  0.00    -0.395 C  
HETATM   14  N   UNL     1     -11.617  16.460  63.890  1.00  0.00    -1.602 NA 
HETATM   15  H1  UNL     1     -11.048  17.299  64.003  1.00  0.00     0.000 HD 
HETATM   16  H2  UNL     1     -12.607  16.667  64.021  1.00  0.00     0.000 HD 
ENDBRANCH  12  13
ENDBRANCH  10  12
ENDBRANCH   9  10
ENDBRANCH   8   9
ENDBRANCH   6   8
ENDBRANCH   5   6
ENDBRANCH   3   5
TORSDOF 7
ENDMDL
MODEL       13
REMARK 921   NORMALIZED FREE ENERGY PREDICTED BY IDOCK:   -3.50 KCAL/MOL
REMARK 922        TOTAL FREE ENERGY PREDICTED BY IDOCK:   -5.44 KCAL/MOL
REMARK 923 INTER-LIGAND FREE ENERGY PREDICTED BY IDOCK:   -5.25 KCAL/MOL
REMARK 924 INTRA-LIGAND FREE ENERGY PREDICTED BY IDOCK:   -0.19 KCAL/MOL
REMARK 927      BINDING AFFINITY PREDICTED BY RF-SCORE:    0.00 PKD
ROOT
HETATM    1  N   UNL     1     -11.515  16.391  63.859  1.00  0.00    -1.618 NA 
HETATM    2  H2  UNL     1     -12.466  16.744  63.968  1.00  0.00     0.000 HD 
HETATM    3  C   UNL     1     -11.211  15.373  64.868  1.00  0.00    -0.403 C  
HETATM    4  H1  UNL     1     -10.839  17.156  63.859  1.00  0.00     0.000 HD 
ENDROOT
BRANCH   3   5
HETATM    5  C   UNL     1     -12.231  14.220  64.867  1.00  0.00    -0.440 C  
BRANCH   5   6
HETATM    6  N   UNL     1     -12.304  13.566  63.556  1.00  0.00    -0.893 NA 
HETATM    7  H   UNL     1     -11.686  14.013  62.880  1.00  0.00     0.000 HD 
BRANCH   6   8
HETATM    8  C   UNL     1     -12.037  12.125  63.662  1.00  0.00    -0.551 C  
BRANCH   8   9
HETATM    9  C   UNL     1     -10.634  11.791  63.116  1.00  0.00    -0.280 C  
BRANCH   9  10
HETATM   10  N   UNL     1      -9.592  11.976  64.141  1.00  0.00    -0.502 NA 
HETATM   11  H   UNL     1      -9.873  12.653  64.852  1.00  0.00     0.000 HD 
BRANCH  10  12
HETATM   12  C   UNL     1      -9.225  10.678  64.732  1.00  0.00    -0.220 C  
BRANCH  12  13
HETATM   13  C   UNL     1      -8.890   9.639  63.646  1.00  0.00    -0.232 C  
HETATM   14  N   UNL     1      -7.552   9.061  63.818  1.00  0.00    -0.111 NA 
HETATM   15  H1  UNL     1      -7.330   8.373  63.099  1.00  0.00     0.000 HD 
HETATM   16  H2  UNL     1      -7.440   8.666  64.752  1.00  0.00     0.000 HD 
ENDBRANCH  12  13
ENDBRANCH  10  12
ENDBRANCH   9  10
ENDBRANCH   8   9
ENDBRANCH   6   8
ENDBRANCH   5   6
ENDBRANCH   3   5
TORSDOF 7
ENDMDL
MODEL       14
REMARK 921   NORMALIZED FREE ENERGY PREDICTED BY IDOCK:   -3.47 KCAL/MOL
REMARK 922        TOTAL FREE ENERGY PREDICTED BY IDOCK:   -5.39 KCAL/MOL
REMARK 923 INTER-LIGAND FREE ENERGY PREDICTED BY IDOCK:   -4.83 KCAL/MOL
REMARK 924 INTRA-LIGAND FREE ENERGY PREDICTED BY IDOCK:   -0.57 KCAL/MOL
REMARK 927      BINDING AFFINITY PREDICTED BY RF-SCORE:    0.00 PKD
ROOT
HETATM    1  N   UNL     1     -12.422  13.662  63.131  1.00  0.00    -1.045 NA 
HETATM    2  H2  UNL     1     -11.858  13.968  62.338  1.00  0.00     0.000 HD 
HETATM    3  C   UNL     1     -12.154  12.259  63.458  1.00  0.00    -0.553 C  
HETATM    4  H1  UNL     1     -13.413  13.843  62.968  1.00  0.00     0.000 HD 
ENDROOT
BRANCH   3   5
HETATM    5  C   UNL     1     -10.659  11.986  63.704  1.00  0.00    -0.454 C  
BRANCH   5   6
HETATM    6  N   UNL     1     -10.058  13.013  64.562  1.00  0.00    -0.592 NA 
HETATM    7  H   UNL     1     -10.367  13.948  64.300  1.00  0.00     0.000 HD 
BRANCH   6   8
HETATM    8  C   UNL     1     -10.316  12.738  65.983  1.00  0.00    -0.276 C  
BRANCH   8   9
HETATM    9  C   UNL     1      -9.968  13.967  66.846  1.00  0.00    -0.264 C  
BRANCH   9  10
HETATM   10  N   UNL     1     -11.072  14.942  66.874  1.00  0.00    -0.332 NA 
HETATM   11  H   UNL     1     -11.732  14.750  67.628  1.00  0.00     0.000 HD 
BRANCH  10  12
HETATM   12  C   UNL     1     -10.538  16.312  66.948  1.00  0.00    -0.270 C  
BRANCH  12  13
HETATM   13  C   UNL     1     -10.607  17.019  65.580  1.00  0.00    -0.197 C  
HETATM   14  N   UNL     1     -11.190  16.165  64.539  1.00  0.00    -0.844 NA 
HETATM   15  H1  UNL     1     -11.236  16.633  63.633  1.00  0.00     0.000 HD 
HETATM   16  H2  UNL     1     -12.106  15.816  64.819  1.00  0.00     0.000 HD 
ENDBRANCH  12  13
ENDBRANCH  10  12
ENDBRANCH   9  10
ENDBRANCH   8   9
ENDBRANCH   6   8
ENDBRANCH   5   6
ENDBRANCH   3   5
TORSDOF 7
ENDMDL
MODEL       15
REMARK 921   NORMALIZED FREE ENERGY PREDICTED BY IDOCK:   -3.46 KCAL/MOL
REMARK 922        TOTAL FREE ENERGY PREDICTED BY IDOCK:   -5.38 KCAL/MOL
REMARK 923 INTER-LIGAND FREE ENERGY PREDICTED BY IDOCK:   -5.15 KCAL/MOL
REMARK 924 INTRA-LIGAND FREE ENERGY PREDICTED BY IDOCK:   -0.23 KCAL/MOL
REMARK 927      BINDING AFFINITY PREDICTED BY RF-SCORE:    0.00 PKD
ROOT
HETATM    1  N   UNL     1     -11.678  16.177  63.832  1.00  0.00    -1.452 NA 
HETATM    2  H2  UNL     1     -12.571  15.690  63.913  1.00  0.00     0.000 HD 
HETATM    3  C   UNL     1     -10.845  15.952  65.016  1.00  0.00    -0.426 C  
HETATM    4  H1  UNL     1     -11.819  17.168  63.636  1.00  0.00     0.000 HD 
ENDROOT
BRANCH   3   5
HETATM    5  C   UNL     1     -10.633  14.456  65.313  1.00  0.00    -0.382 C  
BRANCH   5   6
HETATM    6  N   UNL     1     -11.842  13.843  65.876  1.00  0.00    -0.363 NA 
HETATM    7  H   UNL     1     -12.480  13.532  65.144  1.00  0.00     0.000 HD 
BRANCH   6   8
HETATM    8  C   UNL     1     -11.505  12.750  66.799  1.00  0.00    -0.343 C  
BRANCH   8   9
HETATM    9  C   UNL     1     -11.301  13.290  68.229  1.00  0.00    -0.300 C  
BRANCH   9  10
HETATM   10  N   UNL     1     -12.355  14.249  68.605  1.00  0.00    -0.571 NA 
HETATM   11  H   UNL     1     -12.987  13.864  69.308  1.00  0.00     0.000 HD 
BRANCH  10  12
HETATM   12  C   UNL     1     -11.753  15.519  69.043  1.00  0.00    -0.377 C  
BRANCH  12  13
HETATM   13  C   UNL     1     -12.094  15.827  70.513  1.00  0.00    -0.374 C  
HETATM   14  N   UNL     1     -11.243  15.086  71.452  1.00  0.00    -0.561 NA 
HETATM   15  H1  UNL     1     -11.469  15.290  72.425  1.00  0.00     0.000 HD 
HETATM   16  H2  UNL     1     -10.255  15.252  71.261  1.00  0.00     0.000 HD 
ENDBRANCH  12  13
ENDBRANCH  10  12
ENDBRANCH   9  10
ENDBRANCH   8   9
ENDBRANCH   6   8
ENDBRANCH   5   6
ENDBRANCH   3   5
TORSDOF 7
ENDMDL
MODEL       16
REMARK 921   NORMALIZED FREE ENERGY PREDICTED BY IDOCK:   -3.45 KCAL/MOL
REMARK 922        TOTAL FREE ENERGY PREDICTED BY IDOCK:   -5.36 KCAL/MOL
REMARK 923 INTER-LIGAND FREE ENERGY PREDICTED BY IDOCK:   -5.31 KCAL/MOL
REMARK 924 INTRA-LIGAND FREE ENERGY PREDICTED BY IDOCK:   -0.06 KCAL/MOL
REMARK 927      BINDING AFFINITY PREDICTED BY RF-SCORE:    0.00 PKD
ROOT
HETATM    1  N   UNL     1     -14.111   9.121  73.061  1.00  0.00    -1.124 NA 
HETATM    2  H2  UNL     1     -14.734   9.923  73.159  1.00  0.00     0.000 HD 
HETATM    3  C   UNL     1     -13.536   9.061  71.714  1.00  0.00    -0.411 C  
HETATM    4  H1  UNL     1     -14.583   8.256  73.323  1.00  0.00     0.000 HD 
ENDROOT
BRANCH   3   5
HETATM    5  C   UNL     1     -12.823  10.367  71.318  1.00  0.00    -0.433 C  
BRANCH   5   6
HETATM    6  N   UNL     1     -12.561  10.421  69.876  1.00  0.00    -0.551 NA 
HETATM    7  H   UNL     1     -13.407  10.243  69.335  1.00  0.00     0.000 HD 
BRANCH   6   8
HETATM    8  C   UNL     1     -11.935  11.695  69.495  1.00  0.00    -0.317 C  
BRANCH   8   9
HETATM    9  C   UNL     1     -11.636  11.723  67.983  1.00  0.00    -0.316 C  
BRANCH   9  10
HETATM   10  N   UNL     1     -11.669  13.095  67.446  1.00  0.00    -0.355 NA 
HETATM   11  H   UNL     1     -10.947  13.684  67.862  1.00  0.00     0.000 HD 
BRANCH  10  12
HETATM   12  C   UNL     1     -11.578  13.068  65.977  1.00  0.00    -0.365 C  
BRANCH  12  13
HETATM   13  C   UNL     1     -12.662  13.952  65.329  1.00  0.00    -0.449 C  
HETATM   14  N   UNL     1     -12.378  14.241  63.919  1.00  0.00    -0.986 NA 
HETATM   15  H1  UNL     1     -13.095  14.826  63.490  1.00  0.00     0.000 HD 
HETATM   16  H2  UNL     1     -12.239  13.382  63.388  1.00  0.00     0.000 HD 
ENDBRANCH  12  13
ENDBRANCH  10  12
ENDBRANCH   9  10
ENDBRANCH   8   9
ENDBRANCH   6   8
ENDBRANCH   5   6
ENDBRANCH   3   5
TORSDOF 7
ENDMDL
MODEL       17
REMARK 921   NORMALIZED FREE ENERGY PREDICTED BY IDOCK:   -3.43 KCAL/MOL
REMARK 922        TOTAL FREE ENERGY PREDICTED BY IDOCK:   -5.34 KCAL/MOL
REMARK 923 INTER-LIGAND FREE ENERGY PREDICTED BY IDOCK:   -5.12 KCAL/MOL
REMARK 924 INTRA-LIGAND FREE ENERGY PREDICTED BY IDOCK:   -0.23 KCAL/MOL
REMARK 927      BINDING AFFINITY PREDICTED BY RF-SCORE:    0.00 PKD
ROOT
HETATM    1  N   UNL     1      -9.076  12.683  66.447  1.00  0.00    -0.398 NA 
HETATM    2  H2  UNL     1      -8.343  13.338  66.720  1.00  0.00     0.000 HD 
HETATM    3  C   UNL     1     -10.310  12.931  67.199  1.00  0.00    -0.238 C  
HETATM    4  H1  UNL     1      -8.755  11.719  66.530  1.00  0.00     0.000 HD 
ENDROOT
BRANCH   3   5
HETATM    5  C   UNL     1     -10.795  14.387  67.075  1.00  0.00    -0.297 C  
BRANCH   5   6
HETATM    6  N   UNL     1     -12.250  14.457  66.903  1.00  0.00    -0.545 NA 
HETATM    7  H   UNL     1     -12.586  15.419  66.945  1.00  0.00     0.000 HD 
BRANCH   6   8
HETATM    8  C   UNL     1     -12.673  13.792  65.662  1.00  0.00    -0.478 C  
BRANCH   8   9
HETATM    9  C   UNL     1     -12.019  14.460  64.437  1.00  0.00    -0.452 C  
BRANCH   9  10
HETATM   10  N   UNL     1     -12.308  13.721  63.195  1.00  0.00    -1.106 NA 
HETATM   11  H   UNL     1     -11.836  14.132  62.388  1.00  0.00     0.000 HD 
BRANCH  10  12
HETATM   12  C   UNL     1     -11.973  12.297  63.361  1.00  0.00    -0.494 C  
BRANCH  12  13
HETATM   13  C   UNL     1     -10.456  12.057  63.242  1.00  0.00    -0.359 C  
HETATM   14  N   UNL     1     -10.141  10.803  62.548  1.00  0.00    -0.748 NA 
HETATM   15  H1  UNL     1      -9.137  10.644  62.469  1.00  0.00     0.000 HD 
HETATM   16  H2  UNL     1     -10.592  10.766  61.634  1.00  0.00     0.000 HD 
ENDBRANCH  12  13
ENDBRANCH  10  12
ENDBRANCH   9  10
ENDBRANCH   8   9
ENDBRANCH   6   8
ENDBRANCH   5   6
ENDBRANCH   3   5
TORSDOF 7
ENDMDL
MODEL       18
REMARK 921   NORMALIZED FREE ENERGY PREDICTED BY IDOCK:   -3.43 KCAL/MOL
REMARK 922        TOTAL FREE ENERGY PREDICTED BY IDOCK:   -5.34 KCAL/MOL
REMARK 923 INTER-LIGAND FREE ENERGY PREDICTED BY IDOCK:   -4.67 KCAL/MOL
REMARK 924 INTRA-LIGAND FREE ENERGY PREDICTED BY IDOCK:   -0.67 KCAL/MOL
REMARK 927      BINDING AFFINITY PREDICTED BY RF-SCORE:    0.00 PKD
ROOT
HETATM    1  N   UNL     1     -10.069  13.006  63.892  1.00  0.00    -0.757 NA 
HETATM    2  H2  UNL     1      -9.871  12.905  64.888  1.00  0.00     0.000 HD 
HETATM    3  C   UNL     1     -11.112  12.069  63.464  1.00  0.00    -0.443 C  
HETATM    4  H1  UNL     1      -9.217  12.922  63.339  1.00  0.00     0.000 HD 
ENDROOT
BRANCH   3   5
HETATM    5  C   UNL     1     -12.399  12.196  64.300  1.00  0.00    -0.371 C  
BRANCH   5   6
HETATM    6  N   UNL     1     -12.684  13.595  64.640  1.00  0.00    -0.663 NA 
HETATM    7  H   UNL     1     -13.418  13.982  64.048  1.00  0.00     0.000 HD 
BRANCH   6   8
HETATM    8  C   UNL     1     -13.006  13.743  66.066  1.00  0.00    -0.073 C  
BRANCH   8   9
HETATM    9  C   UNL     1     -11.778  13.415  66.938  1.00  0.00    -0.389 C  
BRANCH   9  10
HETATM   10  N   UNL     1     -10.615  14.244  66.574  1.00  0.00    -0.283 NA 
HETATM   11  H   UNL     1     -10.237  13.991  65.660  1.00  0.00     0.000 HD 
BRANCH  10  12
HETATM   12  C   UNL     1     -10.966  15.672  66.647  1.00  0.00    -0.212 C  
BRANCH  12  13
HETATM   13  C   UNL     1     -10.532  16.425  65.375  1.00  0.00    -0.311 C  
HETATM   14  N   UNL     1     -11.525  16.324  64.300  1.00  0.00    -1.168 NA 
HETATM   15  H1  UNL     1     -11.237  16.823  63.458  1.00  0.00     0.000 HD 
HETATM   16  H2  UNL     1     -12.443  16.636  64.617  1.00  0.00     0.000 HD 
ENDBRANCH  12  13
ENDBRANCH  10  12
ENDBRANCH   9  10
ENDBRANCH   8   9
ENDBRANCH   6   8
ENDBRANCH   5   6
ENDBRANCH   3   5
TORSDOF 7
ENDMDL
MODEL       19
REMARK 921   NORMALIZED FREE ENERGY PREDICTED BY IDOCK:   -3.41 KCAL/MOL
REMARK 922        TOTAL FREE ENERGY PREDICTED BY IDOCK:   -5.31 KCAL/MOL
REMARK 923 INTER-LIGAND FREE ENERGY PREDICTED BY IDOCK:   -5.17 KCAL/MOL
REMARK 924 INTRA-LIGAND FREE ENERGY PREDICTED BY IDOCK:   -0.14 KCAL/MOL
REMARK 927      BINDING AFFINITY PREDICTED BY RF-SCORE:    0.00 PKD
ROOT
HETATM    1  N   UNL     1     -13.990  15.403  70.818  1.00  0.00    -0.859 NA 
HETATM    2  H2  UNL     1     -14.533  15.192  69.981  1.00  0.00     0.000 HD 
HETATM    3  C   UNL     1     -13.101  14.290  71.165  1.00  0.00    -0.343 C  
HETATM    4  H1  UNL     1     -14.598  15.673  71.591  1.00  0.00     0.000 HD 
ENDROOT
BRANCH   3   5
HETATM    5  C   UNL     1     -12.184  13.882  69.998  1.00  0.00    -0.344 C  
BRANCH   5   6
HETATM    6  N   UNL     1     -12.498  14.634  68.778  1.00  0.00    -0.567 NA 
HETATM    7  H   UNL     1     -12.774  15.593  68.990  1.00  0.00     0.000 HD 
BRANCH   6   8
HETATM    8  C   UNL     1     -11.381  14.593  67.824  1.00  0.00    -0.322 C  
BRANCH   8   9
HETATM    9  C   UNL     1     -11.139  13.153  67.332  1.00  0.00    -0.275 C  
BRANCH   9  10
HETATM   10  N   UNL     1     -12.276  12.650  66.540  1.00  0.00    -0.521 NA 
HETATM   11  H   UNL     1     -13.087  12.446  67.125  1.00  0.00     0.000 HD 
BRANCH  10  12
HETATM   12  C   UNL     1     -12.600  13.595  65.459  1.00  0.00    -0.496 C  
BRANCH  12  13
HETATM   13  C   UNL     1     -11.911  13.200  64.139  1.00  0.00    -0.436 C  
HETATM   14  N   UNL     1     -12.464  13.915  62.983  1.00  0.00    -1.009 NA 
HETATM   15  H1  UNL     1     -12.008  13.653  62.110  1.00  0.00     0.000 HD 
HETATM   16  H2  UNL     1     -12.434  14.924  63.127  1.00  0.00     0.000 HD 
ENDBRANCH  12  13
ENDBRANCH  10  12
ENDBRANCH   9  10
ENDBRANCH   8   9
ENDBRANCH   6   8
ENDBRANCH   5   6
ENDBRANCH   3   5
TORSDOF 7
ENDMDL
MODEL       20
REMARK 921   NORMALIZED FREE ENERGY PREDICTED BY IDOCK:   -3.40 KCAL/MOL
REMARK 922        TOTAL FREE ENERGY PREDICTED BY IDOCK:   -5.29 KCAL/MOL
REMARK 923 INTER-LIGAND FREE ENERGY PREDICTED BY IDOCK:   -4.82 KCAL/MOL
REMARK 924 INTRA-LIGAND FREE ENERGY PREDICTED BY IDOCK:   -0.47 KCAL/MOL
REMARK 927      BINDING AFFINITY PREDICTED BY RF-SCORE:    0.00 PKD
ROOT
HETATM    1  N   UNL     1     -12.457  13.887  63.024  1.00  0.00    -1.009 NA 
HETATM    2  H2  UNL     1     -12.407  14.827  63.415  1.00  0.00     0.000 HD 
HETATM    3  C   UNL     1     -11.862  12.904  63.935  1.00  0.00    -0.473 C  
HETATM    4  H1  UNL     1     -12.045  13.855  62.092  1.00  0.00     0.000 HD 
ENDROOT
BRANCH   3   5
HETATM    5  C   UNL     1     -12.483  12.952  65.343  1.00  0.00    -0.454 C  
BRANCH   5   6
HETATM    6  N   UNL     1     -11.479  12.705  66.383  1.00  0.00    -0.335 NA 
HETATM    7  H   UNL     1     -10.701  12.149  66.028  1.00  0.00     0.000 HD 
BRANCH   6   8
HETATM    8  C   UNL     1     -11.013  13.962  66.984  1.00  0.00    -0.295 C  
BRANCH   8   9
HETATM    9  C   UNL     1     -11.706  14.207  68.339  1.00  0.00    -0.345 C  
BRANCH   9  10
HETATM   10  N   UNL     1     -11.034  13.484  69.433  1.00  0.00    -0.437 NA 
HETATM   11  H   UNL     1     -10.571  14.121  70.083  1.00  0.00     0.000 HD 
BRANCH  10  12
HETATM   12  C   UNL     1     -11.989  12.598  70.119  1.00  0.00    -0.299 C  
BRANCH  12  13
HETATM   13  C   UNL     1     -11.670  11.114  69.855  1.00  0.00    -0.355 C  
HETATM   14  N   UNL     1     -12.282  10.623  68.615  1.00  0.00    -0.814 NA 
HETATM   15  H1  UNL     1     -12.071   9.641  68.440  1.00  0.00     0.000 HD 
HETATM   16  H2  UNL     1     -12.017  11.203  67.819  1.00  0.00     0.000 HD 
ENDBRANCH  12  13
ENDBRANCH  10  12
ENDBRANCH   9  10
ENDBRANCH   8   9
ENDBRANCH   6   8
ENDBRANCH   5   6
ENDBRANCH   3   5
TORSDOF 7
ENDMDL
MODEL       21
REMARK 921   NORMALIZED FREE ENERGY PREDICTED BY IDOCK:   -3.39 KCAL/MOL
REMARK 922        TOTAL FREE ENERGY PREDICTED BY IDOCK:   -5.28 KCAL/MOL
REMARK 923 INTER-LIGAND FREE ENERGY PREDICTED BY IDOCK:   -5.15 KCAL/MOL
REMARK 924 INTRA-LIGAND FREE ENERGY PREDICTED BY IDOCK:   -0.13 KCAL/MOL
REMARK 927      BINDING AFFINITY PREDICTED BY RF-SCORE:    0.00 PKD
ROOT
HETATM    1  N   UNL     1     -12.489  14.388  64.335  1.00  0.00    -0.679 NA 
HETATM    2  H2  UNL     1     -11.622  13.989  63.974  1.00  0.00     0.000 HD 
HETATM    3  C   UNL     1     -12.897  13.724  65.576  1.00  0.00    -0.419 C  
HETATM    4  H1  UNL     1     -13.222  14.374  63.625  1.00  0.00     0.000 HD 
ENDROOT
BRANCH   3   5
HETATM    5  C   UNL     1     -11.791  13.745  66.647  1.00  0.00    -0.412 C  
BRANCH   5   6
HETATM    6  N   UNL     1     -12.248  14.397  67.879  1.00  0.00    -0.620 NA 
HETATM    7  H   UNL     1     -12.296  13.738  68.656  1.00  0.00     0.000 HD 
BRANCH   6   8
HETATM    8  C   UNL     1     -11.412  15.560  68.209  1.00  0.00    -0.353 C  
BRANCH   8   9
HETATM    9  C   UNL     1     -11.501  15.884  69.713  1.00  0.00    -0.342 C  
BRANCH   9  10
HETATM   10  N   UNL     1     -12.727  15.334  70.318  1.00  0.00    -0.606 NA 
HETATM   11  H   UNL     1     -13.156  14.621  69.727  1.00  0.00     0.000 HD 
BRANCH  10  12
HETATM   12  C   UNL     1     -12.445  14.830  71.672  1.00  0.00    -0.335 C  
BRANCH  12  13
HETATM   13  C   UNL     1     -12.272  15.984  72.678  1.00  0.00    -0.522 C  
HETATM   14  N   UNL     1     -13.437  16.138  73.557  1.00  0.00    -0.858 NA 
HETATM   15  H1  UNL     1     -13.323  16.902  74.223  1.00  0.00     0.000 HD 
HETATM   16  H2  UNL     1     -13.656  15.264  74.034  1.00  0.00     0.000 HD 
ENDBRANCH  12  13
ENDBRANCH  10  12
ENDBRANCH   9  10
ENDBRANCH   8   9
ENDBRANCH   6   8
ENDBRANCH   5   6
ENDBRANCH   3   5
TORSDOF 7
ENDMDL
MODEL       22
REMARK 921   NORMALIZED FREE ENERGY PREDICTED BY IDOCK:   -3.38 KCAL/MOL
REMARK 922        TOTAL FREE ENERGY PREDICTED BY IDOCK:   -5.27 KCAL/MOL
REMARK 923 INTER-LIGAND FREE ENERGY PREDICTED BY IDOCK:   -5.19 KCAL/MOL
REMARK 924 INTRA-LIGAND FREE ENERGY PREDICTED BY IDOCK:   -0.08 KCAL/MOL
REMARK 927      BINDING AFFINITY PREDICTED BY RF-SCORE:    0.00 PKD
ROOT
HETATM    1  N   UNL     1     -11.296  16.222  64.136  1.00  0.00    -1.352 NA 
HETATM    2  H2  UNL     1     -12.231  15.837  63.998  1.00  0.00     0.000 HD 
HETATM    3  C   UNL     1     -10.910  16.174  65.549  1.00  0.00    -0.270 C  
HETATM    4  H1  UNL     1     -11.225  17.161  63.743  1.00  0.00     0.000 HD 
ENDROOT
BRANCH   3   5
HETATM    5  C   UNL     1     -11.018  14.758  66.142  1.00  0.00    -0.332 C  
BRANCH   5   6
HETATM    6  N   UNL     1     -10.654  14.740  67.563  1.00  0.00    -0.256 NA 
HETATM    7  H   UNL     1     -10.054  15.529  67.806  1.00  0.00     0.000 HD 
BRANCH   6   8
HETATM    8  C   UNL     1     -11.847  14.687  68.419  1.00  0.00    -0.295 C  
BRANCH   8   9
HETATM    9  C   UNL     1     -11.675  15.600  69.649  1.00  0.00    -0.361 C  
BRANCH   9  10
HETATM   10  N   UNL     1     -12.313  15.025  70.847  1.00  0.00    -0.306 NA 
HETATM   11  H   UNL     1     -11.940  14.102  71.072  1.00  0.00     0.000 HD 
BRANCH  10  12
HETATM   12  C   UNL     1     -12.197  15.957  71.981  1.00  0.00    -0.490 C  
BRANCH  12  13
HETATM   13  C   UNL     1     -13.338  15.755  72.995  1.00  0.00    -0.583 C  
HETATM   14  N   UNL     1     -12.968  16.186  74.348  1.00  0.00    -0.943 NA 
HETATM   15  H1  UNL     1     -13.723  16.052  75.020  1.00  0.00     0.000 HD 
HETATM   16  H2  UNL     1     -12.642  17.153  74.349  1.00  0.00     0.000 HD 
ENDBRANCH  12  13
ENDBRANCH  10  12
ENDBRANCH   9  10
ENDBRANCH   8   9
ENDBRANCH   6   8
ENDBRANCH   5   6
ENDBRANCH   3   5
TORSDOF 7
ENDMDL
MODEL       23
REMARK 921   NORMALIZED FREE ENERGY PREDICTED BY IDOCK:   -3.35 KCAL/MOL
REMARK 922        TOTAL FREE ENERGY PREDICTED BY IDOCK:   -5.23 KCAL/MOL
REMARK 923 INTER-LIGAND FREE ENERGY PREDICTED BY IDOCK:   -4.99 KCAL/MOL
REMARK 924 INTRA-LIGAND FREE ENERGY PREDICTED BY IDOCK:   -0.24 KCAL/MOL
REMARK 927      BINDING AFFINITY PREDICTED BY RF-SCORE:    0.00 PKD
ROOT
HETATM    1  N   UNL     1     -10.072  11.583  62.836  1.00  0.00    -0.636 NA 
HETATM    2  H2  UNL     1      -9.863  12.502  62.445  1.00  0.00     0.000 HD 
HETATM    3  C   UNL     1     -11.120  11.671  63.858  1.00  0.00    -0.401 C  
HETATM    4  H1  UNL     1      -9.226  11.131  63.182  1.00  0.00     0.000 HD 
ENDROOT
BRANCH   3   5
HETATM    5  C   UNL     1     -12.397  12.354  63.336  1.00  0.00    -0.499 C  
BRANCH   5   6
HETATM    6  N   UNL     1     -12.299  13.816  63.422  1.00  0.00    -1.100 NA 
HETATM    7  H   UNL     1     -13.037  14.273  62.886  1.00  0.00     0.000 HD 
BRANCH   6   8
HETATM    8  C   UNL     1     -12.290  14.268  64.820  1.00  0.00    -0.426 C  
BRANCH   8   9
HETATM    9  C   UNL     1     -11.125  15.247  65.067  1.00  0.00    -0.426 C  
BRANCH   9  10
HETATM   10  N   UNL     1      -9.925  14.551  65.566  1.00  0.00    -0.436 NA 
HETATM   11  H   UNL     1      -9.484  13.985  64.840  1.00  0.00     0.000 HD 
BRANCH  10  12
HETATM   12  C   UNL     1      -8.986  15.518  66.157  1.00  0.00    -0.294 C  
BRANCH  12  13
HETATM   13  C   UNL     1      -9.573  16.942  66.162  1.00  0.00    -0.254 C  
HETATM   14  N   UNL     1      -8.544  17.972  65.974  1.00  0.00    -0.517 NA 
HETATM   15  H1  UNL     1      -8.933  18.915  65.977  1.00  0.00     0.000 HD 
HETATM   16  H2  UNL     1      -8.004  17.800  65.126  1.00  0.00     0.000 HD 
ENDBRANCH  12  13
ENDBRANCH  10  12
ENDBRANCH   9  10
ENDBRANCH   8   9
ENDBRANCH   6   8
ENDBRANCH   5   6
ENDBRANCH   3   5
TORSDOF 7
ENDMDL
MODEL       24
REMARK 921   NORMALIZED FREE ENERGY PREDICTED BY IDOCK:   -3.34 KCAL/MOL
REMARK 922        TOTAL FREE ENERGY PREDICTED BY IDOCK:   -5.21 KCAL/MOL
REMARK 923 INTER-LIGAND FREE ENERGY PREDICTED BY IDOCK:   -5.11 KCAL/MOL
REMARK 924 INTRA-LIGAND FREE ENERGY PREDICTED BY IDOCK:   -0.11 KCAL/MOL
REMARK 927      BINDING AFFINITY PREDICTED BY RF-SCORE:    0.00 PKD
ROOT
HETATM    1  N   UNL     1     -13.160  12.223  64.374  1.00  0.00    -0.777 NA 
HETATM    2  H2  UNL     1     -13.358  12.993  65.014  1.00  0.00     0.000 HD 
HETATM    3  C   UNL     1     -11.894  12.438  63.668  1.00  0.00    -0.526 C  
HETATM    4  H1  UNL     1     -13.941  12.067  63.736  1.00  0.00     0.000 HD 
ENDROOT
BRANCH   3   5
HETATM    5  C   UNL     1     -10.715  12.674  64.630  1.00  0.00    -0.326 C  
BRANCH   5   6
HETATM    6  N   UNL     1     -10.124  14.003  64.439  1.00  0.00    -0.708 NA 
HETATM    7  H   UNL     1      -9.972  14.208  63.451  1.00  0.00     0.000 HD 
BRANCH   6   8
HETATM    8  C   UNL     1     -10.932  15.045  65.087  1.00  0.00    -0.406 C  
BRANCH   8   9
HETATM    9  C   UNL     1     -10.059  15.912  66.015  1.00  0.00    -0.337 C  
BRANCH   9  10
HETATM   10  N   UNL     1     -10.289  17.351  65.793  1.00  0.00    -0.590 NA 
HETATM   11  H   UNL     1     -11.175  17.526  65.317  1.00  0.00     0.000 HD 
BRANCH  10  12
HETATM   12  C   UNL     1     -10.194  18.083  67.066  1.00  0.00    -0.362 C  
BRANCH  12  13
HETATM   13  C   UNL     1     -10.732  19.521  66.930  1.00  0.00    -0.464 C  
HETATM   14  N   UNL     1     -10.019  20.290  65.904  1.00  0.00    -0.612 NA 
HETATM   15  H1  UNL     1     -10.374  21.241  65.814  1.00  0.00     0.000 HD 
HETATM   16  H2  UNL     1     -10.033  19.806  65.006  1.00  0.00     0.000 HD 
ENDBRANCH  12  13
ENDBRANCH  10  12
ENDBRANCH   9  10
ENDBRANCH   8   9
ENDBRANCH   6   8
ENDBRANCH   5   6
ENDBRANCH   3   5
TORSDOF 7
ENDMDL
MODEL       25
REMARK 921   NORMALIZED FREE ENERGY PREDICTED BY IDOCK:   -3.34 KCAL/MOL
REMARK 922        TOTAL FREE ENERGY PREDICTED BY IDOCK:   -5.21 KCAL/MOL
REMARK 923 INTER-LIGAND FREE ENERGY PREDICTED BY IDOCK:   -5.10 KCAL/MOL
REMARK 924 INTRA-LIGAND FREE ENERGY PREDICTED BY IDOCK:   -0.11 KCAL/MOL
REMARK 927      BINDING AFFINITY PREDICTED BY RF-SCORE:    0.00 PKD
ROOT
HETATM    1  N   UNL     1     -14.312  15.221  70.863  1.00  0.00    -0.819 NA 
HETATM    2  H2  UNL     1     -14.628  15.434  69.917  1.00  0.00     0.000 HD 
HETATM    3  C   UNL     1     -12.997  14.574  70.846  1.00  0.00    -0.361 C  
HETATM    4  H1  UNL     1     -15.010  14.674  71.368  1.00  0.00     0.000 HD 
ENDROOT
BRANCH   3   5
HETATM    5  C   UNL     1     -11.944  15.398  70.083  1.00  0.00    -0.349 C  
BRANCH   5   6
HETATM    6  N   UNL     1     -12.053  15.201  68.634  1.00  0.00    -0.586 NA 
HETATM    7  H   UNL     1     -11.386  15.781  68.125  1.00  0.00     0.000 HD 
BRANCH   6   8
HETATM    8  C   UNL     1     -11.916  13.782  68.276  1.00  0.00    -0.357 C  
BRANCH   8   9
HETATM    9  C   UNL     1     -11.623  13.626  66.771  1.00  0.00    -0.364 C  
BRANCH   9  10
HETATM   10  N   UNL     1     -12.225  12.398  66.223  1.00  0.00    -0.583 NA 
HETATM   11  H   UNL     1     -13.093  12.152  66.701  1.00  0.00     0.000 HD 
BRANCH  10  12
HETATM   12  C   UNL     1     -12.417  12.530  64.769  1.00  0.00    -0.457 C  
BRANCH  12  13
HETATM   13  C   UNL     1     -11.070  12.521  64.020  1.00  0.00    -0.397 C  
HETATM   14  N   UNL     1     -10.981  11.429  63.044  1.00  0.00    -0.825 NA 
HETATM   15  H1  UNL     1     -10.090  11.422  62.548  1.00  0.00     0.000 HD 
HETATM   16  H2  UNL     1     -11.765  11.454  62.392  1.00  0.00     0.000 HD 
ENDBRANCH  12  13
ENDBRANCH  10  12
ENDBRANCH   9  10
ENDBRANCH   8   9
ENDBRANCH   6   8
ENDBRANCH   5   6
ENDBRANCH   3   5
TORSDOF 7
ENDMDL
MODEL       26
REMARK 921   NORMALIZED FREE ENERGY PREDICTED BY IDOCK:   -3.32 KCAL/MOL
REMARK 922        TOTAL FREE ENERGY PREDICTED BY IDOCK:   -5.18 KCAL/MOL
REMARK 923 INTER-LIGAND FREE ENERGY PREDICTED BY IDOCK:   -5.01 KCAL/MOL
REMARK 924 INTRA-LIGAND FREE ENERGY PREDICTED BY IDOCK:   -0.17 KCAL/MOL
REMARK 927      BINDING AFFINITY PREDICTED BY RF-SCORE:    0.00 PKD
ROOT
HETATM    1  N   UNL     1      -8.180  20.966  66.946  1.00  0.00    -0.564 NA 
HETATM    2  H2  UNL     1      -8.399  21.830  67.441  1.00  0.00     0.000 HD 
HETATM    3  C   UNL     1      -8.467  19.794  67.778  1.00  0.00    -0.317 C  
HETATM    4  H1  UNL     1      -7.220  20.974  66.600  1.00  0.00     0.000 HD 
ENDROOT
BRANCH   3   5
HETATM    5  C   UNL     1      -9.915  19.782  68.300  1.00  0.00    -0.444 C  
BRANCH   5   6
HETATM    6  N   UNL     1     -10.276  18.473  68.857  1.00  0.00    -0.466 NA 
HETATM    7  H   UNL     1     -11.277  18.297  68.781  1.00  0.00     0.000 HD 
BRANCH   6   8
HETATM    8  C   UNL     1      -9.491  17.396  68.238  1.00  0.00    -0.290 C  
BRANCH   8   9
HETATM    9  C   UNL     1     -10.159  16.028  68.480  1.00  0.00    -0.233 C  
BRANCH   9  10
HETATM   10  N   UNL     1     -10.980  15.612  67.329  1.00  0.00    -0.302 NA 
HETATM   11  H   UNL     1     -11.939  15.954  67.402  1.00  0.00     0.000 HD 
BRANCH  10  12
HETATM   12  C   UNL     1     -10.341  16.030  66.071  1.00  0.00    -0.351 C  
BRANCH  12  13
HETATM   13  C   UNL     1     -11.054  15.422  64.848  1.00  0.00    -0.423 C  
HETATM   14  N   UNL     1     -11.483  16.443  63.885  1.00  0.00    -1.618 NA 
HETATM   15  H1  UNL     1     -11.955  16.041  63.076  1.00  0.00     0.000 HD 
HETATM   16  H2  UNL     1     -10.701  17.031  63.600  1.00  0.00     0.000 HD 
ENDBRANCH  12  13
ENDBRANCH  10  12
ENDBRANCH   9  10
ENDBRANCH   8   9
ENDBRANCH   6   8
ENDBRANCH   5   6
ENDBRANCH   3   5
TORSDOF 7
ENDMDL
MODEL       27
REMARK 921   NORMALIZED FREE ENERGY PREDICTED BY IDOCK:   -3.30 KCAL/MOL
REMARK 922        TOTAL FREE ENERGY PREDICTED BY IDOCK:   -5.16 KCAL/MOL
REMARK 923 INTER-LIGAND FREE ENERGY PREDICTED BY IDOCK:   -4.98 KCAL/MOL
REMARK 924 INTRA-LIGAND FREE ENERGY PREDICTED BY IDOCK:   -0.19 KCAL/MOL
REMARK 927      BINDING AFFINITY PREDICTED BY RF-SCORE:    0.00 PKD
ROOT
HETATM    1  N   UNL     1     -14.029   8.936  73.252  1.00  0.00    -1.217 NA 
HETATM    2  H2  UNL     1     -13.501   9.370  74.008  1.00  0.00     0.000 HD 
HETATM    3  C   UNL     1     -13.524   9.360  71.943  1.00  0.00    -0.426 C  
HETATM    4  H1  UNL     1     -15.029   9.106  73.358  1.00  0.00     0.000 HD 
ENDROOT
BRANCH   3   5
HETATM    5  C   UNL     1     -12.014   9.104  71.782  1.00  0.00    -0.379 C  
BRANCH   5   6
HETATM    6  N   UNL     1     -11.457   9.860  70.656  1.00  0.00    -0.308 NA 
HETATM    7  H   UNL     1     -11.505   9.329  69.787  1.00  0.00     0.000 HD 
BRANCH   6   8
HETATM    8  C   UNL     1     -12.105  11.172  70.522  1.00  0.00    -0.381 C  
BRANCH   8   9
HETATM    9  C   UNL     1     -11.663  11.867  69.218  1.00  0.00    -0.328 C  
BRANCH   9  10
HETATM   10  N   UNL     1     -12.052  11.089  68.028  1.00  0.00    -0.727 NA 
HETATM   11  H   UNL     1     -12.864  11.492  67.559  1.00  0.00     0.000 HD 
BRANCH  10  12
HETATM   12  C   UNL     1     -10.905  10.947  67.117  1.00  0.00    -0.280 C  
BRANCH  12  13
HETATM   13  C   UNL     1     -10.993  11.938  65.941  1.00  0.00    -0.307 C  
HETATM   14  N   UNL     1     -12.373  12.349  65.658  1.00  0.00    -0.621 NA 
HETATM   15  H1  UNL     1     -12.431  13.005  64.879  1.00  0.00     0.000 HD 
HETATM   16  H2  UNL     1     -12.822  12.727  66.492  1.00  0.00     0.000 HD 
ENDBRANCH  12  13
ENDBRANCH  10  12
ENDBRANCH   9  10
ENDBRANCH   8   9
ENDBRANCH   6   8
ENDBRANCH   5   6
ENDBRANCH   3   5
TORSDOF 7
ENDMDL
MODEL       28
REMARK 921   NORMALIZED FREE ENERGY PREDICTED BY IDOCK:   -3.30 KCAL/MOL
REMARK 922        TOTAL FREE ENERGY PREDICTED BY IDOCK:   -5.16 KCAL/MOL
REMARK 923 INTER-LIGAND FREE ENERGY PREDICTED BY IDOCK:   -5.13 KCAL/MOL
REMARK 924 INTRA-LIGAND FREE ENERGY PREDICTED BY IDOCK:   -0.02 KCAL/MOL
REMARK 927      BINDING AFFINITY PREDICTED BY RF-SCORE:    0.00 PKD
ROOT
HETATM    1  N   UNL     1      -7.817  10.790  65.150  1.00  0.00    -0.355 NA 
HETATM    2  H2  UNL     1      -7.708  11.694  64.691  1.00  0.00     0.000 HD 
HETATM    3  C   UNL     1      -9.079  10.152  64.765  1.00  0.00    -0.222 C  
HETATM    4  H1  UNL     1      -7.717  10.879  66.162  1.00  0.00     0.000 HD 
ENDROOT
BRANCH   3   5
HETATM    5  C   UNL     1      -9.231  10.018  63.239  1.00  0.00    -0.284 C  
BRANCH   5   6
HETATM    6  N   UNL     1     -10.334  10.843  62.734  1.00  0.00    -0.783 NA 
HETATM    7  H   UNL     1     -10.995  10.291  62.189  1.00  0.00     0.000 HD 
BRANCH   6   8
HETATM    8  C   UNL     1     -11.004  11.564  63.825  1.00  0.00    -0.409 C  
BRANCH   8   9
HETATM    9  C   UNL     1     -12.347  12.148  63.346  1.00  0.00    -0.538 C  
BRANCH   9  10
HETATM   10  N   UNL     1     -12.292  13.616  63.228  1.00  0.00    -1.080 NA 
HETATM   11  H   UNL     1     -13.184  14.007  62.920  1.00  0.00     0.000 HD 
BRANCH  10  12
HETATM   12  C   UNL     1     -11.839  14.211  64.495  1.00  0.00    -0.436 C  
BRANCH  12  13
HETATM   13  C   UNL     1     -12.777  13.841  65.659  1.00  0.00    -0.478 C  
HETATM   14  N   UNL     1     -12.371  14.461  66.925  1.00  0.00    -0.547 NA 
HETATM   15  H1  UNL     1     -12.992  14.216  67.696  1.00  0.00     0.000 HD 
HETATM   16  H2  UNL     1     -12.287  15.473  66.828  1.00  0.00     0.000 HD 
ENDBRANCH  12  13
ENDBRANCH  10  12
ENDBRANCH   9  10
ENDBRANCH   8   9
ENDBRANCH   6   8
ENDBRANCH   5   6
ENDBRANCH   3   5
TORSDOF 7
ENDMDL
MODEL       29
REMARK 921   NORMALIZED FREE ENERGY PREDICTED BY IDOCK:   -3.27 KCAL/MOL
REMARK 922        TOTAL FREE ENERGY PREDICTED BY IDOCK:   -5.11 KCAL/MOL
REMARK 923 INTER-LIGAND FREE ENERGY PREDICTED BY IDOCK:   -4.98 KCAL/MOL
REMARK 924 INTRA-LIGAND FREE ENERGY PREDICTED BY IDOCK:   -0.13 KCAL/MOL
REMARK 927      BINDING AFFINITY PREDICTED BY RF-SCORE:    0.00 PKD
ROOT
HETATM    1  N   UNL     1     -13.315   9.236  71.140  1.00  0.00    -0.544 NA 
HETATM    2  H2  UNL     1     -12.566   8.583  71.371  1.00  0.00     0.000 HD 
HETATM    3  C   UNL     1     -12.775  10.552  70.783  1.00  0.00    -0.381 C  
HETATM    4  H1  UNL     1     -14.002   9.287  71.892  1.00  0.00     0.000 HD 
ENDROOT
BRANCH   3   5
HETATM    5  C   UNL     1     -11.736  10.476  69.649  1.00  0.00    -0.256 C  
BRANCH   5   6
HETATM    6  N   UNL     1     -12.194  11.189  68.452  1.00  0.00    -0.726 NA 
HETATM    7  H   UNL     1     -13.207  11.309  68.452  1.00  0.00     0.000 HD 
BRANCH   6   8
HETATM    8  C   UNL     1     -11.498  12.473  68.296  1.00  0.00    -0.308 C  
BRANCH   8   9
HETATM    9  C   UNL     1     -10.964  12.632  66.859  1.00  0.00    -0.262 C  
BRANCH   9  10
HETATM   10  N   UNL     1     -11.925  12.127  65.863  1.00  0.00    -0.571 NA 
HETATM   11  H   UNL     1     -12.709  11.641  66.301  1.00  0.00     0.000 HD 
BRANCH  10  12
HETATM   12  C   UNL     1     -12.376  13.223  64.990  1.00  0.00    -0.448 C  
BRANCH  12  13
HETATM   13  C   UNL     1     -12.058  12.934  63.511  1.00  0.00    -0.555 C  
HETATM   14  N   UNL     1     -12.191  11.511  63.178  1.00  0.00    -0.932 NA 
HETATM   15  H1  UNL     1     -11.981  11.319  62.199  1.00  0.00     0.000 HD 
HETATM   16  H2  UNL     1     -13.115  11.159  63.431  1.00  0.00     0.000 HD 
ENDBRANCH  12  13
ENDBRANCH  10  12
ENDBRANCH   9  10
ENDBRANCH   8   9
ENDBRANCH   6   8
ENDBRANCH   5   6
ENDBRANCH   3   5
TORSDOF 7
ENDMDL
MODEL       30
REMARK 921   NORMALIZED FREE ENERGY PREDICTED BY IDOCK:   -3.27 KCAL/MOL
REMARK 922        TOTAL FREE ENERGY PREDICTED BY IDOCK:   -5.11 KCAL/MOL
REMARK 923 INTER-LIGAND FREE ENERGY PREDICTED BY IDOCK:   -4.93 KCAL/MOL
REMARK 924 INTRA-LIGAND FREE ENERGY PREDICTED BY IDOCK:   -0.18 KCAL/MOL
REMARK 927      BINDING AFFINITY PREDICTED BY RF-SCORE:    0.00 PKD
ROOT
HETATM    1  N   UNL     1     -12.410  13.960  63.262  1.00  0.00    -1.148 NA 
HETATM    2  H2  UNL     1     -11.878  14.315  62.468  1.00  0.00     0.000 HD 
HETATM    3  C   UNL     1     -12.152  12.534  63.475  1.00  0.00    -0.562 C  
HETATM    4  H1  UNL     1     -13.404  14.166  63.158  1.00  0.00     0.000 HD 
ENDROOT
BRANCH   3   5
HETATM    5  C   UNL     1     -10.652  12.223  63.632  1.00  0.00    -0.462 C  
BRANCH   5   6
HETATM    6  N   UNL     1     -10.013  13.125  64.596  1.00  0.00    -0.603 NA 
HETATM    7  H   UNL     1     -10.281  14.096  64.435  1.00  0.00     0.000 HD 
BRANCH   6   8
HETATM    8  C   UNL     1     -10.291  12.712  65.979  1.00  0.00    -0.270 C  
BRANCH   8   9
HETATM    9  C   UNL     1     -10.921  13.871  66.776  1.00  0.00    -0.299 C  
BRANCH   9  10
HETATM   10  N   UNL     1     -10.696  13.720  68.225  1.00  0.00    -0.246 NA 
HETATM   11  H   UNL     1     -10.189  14.515  68.617  1.00  0.00     0.000 HD 
BRANCH  10  12
HETATM   12  C   UNL     1     -11.975  13.488  68.916  1.00  0.00    -0.341 C  
BRANCH  12  13
HETATM   13  C   UNL     1     -12.045  14.263  70.246  1.00  0.00    -0.335 C  
HETATM   14  N   UNL     1     -12.944  15.420  70.172  1.00  0.00    -0.659 NA 
HETATM   15  H1  UNL     1     -12.991  15.933  71.052  1.00  0.00     0.000 HD 
HETATM   16  H2  UNL     1     -13.874  15.143  69.858  1.00  0.00     0.000 HD 
ENDBRANCH  12  13
ENDBRANCH  10  12
ENDBRANCH   9  10
ENDBRANCH   8   9
ENDBRANCH   6   8
ENDBRANCH   5   6
ENDBRANCH   3   5
TORSDOF 7
ENDMDL
MODEL       31
REMARK 921   NORMALIZED FREE ENERGY PREDICTED BY IDOCK:   -3.26 KCAL/MOL
REMARK 922        TOTAL FREE ENERGY PREDICTED BY IDOCK:   -5.10 KCAL/MOL
REMARK 923 INTER-LIGAND FREE ENERGY PREDICTED BY IDOCK:   -4.67 KCAL/MOL
REMARK 924 INTRA-LIGAND FREE ENERGY PREDICTED BY IDOCK:   -0.43 KCAL/MOL
REMARK 927      BINDING AFFINITY PREDICTED BY RF-SCORE:    0.00 PKD
ROOT
HETATM    1  N   UNL     1      -6.719  19.007  65.117  1.00  0.00    -0.493 NA 
HETATM    2  H2  UNL     1      -7.707  18.891  64.889  1.00  0.00     0.000 HD 
HETATM    3  C   UNL     1      -6.503  20.210  65.925  1.00  0.00    -0.220 C  
HETATM    4  H1  UNL     1      -6.145  18.993  64.274  1.00  0.00     0.000 HD 
ENDROOT
BRANCH   3   5
HETATM    5  C   UNL     1      -7.370  20.231  67.197  1.00  0.00    -0.288 C  
BRANCH   5   6
HETATM    6  N   UNL     1      -8.778  20.501  66.884  1.00  0.00    -0.549 NA 
HETATM    7  H   UNL     1      -8.949  20.477  65.879  1.00  0.00     0.000 HD 
BRANCH   6   8
HETATM    8  C   UNL     1      -9.671  19.584  67.606  1.00  0.00    -0.344 C  
BRANCH   8   9
HETATM    9  C   UNL     1     -10.415  18.662  66.620  1.00  0.00    -0.413 C  
BRANCH   9  10
HETATM   10  N   UNL     1      -9.481  17.823  65.848  1.00  0.00    -0.526 NA 
HETATM   11  H   UNL     1      -8.522  17.909  66.187  1.00  0.00     0.000 HD 
BRANCH  10  12
HETATM   12  C   UNL     1      -9.940  16.424  65.843  1.00  0.00    -0.332 C  
BRANCH  12  13
HETATM   13  C   UNL     1     -11.384  16.306  65.320  1.00  0.00     0.109 C  
HETATM   14  N   UNL     1     -11.466  16.460  63.863  1.00  0.00    -1.618 NA 
HETATM   15  H1  UNL     1     -12.422  16.382  63.517  1.00  0.00     0.000 HD 
HETATM   16  H2  UNL     1     -10.848  15.802  63.389  1.00  0.00     0.000 HD 
ENDBRANCH  12  13
ENDBRANCH  10  12
ENDBRANCH   9  10
ENDBRANCH   8   9
ENDBRANCH   6   8
ENDBRANCH   5   6
ENDBRANCH   3   5
TORSDOF 7
ENDMDL
MODEL       32
REMARK 921   NORMALIZED FREE ENERGY PREDICTED BY IDOCK:   -3.25 KCAL/MOL
REMARK 922        TOTAL FREE ENERGY PREDICTED BY IDOCK:   -5.09 KCAL/MOL
REMARK 923 INTER-LIGAND FREE ENERGY PREDICTED BY IDOCK:   -4.91 KCAL/MOL
REMARK 924 INTRA-LIGAND FREE ENERGY PREDICTED BY IDOCK:   -0.18 KCAL/MOL
REMARK 927      BINDING AFFINITY PREDICTED BY RF-SCORE:    0.00 PKD
ROOT
HETATM    1  N   UNL     1     -11.843  11.810  70.489  1.00  0.00    -0.500 NA 
HETATM    2  H2  UNL     1     -11.645  12.789  70.281  1.00  0.00     0.000 HD 
HETATM    3  C   UNL     1     -12.264  11.089  69.285  1.00  0.00    -0.210 C  
HETATM    4  H1  UNL     1     -12.517  11.727  71.250  1.00  0.00     0.000 HD 
ENDROOT
BRANCH   3   5
HETATM    5  C   UNL     1     -11.247  11.215  68.136  1.00  0.00    -0.292 C  
BRANCH   5   6
HETATM    6  N   UNL     1     -11.837  11.873  66.965  1.00  0.00    -0.613 NA 
HETATM    7  H   UNL     1     -11.931  12.879  67.108  1.00  0.00     0.000 HD 
BRANCH   6   8
HETATM    8  C   UNL     1     -11.079  11.571  65.744  1.00  0.00    -0.210 C  
BRANCH   8   9
HETATM    9  C   UNL     1     -10.190  12.765  65.345  1.00  0.00    -0.283 C  
BRANCH   9  10
HETATM   10  N   UNL     1     -10.390  13.147  63.936  1.00  0.00    -0.677 NA 
HETATM   11  H   UNL     1     -10.250  12.358  63.304  1.00  0.00     0.000 HD 
BRANCH  10  12
HETATM   12  C   UNL     1     -11.715  13.764  63.760  1.00  0.00    -0.180 C  
BRANCH  12  13
HETATM   13  C   UNL     1     -11.863  15.036  64.616  1.00  0.00    -0.375 C  
HETATM   14  N   UNL     1     -11.648  16.262  63.838  1.00  0.00    -1.573 NA 
HETATM   15  H1  UNL     1     -11.746  17.104  64.405  1.00  0.00     0.000 HD 
HETATM   16  H2  UNL     1     -12.263  16.293  63.025  1.00  0.00     0.000 HD 
ENDBRANCH  12  13
ENDBRANCH  10  12
ENDBRANCH   9  10
ENDBRANCH   8   9
ENDBRANCH   6   8
ENDBRANCH   5   6
ENDBRANCH   3   5
TORSDOF 7
ENDMDL
MODEL       33
REMARK 921   NORMALIZED FREE ENERGY PREDICTED BY IDOCK:   -3.25 KCAL/MOL
REMARK 922        TOTAL FREE ENERGY PREDICTED BY IDOCK:   -5.09 KCAL/MOL
REMARK 923 INTER-LIGAND FREE ENERGY PREDICTED BY IDOCK:   -4.43 KCAL/MOL
REMARK 924 INTRA-LIGAND FREE ENERGY PREDICTED BY IDOCK:   -0.66 KCAL/MOL
REMARK 927      BINDING AFFINITY PREDICTED BY RF-SCORE:    0.00 PKD
ROOT
HETATM    1  N   UNL     1     -10.058  11.502  64.691  1.00  0.00    -0.257 NA 
HETATM    2  H2  UNL     1     -10.559  10.661  64.978  1.00  0.00     0.000 HD 
HETATM    3  C   UNL     1     -10.554  11.996  63.403  1.00  0.00    -0.428 C  
HETATM    4  H1  UNL     1      -9.050  11.345  64.687  1.00  0.00     0.000 HD 
ENDROOT
BRANCH   3   5
HETATM    5  C   UNL     1     -12.075  12.232  63.408  1.00  0.00    -0.516 C  
BRANCH   5   6
HETATM    6  N   UNL     1     -12.399  13.657  63.278  1.00  0.00    -1.080 NA 
HETATM    7  H   UNL     1     -13.389  13.800  63.084  1.00  0.00     0.000 HD 
BRANCH   6   8
HETATM    8  C   UNL     1     -11.966  14.413  64.462  1.00  0.00    -0.472 C  
BRANCH   8   9
HETATM    9  C   UNL     1     -12.784  13.998  65.700  1.00  0.00    -0.481 C  
BRANCH   9  10
HETATM   10  N   UNL     1     -11.932  13.390  66.737  1.00  0.00    -0.396 NA 
HETATM   11  H   UNL     1     -11.207  12.795  66.334  1.00  0.00     0.000 HD 
BRANCH  10  12
HETATM   12  C   UNL     1     -11.366  14.435  67.607  1.00  0.00    -0.329 C  
BRANCH  12  13
HETATM   13  C   UNL     1      -9.932  14.085  68.047  1.00  0.00    -0.235 C  
HETATM   14  N   UNL     1      -9.141  13.496  66.960  1.00  0.00    -0.237 NA 
HETATM   15  H1  UNL     1      -8.191  13.265  67.251  1.00  0.00     0.000 HD 
HETATM   16  H2  UNL     1      -9.137  14.101  66.139  1.00  0.00     0.000 HD 
ENDBRANCH  12  13
ENDBRANCH  10  12
ENDBRANCH   9  10
ENDBRANCH   8   9
ENDBRANCH   6   8
ENDBRANCH   5   6
ENDBRANCH   3   5
TORSDOF 7
ENDMDL
MODEL       34
REMARK 921   NORMALIZED FREE ENERGY PREDICTED BY IDOCK:   -3.25 KCAL/MOL
REMARK 922        TOTAL FREE ENERGY PREDICTED BY IDOCK:   -5.09 KCAL/MOL
REMARK 923 INTER-LIGAND FREE ENERGY PREDICTED BY IDOCK:   -4.93 KCAL/MOL
REMARK 924 INTRA-LIGAND FREE ENERGY PREDICTED BY IDOCK:   -0.16 KCAL/MOL
REMARK 927      BINDING AFFINITY PREDICTED BY RF-SCORE:    0.00 PKD
ROOT
HETATM    1  N   UNL     1     -12.486  14.361  63.477  1.00  0.00    -1.090 NA 
HETATM    2  H2  UNL     1     -12.720  15.136  64.098  1.00  0.00     0.000 HD 
HETATM    3  C   UNL     1     -11.634  13.380  64.157  1.00  0.00    -0.398 C  
HETATM    4  H1  UNL     1     -12.073  14.700  62.608  1.00  0.00     0.000 HD 
ENDROOT
BRANCH   3   5
HETATM    5  C   UNL     1     -12.256  12.869  65.470  1.00  0.00    -0.474 C  
BRANCH   5   6
HETATM    6  N   UNL     1     -12.662  13.978  66.340  1.00  0.00    -0.477 NA 
HETATM    7  H   UNL     1     -13.600  13.837  66.713  1.00  0.00     0.000 HD 
BRANCH   6   8
HETATM    8  C   UNL     1     -11.683  14.200  67.413  1.00  0.00    -0.391 C  
BRANCH   8   9
HETATM    9  C   UNL     1     -11.837  13.136  68.518  1.00  0.00    -0.342 C  
BRANCH   9  10
HETATM   10  N   UNL     1     -11.639  13.712  69.860  1.00  0.00    -0.434 NA 
HETATM   11  H   UNL     1     -10.669  13.635  70.169  1.00  0.00     0.000 HD 
BRANCH  10  12
HETATM   12  C   UNL     1     -12.116  15.105  69.891  1.00  0.00    -0.336 C  
BRANCH  12  13
HETATM   13  C   UNL     1     -13.114  15.332  71.043  1.00  0.00    -0.482 C  
HETATM   14  N   UNL     1     -12.579  16.224  72.078  1.00  0.00    -0.505 NA 
HETATM   15  H1  UNL     1     -13.239  16.375  72.841  1.00  0.00     0.000 HD 
HETATM   16  H2  UNL     1     -12.271  17.110  71.677  1.00  0.00     0.000 HD 
ENDBRANCH  12  13
ENDBRANCH  10  12
ENDBRANCH   9  10
ENDBRANCH   8   9
ENDBRANCH   6   8
ENDBRANCH   5   6
ENDBRANCH   3   5
TORSDOF 7
ENDMDL
MODEL       35
REMARK 921   NORMALIZED FREE ENERGY PREDICTED BY IDOCK:   -3.24 KCAL/MOL
REMARK 922        TOTAL FREE ENERGY PREDICTED BY IDOCK:   -5.07 KCAL/MOL
REMARK 923 INTER-LIGAND FREE ENERGY PREDICTED BY IDOCK:   -4.82 KCAL/MOL
REMARK 924 INTRA-LIGAND FREE ENERGY PREDICTED BY IDOCK:   -0.25 KCAL/MOL
REMARK 927      BINDING AFFINITY PREDICTED BY RF-SCORE:    0.00 PKD
ROOT
HETATM    1  N   UNL     1      -9.044   9.380  63.511  1.00  0.00    -0.420 NA 
HETATM    2  H2  UNL     1      -8.465   9.673  62.723  1.00  0.00     0.000 HD 
HETATM    3  C   UNL     1      -9.452  10.530  64.322  1.00  0.00    -0.285 C  
HETATM    4  H1  UNL     1      -8.576   8.659  64.061  1.00  0.00     0.000 HD 
ENDROOT
BRANCH   3   5
HETATM    5  C   UNL     1     -10.156  11.618  63.491  1.00  0.00    -0.425 C  
BRANCH   5   6
HETATM    6  N   UNL     1     -11.480  11.176  63.038  1.00  0.00    -0.708 NA 
HETATM    7  H   UNL     1     -11.713  10.254  63.406  1.00  0.00     0.000 HD 
BRANCH   6   8
HETATM    8  C   UNL     1     -12.515  12.166  63.367  1.00  0.00    -0.512 C  
BRANCH   8   9
HETATM    9  C   UNL     1     -11.940  13.272  64.273  1.00  0.00    -0.421 C  
BRANCH   9  10
HETATM   10  N   UNL     1     -12.893  13.663  65.327  1.00  0.00    -0.723 NA 
HETATM   11  H   UNL     1     -13.615  12.956  65.469  1.00  0.00     0.000 HD 
BRANCH  10  12
HETATM   12  C   UNL     1     -12.173  13.973  66.573  1.00  0.00    -0.451 C  
BRANCH  12  13
HETATM   13  C   UNL     1     -11.350  12.767  67.063  1.00  0.00    -0.314 C  
HETATM   14  N   UNL     1     -12.146  11.837  67.873  1.00  0.00    -0.559 NA 
HETATM   15  H1  UNL     1     -11.602  11.039  68.197  1.00  0.00     0.000 HD 
HETATM   16  H2  UNL     1     -12.980  11.534  67.370  1.00  0.00     0.000 HD 
ENDBRANCH  12  13
ENDBRANCH  10  12
ENDBRANCH   9  10
ENDBRANCH   8   9
ENDBRANCH   6   8
ENDBRANCH   5   6
ENDBRANCH   3   5
TORSDOF 7
ENDMDL
MODEL       36
REMARK 921   NORMALIZED FREE ENERGY PREDICTED BY IDOCK:   -3.23 KCAL/MOL
REMARK 922        TOTAL FREE ENERGY PREDICTED BY IDOCK:   -5.05 KCAL/MOL
REMARK 923 INTER-LIGAND FREE ENERGY PREDICTED BY IDOCK:   -4.85 KCAL/MOL
REMARK 924 INTRA-LIGAND FREE ENERGY PREDICTED BY IDOCK:   -0.20 KCAL/MOL
REMARK 927      BINDING AFFINITY PREDICTED BY RF-SCORE:    0.00 PKD
ROOT
HETATM    1  N   UNL     1     -12.521  13.634  63.001  1.00  0.00    -0.973 NA 
HETATM    2  H2  UNL     1     -12.031  14.483  63.283  1.00  0.00     0.000 HD 
HETATM    3  C   UNL     1     -12.241  12.532  63.926  1.00  0.00    -0.503 C  
HETATM    4  H1  UNL     1     -12.309  13.394  62.032  1.00  0.00     0.000 HD 
ENDROOT
BRANCH   3   5
HETATM    5  C   UNL     1     -12.560  12.893  65.388  1.00  0.00    -0.378 C  
BRANCH   5   6
HETATM    6  N   UNL     1     -11.832  12.031  66.326  1.00  0.00    -0.574 NA 
HETATM    7  H   UNL     1     -10.985  11.651  65.906  1.00  0.00     0.000 HD 
BRANCH   6   8
HETATM    8  C   UNL     1     -11.541  12.736  67.583  1.00  0.00    -0.358 C  
BRANCH   8   9
HETATM    9  C   UNL     1     -11.617  14.262  67.380  1.00  0.00    -0.369 C  
BRANCH   9  10
HETATM   10  N   UNL     1     -12.266  14.932  68.521  1.00  0.00    -0.597 NA 
HETATM   11  H   UNL     1     -12.477  14.278  69.276  1.00  0.00     0.000 HD 
BRANCH  10  12
HETATM   12  C   UNL     1     -11.443  16.061  68.984  1.00  0.00    -0.360 C  
BRANCH  12  13
HETATM   13  C   UNL     1     -10.538  16.597  67.858  1.00  0.00    -0.342 C  
HETATM   14  N   UNL     1     -10.703  18.040  67.647  1.00  0.00    -0.398 NA 
HETATM   15  H1  UNL     1     -10.104  18.395  66.902  1.00  0.00     0.000 HD 
HETATM   16  H2  UNL     1     -10.557  18.557  68.514  1.00  0.00     0.000 HD 
ENDBRANCH  12  13
ENDBRANCH  10  12
ENDBRANCH   9  10
ENDBRANCH   8   9
ENDBRANCH   6   8
ENDBRANCH   5   6
ENDBRANCH   3   5
TORSDOF 7
ENDMDL
MODEL       37
REMARK 921   NORMALIZED FREE ENERGY PREDICTED BY IDOCK:   -3.21 KCAL/MOL
REMARK 922        TOTAL FREE ENERGY PREDICTED BY IDOCK:   -5.03 KCAL/MOL
REMARK 923 INTER-LIGAND FREE ENERGY PREDICTED BY IDOCK:   -4.86 KCAL/MOL
REMARK 924 INTRA-LIGAND FREE ENERGY PREDICTED BY IDOCK:   -0.17 KCAL/MOL
REMARK 927      BINDING AFFINITY PREDICTED BY RF-SCORE:    0.00 PKD
ROOT
HETATM    1  N   UNL     1     -11.586  14.250  70.518  1.00  0.00    -0.472 NA 
HETATM    2  H2  UNL     1     -10.860  13.707  70.050  1.00  0.00     0.000 HD 
HETATM    3  C   UNL     1     -11.556  15.651  70.087  1.00  0.00    -0.354 C  
HETATM    4  H1  UNL     1     -11.522  14.151  71.531  1.00  0.00     0.000 HD 
ENDROOT
BRANCH   3   5
HETATM    5  C   UNL     1     -11.652  15.800  68.558  1.00  0.00    -0.362 C  
BRANCH   5   6
HETATM    6  N   UNL     1     -12.333  14.653  67.947  1.00  0.00    -0.588 NA 
HETATM    7  H   UNL     1     -13.208  14.930  67.503  1.00  0.00     0.000 HD 
BRANCH   6   8
HETATM    8  C   UNL     1     -11.451  13.947  67.007  1.00  0.00    -0.346 C  
BRANCH   8   9
HETATM    9  C   UNL     1     -10.745  14.946  66.070  1.00  0.00    -0.323 C  
BRANCH   9  10
HETATM   10  N   UNL     1     -10.768  14.489  64.669  1.00  0.00    -0.599 NA 
HETATM   11  H   UNL     1      -9.858  14.137  64.368  1.00  0.00     0.000 HD 
BRANCH  10  12
HETATM   12  C   UNL     1     -11.834  13.492  64.478  1.00  0.00    -0.405 C  
BRANCH  12  13
HETATM   13  C   UNL     1     -11.388  12.366  63.525  1.00  0.00    -0.476 C  
HETATM   14  N   UNL     1     -12.521  11.593  63.003  1.00  0.00    -0.937 NA 
HETATM   15  H1  UNL     1     -12.226  10.848  62.373  1.00  0.00     0.000 HD 
HETATM   16  H2  UNL     1     -13.207  12.202  62.557  1.00  0.00     0.000 HD 
ENDBRANCH  12  13
ENDBRANCH  10  12
ENDBRANCH   9  10
ENDBRANCH   8   9
ENDBRANCH   6   8
ENDBRANCH   5   6
ENDBRANCH   3   5
TORSDOF 7
ENDMDL
MODEL       38
REMARK 921   NORMALIZED FREE ENERGY PREDICTED BY IDOCK:   -3.21 KCAL/MOL
REMARK 922        TOTAL FREE ENERGY PREDICTED BY IDOCK:   -5.02 KCAL/MOL
REMARK 923 INTER-LIGAND FREE ENERGY PREDICTED BY IDOCK:   -4.60 KCAL/MOL
REMARK 924 INTRA-LIGAND FREE ENERGY PREDICTED BY IDOCK:   -0.42 KCAL/MOL
REMARK 927      BINDING AFFINITY PREDICTED BY RF-SCORE:    0.00 PKD
ROOT
HETATM    1  N   UNL     1     -11.663  16.292  63.757  1.00  0.00    -1.488 NA 
HETATM    2  H2  UNL     1     -12.601  16.022  63.460  1.00  0.00     0.000 HD 
HETATM    3  C   UNL     1     -11.228  15.501  64.912  1.00  0.00    -0.389 C  
HETATM    4  H1  UNL     1     -11.607  17.296  63.927  1.00  0.00     0.000 HD 
ENDROOT
BRANCH   3   5
HETATM    5  C   UNL     1     -11.313  13.986  64.655  1.00  0.00    -0.375 C  
BRANCH   5   6
HETATM    6  N   UNL     1      -9.985  13.361  64.676  1.00  0.00    -0.629 NA 
HETATM    7  H   UNL     1      -9.257  14.021  64.406  1.00  0.00     0.000 HD 
BRANCH   6   8
HETATM    8  C   UNL     1      -9.703  12.751  65.983  1.00  0.00    -0.224 C  
BRANCH   8   9
HETATM    9  C   UNL     1      -9.569  11.221  65.851  1.00  0.00    -0.221 C  
BRANCH   9  10
HETATM   10  N   UNL     1      -8.561  10.848  64.843  1.00  0.00    -0.351 NA 
HETATM   11  H   UNL     1      -7.696  10.516  65.273  1.00  0.00     0.000 HD 
BRANCH  10  12
HETATM   12  C   UNL     1      -9.122   9.862  63.904  1.00  0.00    -0.259 C  
BRANCH  12  13
HETATM   13  C   UNL     1      -9.044  10.362  62.449  1.00  0.00    -0.286 C  
HETATM   14  N   UNL     1      -9.122  11.824  62.355  1.00  0.00    -0.378 NA 
HETATM   15  H1  UNL     1      -9.071  12.156  61.392  1.00  0.00     0.000 HD 
HETATM   16  H2  UNL     1      -8.410  12.268  62.935  1.00  0.00     0.000 HD 
ENDBRANCH  12  13
ENDBRANCH  10  12
ENDBRANCH   9  10
ENDBRANCH   8   9
ENDBRANCH   6   8
ENDBRANCH   5   6
ENDBRANCH   3   5
TORSDOF 7
ENDMDL
MODEL       39
REMARK 921   NORMALIZED FREE ENERGY PREDICTED BY IDOCK:   -3.19 KCAL/MOL
REMARK 922        TOTAL FREE ENERGY PREDICTED BY IDOCK:   -5.00 KCAL/MOL
REMARK 923 INTER-LIGAND FREE ENERGY PREDICTED BY IDOCK:   -4.64 KCAL/MOL
REMARK 924 INTRA-LIGAND FREE ENERGY PREDICTED BY IDOCK:   -0.36 KCAL/MOL
REMARK 927      BINDING AFFINITY PREDICTED BY RF-SCORE:    0.00 PKD
ROOT
HETATM    1  N   UNL     1     -14.167   8.773  73.084  1.00  0.00    -1.172 NA 
HETATM    2  H2  UNL     1     -13.671   8.655  73.968  1.00  0.00     0.000 HD 
HETATM    3  C   UNL     1     -13.410   9.627  72.164  1.00  0.00    -0.454 C  
HETATM    4  H1  UNL     1     -15.117   9.113  73.240  1.00  0.00     0.000 HD 
ENDROOT
BRANCH   3   5
HETATM    5  C   UNL     1     -11.977   9.115  71.930  1.00  0.00    -0.373 C  
BRANCH   5   6
HETATM    6  N   UNL     1     -11.806   8.597  70.568  1.00  0.00    -0.474 NA 
HETATM    7  H   UNL     1     -11.609   9.345  69.905  1.00  0.00     0.000 HD 
BRANCH   6   8
HETATM    8  C   UNL     1     -10.777   7.549  70.521  1.00  0.00    -0.235 C  
BRANCH   8   9
HETATM    9  C   UNL     1     -11.299   6.308  69.769  1.00  0.00    -0.436 C  
BRANCH   9  10
HETATM   10  N   UNL     1     -11.291   6.512  68.310  1.00  0.00    -0.545 NA 
HETATM   11  H   UNL     1     -12.136   6.985  67.987  1.00  0.00     0.000 HD 
BRANCH  10  12
HETATM   12  C   UNL     1     -10.070   7.227  67.903  1.00  0.00    -0.177 C  
BRANCH  12  13
HETATM   13  C   UNL     1     -10.390   8.377  66.928  1.00  0.00    -0.307 C  
HETATM   14  N   UNL     1     -11.061   9.502  67.590  1.00  0.00    -0.462 NA 
HETATM   15  H1  UNL     1     -11.272  10.263  66.945  1.00  0.00     0.000 HD 
HETATM   16  H2  UNL     1     -10.519   9.835  68.388  1.00  0.00     0.000 HD 
ENDBRANCH  12  13
ENDBRANCH  10  12
ENDBRANCH   9  10
ENDBRANCH   8   9
ENDBRANCH   6   8
ENDBRANCH   5   6
ENDBRANCH   3   5
TORSDOF 7
ENDMDL
MODEL       40
REMARK 921   NORMALIZED FREE ENERGY PREDICTED BY IDOCK:   -3.18 KCAL/MOL
REMARK 922        TOTAL FREE ENERGY PREDICTED BY IDOCK:   -4.99 KCAL/MOL
REMARK 923 INTER-LIGAND FREE ENERGY PREDICTED BY IDOCK:   -4.48 KCAL/MOL
REMARK 924 INTRA-LIGAND FREE ENERGY PREDICTED BY IDOCK:   -0.51 KCAL/MOL
REMARK 927      BINDING AFFINITY PREDICTED BY RF-SCORE:    0.00 PKD
ROOT
HETATM    1  N   UNL     1      -9.995   9.816  65.077  1.00  0.00    -0.403 NA 
HETATM    2  H2  UNL     1     -10.939   9.613  64.748  1.00  0.00     0.000 HD 
HETATM    3  C   UNL     1      -9.098  10.108  63.956  1.00  0.00    -0.254 C  
HETATM    4  H1  UNL     1      -9.645   9.064  65.672  1.00  0.00     0.000 HD 
ENDROOT
BRANCH   3   5
HETATM    5  C   UNL     1      -9.626  11.242  63.058  1.00  0.00    -0.377 C  
BRANCH   5   6
HETATM    6  N   UNL     1     -10.143  12.361  63.852  1.00  0.00    -0.555 NA 
HETATM    7  H   UNL     1      -9.583  13.203  63.721  1.00  0.00     0.000 HD 
BRANCH   6   8
HETATM    8  C   UNL     1     -11.563  12.608  63.567  1.00  0.00    -0.514 C  
BRANCH   8   9
HETATM    9  C   UNL     1     -12.334  12.915  64.866  1.00  0.00    -0.475 C  
BRANCH   9  10
HETATM   10  N   UNL     1     -11.937  12.013  65.961  1.00  0.00    -0.535 NA 
HETATM   11  H   UNL     1     -11.098  11.479  65.730  1.00  0.00     0.000 HD 
BRANCH  10  12
HETATM   12  C   UNL     1     -11.780  12.771  67.213  1.00  0.00    -0.378 C  
BRANCH  12  13
HETATM   13  C   UNL     1     -12.028  14.276  66.995  1.00  0.00    -0.433 C  
HETATM   14  N   UNL     1     -12.256  14.994  68.255  1.00  0.00    -0.556 NA 
HETATM   15  H1  UNL     1     -12.421  15.990  68.111  1.00  0.00     0.000 HD 
HETATM   16  H2  UNL     1     -11.490  14.838  68.910  1.00  0.00     0.000 HD 
ENDBRANCH  12  13
ENDBRANCH  10  12
ENDBRANCH   9  10
ENDBRANCH   8   9
ENDBRANCH   6   8
ENDBRANCH   5   6
ENDBRANCH   3   5
TORSDOF 7
ENDMDL
MODEL       41
REMARK 921   NORMALIZED FREE ENERGY PREDICTED BY IDOCK:   -3.18 KCAL/MOL
REMARK 922        TOTAL FREE ENERGY PREDICTED BY IDOCK:   -4.98 KCAL/MOL
REMARK 923 INTER-LIGAND FREE ENERGY PREDICTED BY IDOCK:   -4.61 KCAL/MOL
REMARK 924 INTRA-LIGAND FREE ENERGY PREDICTED BY IDOCK:   -0.37 KCAL/MOL
REMARK 927      BINDING AFFINITY PREDICTED BY RF-SCORE:    0.00 PKD
ROOT
HETATM    1  N   UNL     1     -11.815  12.735  70.283  1.00  0.00    -0.537 NA 
HETATM    2  H2  UNL     1     -11.565  13.022  69.336  1.00  0.00     0.000 HD 
HETATM    3  C   UNL     1     -12.310  11.356  70.303  1.00  0.00    -0.297 C  
HETATM    4  H1  UNL     1     -12.472  13.393  70.703  1.00  0.00     0.000 HD 
ENDROOT
BRANCH   3   5
HETATM    5  C   UNL     1     -11.319  10.364  69.668  1.00  0.00    -0.272 C  
BRANCH   5   6
HETATM    6  N   UNL     1     -11.572  10.194  68.233  1.00  0.00    -0.663 NA 
HETATM    7  H   UNL     1     -12.446  10.638  67.952  1.00  0.00     0.000 HD 
BRANCH   6   8
HETATM    8  C   UNL     1     -10.440  10.677  67.430  1.00  0.00    -0.235 C  
BRANCH   8   9
HETATM    9  C   UNL     1     -10.734  12.079  66.863  1.00  0.00    -0.244 C  
BRANCH   9  10
HETATM   10  N   UNL     1     -12.179  12.367  66.845  1.00  0.00    -0.454 NA 
HETATM   11  H   UNL     1     -12.554  12.497  67.786  1.00  0.00     0.000 HD 
BRANCH  10  12
HETATM   12  C   UNL     1     -12.456  13.525  65.978  1.00  0.00    -0.399 C  
BRANCH  12  13
HETATM   13  C   UNL     1     -12.254  13.176  64.491  1.00  0.00    -0.406 C  
HETATM   14  N   UNL     1     -12.407  14.344  63.617  1.00  0.00    -1.106 NA 
HETATM   15  H1  UNL     1     -12.273  14.114  62.633  1.00  0.00     0.000 HD 
HETATM   16  H2  UNL     1     -11.788  15.102  63.905  1.00  0.00     0.000 HD 
ENDBRANCH  12  13
ENDBRANCH  10  12
ENDBRANCH   9  10
ENDBRANCH   8   9
ENDBRANCH   6   8
ENDBRANCH   5   6
ENDBRANCH   3   5
TORSDOF 7
ENDMDL
MODEL       42
REMARK 921   NORMALIZED FREE ENERGY PREDICTED BY IDOCK:   -3.15 KCAL/MOL
REMARK 922        TOTAL FREE ENERGY PREDICTED BY IDOCK:   -4.94 KCAL/MOL
REMARK 923 INTER-LIGAND FREE ENERGY PREDICTED BY IDOCK:   -4.70 KCAL/MOL
REMARK 924 INTRA-LIGAND FREE ENERGY PREDICTED BY IDOCK:   -0.24 KCAL/MOL
REMARK 927      BINDING AFFINITY PREDICTED BY RF-SCORE:    0.00 PKD
ROOT
HETATM    1  N   UNL     1     -12.405  14.066  63.229  1.00  0.00    -1.145 NA 
HETATM    2  H2  UNL     1     -12.429  13.668  62.290  1.00  0.00     0.000 HD 
HETATM    3  C   UNL     1     -11.997  13.062  64.216  1.00  0.00    -0.402 C  
HETATM    4  H1  UNL     1     -13.295  14.505  63.463  1.00  0.00     0.000 HD 
ENDROOT
BRANCH   3   5
HETATM    5  C   UNL     1     -10.654  12.398  63.862  1.00  0.00    -0.437 C  
BRANCH   5   6
HETATM    6  N   UNL     1      -9.681  12.540  64.950  1.00  0.00    -0.484 NA 
HETATM    7  H   UNL     1      -8.867  13.079  64.656  1.00  0.00     0.000 HD 
BRANCH   6   8
HETATM    8  C   UNL     1     -10.303  13.113  66.151  1.00  0.00    -0.284 C  
BRANCH   8   9
HETATM    9  C   UNL     1      -9.287  13.183  67.309  1.00  0.00    -0.225 C  
BRANCH   9  10
HETATM   10  N   UNL     1      -9.838  12.615  68.552  1.00  0.00    -0.359 NA 
HETATM   11  H   UNL     1      -9.363  12.977  69.380  1.00  0.00     0.000 HD 
BRANCH  10  12
HETATM   12  C   UNL     1     -11.292  12.836  68.611  1.00  0.00    -0.294 C  
BRANCH  12  13
HETATM   13  C   UNL     1     -12.030  11.593  69.144  1.00  0.00    -0.313 C  
HETATM   14  N   UNL     1     -11.878  10.431  68.261  1.00  0.00    -0.760 NA 
HETATM   15  H1  UNL     1     -12.366   9.608  68.614  1.00  0.00     0.000 HD 
HETATM   16  H2  UNL     1     -10.894  10.228  68.087  1.00  0.00     0.000 HD 
ENDBRANCH  12  13
ENDBRANCH  10  12
ENDBRANCH   9  10
ENDBRANCH   8   9
ENDBRANCH   6   8
ENDBRANCH   5   6
ENDBRANCH   3   5
TORSDOF 7
ENDMDL
MODEL       43
REMARK 921   NORMALIZED FREE ENERGY PREDICTED BY IDOCK:   -3.15 KCAL/MOL
REMARK 922        TOTAL FREE ENERGY PREDICTED BY IDOCK:   -4.94 KCAL/MOL
REMARK 923 INTER-LIGAND FREE ENERGY PREDICTED BY IDOCK:   -4.57 KCAL/MOL
REMARK 924 INTRA-LIGAND FREE ENERGY PREDICTED BY IDOCK:   -0.37 KCAL/MOL
REMARK 927      BINDING AFFINITY PREDICTED BY RF-SCORE:    0.00 PKD
ROOT
HETATM    1  N   UNL     1     -14.342   8.901  72.982  1.00  0.00    -1.154 NA 
HETATM    2  H2  UNL     1     -13.754   9.730  73.069  1.00  0.00     0.000 HD 
HETATM    3  C   UNL     1     -14.089   8.207  71.715  1.00  0.00    -0.439 C  
HETATM    4  H1  UNL     1     -15.326   9.134  73.109  1.00  0.00     0.000 HD 
ENDROOT
BRANCH   3   5
HETATM    5  C   UNL     1     -12.602   7.856  71.522  1.00  0.00    -0.321 C  
BRANCH   5   6
HETATM    6  N   UNL     1     -12.398   7.015  70.337  1.00  0.00    -0.618 NA 
HETATM    7  H   UNL     1     -12.951   7.343  69.546  1.00  0.00     0.000 HD 
BRANCH   6   8
HETATM    8  C   UNL     1     -10.973   6.913  69.994  1.00  0.00    -0.279 C  
BRANCH   8   9
HETATM    9  C   UNL     1     -10.770   7.036  68.471  1.00  0.00    -0.179 C  
BRANCH   9  10
HETATM   10  N   UNL     1     -11.003   8.413  68.000  1.00  0.00    -0.464 NA 
HETATM   11  H   UNL     1     -11.984   8.683  68.084  1.00  0.00     0.000 HD 
BRANCH  10  12
HETATM   12  C   UNL     1     -10.113   9.349  68.705  1.00  0.00    -0.193 C  
BRANCH  12  13
HETATM   13  C   UNL     1     -10.884  10.578  69.224  1.00  0.00    -0.243 C  
HETATM   14  N   UNL     1     -12.336  10.370  69.220  1.00  0.00    -0.682 NA 
HETATM   15  H1  UNL     1     -12.847  11.183  69.563  1.00  0.00     0.000 HD 
HETATM   16  H2  UNL     1     -12.588   9.531  69.741  1.00  0.00     0.000 HD 
ENDBRANCH  12  13
ENDBRANCH  10  12
ENDBRANCH   9  10
ENDBRANCH   8   9
ENDBRANCH   6   8
ENDBRANCH   5   6
ENDBRANCH   3   5
TORSDOF 7
ENDMDL
MODEL       44
REMARK 921   NORMALIZED FREE ENERGY PREDICTED BY IDOCK:   -3.14 KCAL/MOL
REMARK 922        TOTAL FREE ENERGY PREDICTED BY IDOCK:   -4.93 KCAL/MOL
REMARK 923 INTER-LIGAND FREE ENERGY PREDICTED BY IDOCK:   -4.72 KCAL/MOL
REMARK 924 INTRA-LIGAND FREE ENERGY PREDICTED BY IDOCK:   -0.21 KCAL/MOL
REMARK 927      BINDING AFFINITY PREDICTED BY RF-SCORE:    0.00 PKD
ROOT
HETATM    1  N   UNL     1     -10.517  11.330  62.893  1.00  0.00    -0.743 NA 
HETATM    2  H2  UNL     1     -11.251  11.572  62.228  1.00  0.00     0.000 HD 
HETATM    3  C   UNL     1     -10.571  12.195  64.076  1.00  0.00    -0.389 C  
HETATM    4  H1  UNL     1      -9.600  11.337  62.446  1.00  0.00     0.000 HD 
ENDROOT
BRANCH   3   5
HETATM    5  C   UNL     1     -11.955  12.185  64.751  1.00  0.00    -0.307 C  
BRANCH   5   6
HETATM    6  N   UNL     1     -11.840  12.186  66.213  1.00  0.00    -0.594 NA 
HETATM    7  H   UNL     1     -12.684  11.825  66.656  1.00  0.00     0.000 HD 
BRANCH   6   8
HETATM    8  C   UNL     1     -10.644  11.455  66.655  1.00  0.00    -0.258 C  
BRANCH   8   9
HETATM    9  C   UNL     1     -11.008  10.422  67.740  1.00  0.00    -0.309 C  
BRANCH   9  10
HETATM   10  N   UNL     1     -12.199  10.833  68.505  1.00  0.00    -0.822 NA 
HETATM   11  H   UNL     1     -12.906  10.098  68.535  1.00  0.00     0.000 HD 
BRANCH  10  12
HETATM   12  C   UNL     1     -11.808  11.276  69.854  1.00  0.00    -0.360 C  
BRANCH  12  13
HETATM   13  C   UNL     1     -11.855  10.113  70.864  1.00  0.00    -0.374 C  
HETATM   14  N   UNL     1     -13.171   9.465  70.909  1.00  0.00    -0.566 NA 
HETATM   15  H1  UNL     1     -13.203   8.695  71.577  1.00  0.00     0.000 HD 
HETATM   16  H2  UNL     1     -13.461   9.158  69.981  1.00  0.00     0.000 HD 
ENDBRANCH  12  13
ENDBRANCH  10  12
ENDBRANCH   9  10
ENDBRANCH   8   9
ENDBRANCH   6   8
ENDBRANCH   5   6
ENDBRANCH   3   5
TORSDOF 7
ENDMDL
MODEL       45
REMARK 921   NORMALIZED FREE ENERGY PREDICTED BY IDOCK:   -3.12 KCAL/MOL
REMARK 922        TOTAL FREE ENERGY PREDICTED BY IDOCK:   -4.91 KCAL/MOL
REMARK 923 INTER-LIGAND FREE ENERGY PREDICTED BY IDOCK:   -4.74 KCAL/MOL
REMARK 924 INTRA-LIGAND FREE ENERGY PREDICTED BY IDOCK:   -0.17 KCAL/MOL
REMARK 927      BINDING AFFINITY PREDICTED BY RF-SCORE:    0.00 PKD
ROOT
HETATM    1  N   UNL     1     -10.147   9.194  65.755  1.00  0.00    -0.380 NA 
HETATM    2  H2  UNL     1     -11.058   9.333  65.317  1.00  0.00     0.000 HD 
HETATM    3  C   UNL     1      -9.713  10.403  66.461  1.00  0.00    -0.194 C  
HETATM    4  H1  UNL     1      -9.460   8.870  65.075  1.00  0.00     0.000 HD 
ENDROOT
BRANCH   3   5
HETATM    5  C   UNL     1     -10.751  10.892  67.487  1.00  0.00    -0.252 C  
BRANCH   5   6
HETATM    6  N   UNL     1     -11.790  11.711  66.852  1.00  0.00    -0.547 NA 
HETATM    7  H   UNL     1     -12.688  11.227  66.833  1.00  0.00     0.000 HD 
BRANCH   6   8
HETATM    8  C   UNL     1     -11.900  13.027  67.496  1.00  0.00    -0.355 C  
BRANCH   8   9
HETATM    9  C   UNL     1     -12.056  14.138  66.439  1.00  0.00    -0.451 C  
BRANCH   9  10
HETATM   10  N   UNL     1     -12.927  13.715  65.329  1.00  0.00    -0.737 NA 
HETATM   11  H   UNL     1     -13.840  14.171  65.365  1.00  0.00     0.000 HD 
BRANCH  10  12
HETATM   12  C   UNL     1     -12.252  13.938  64.039  1.00  0.00    -0.369 C  
BRANCH  12  13
HETATM   13  C   UNL     1     -11.573  12.653  63.529  1.00  0.00    -0.514 C  
HETATM   14  N   UNL     1     -12.534  11.698  62.966  1.00  0.00    -0.937 NA 
HETATM   15  H1  UNL     1     -12.085  10.847  62.628  1.00  0.00     0.000 HD 
HETATM   16  H2  UNL     1     -13.097  12.131  62.234  1.00  0.00     0.000 HD 
ENDBRANCH  12  13
ENDBRANCH  10  12
ENDBRANCH   9  10
ENDBRANCH   8   9
ENDBRANCH   6   8
ENDBRANCH   5   6
ENDBRANCH   3   5
TORSDOF 7
ENDMDL
MODEL       46
REMARK 921   NORMALIZED FREE ENERGY PREDICTED BY IDOCK:   -3.12 KCAL/MOL
REMARK 922        TOTAL FREE ENERGY PREDICTED BY IDOCK:   -4.90 KCAL/MOL
REMARK 923 INTER-LIGAND FREE ENERGY PREDICTED BY IDOCK:   -4.43 KCAL/MOL
REMARK 924 INTRA-LIGAND FREE ENERGY PREDICTED BY IDOCK:   -0.46 KCAL/MOL
REMARK 927      BINDING AFFINITY PREDICTED BY RF-SCORE:    0.00 PKD
ROOT
HETATM    1  N   UNL     1     -12.278   6.802  70.122  1.00  0.00    -0.605 NA 
HETATM    2  H2  UNL     1     -12.130   7.698  69.657  1.00  0.00     0.000 HD 
HETATM    3  C   UNL     1     -12.616   6.991  71.536  1.00  0.00    -0.385 C  
HETATM    4  H1  UNL     1     -11.477   6.185  69.991  1.00  0.00     0.000 HD 
ENDROOT
BRANCH   3   5
HETATM    5  C   UNL     1     -13.825   7.924  71.734  1.00  0.00    -0.375 C  
BRANCH   5   6
HETATM    6  N   UNL     1     -13.729   9.116  70.883  1.00  0.00    -0.565 NA 
HETATM    7  H   UNL     1     -14.640   9.384  70.512  1.00  0.00     0.000 HD 
BRANCH   6   8
HETATM    8  C   UNL     1     -13.087  10.230  71.595  1.00  0.00    -0.449 C  
BRANCH   8   9
HETATM    9  C   UNL     1     -12.301  11.121  70.613  1.00  0.00    -0.388 C  
BRANCH   9  10
HETATM   10  N   UNL     1     -12.191  10.499  69.282  1.00  0.00    -0.669 NA 
HETATM   11  H   UNL     1     -12.826  10.927  68.607  1.00  0.00     0.000 HD 
BRANCH  10  12
HETATM   12  C   UNL     1     -10.793  10.532  68.820  1.00  0.00    -0.231 C  
BRANCH  12  13
HETATM   13  C   UNL     1     -10.607   9.713  67.529  1.00  0.00    -0.277 C  
HETATM   14  N   UNL     1     -10.928   8.293  67.717  1.00  0.00    -0.491 NA 
HETATM   15  H1  UNL     1     -10.805   7.750  66.862  1.00  0.00     0.000 HD 
HETATM   16  H2  UNL     1     -11.868   8.176  68.094  1.00  0.00     0.000 HD 
ENDBRANCH  12  13
ENDBRANCH  10  12
ENDBRANCH   9  10
ENDBRANCH   8   9
ENDBRANCH   6   8
ENDBRANCH   5   6
ENDBRANCH   3   5
TORSDOF 7
ENDMDL
MODEL       47
REMARK 921   NORMALIZED FREE ENERGY PREDICTED BY IDOCK:   -3.10 KCAL/MOL
REMARK 922        TOTAL FREE ENERGY PREDICTED BY IDOCK:   -4.87 KCAL/MOL
REMARK 923 INTER-LIGAND FREE ENERGY PREDICTED BY IDOCK:   -4.67 KCAL/MOL
REMARK 924 INTRA-LIGAND FREE ENERGY PREDICTED BY IDOCK:   -0.20 KCAL/MOL
REMARK 927      BINDING AFFINITY PREDICTED BY RF-SCORE:    0.00 PKD
ROOT
HETATM    1  N   UNL     1     -11.109  16.358  69.125  1.00  0.00    -0.316 NA 
HETATM    2  H2  UNL     1     -11.851  16.568  68.457  1.00  0.00     0.000 HD 
HETATM    3  C   UNL     1     -11.582  15.441  70.166  1.00  0.00    -0.327 C  
HETATM    4  H1  UNL     1     -10.710  17.214  69.511  1.00  0.00     0.000 HD 
ENDROOT
BRANCH   3   5
HETATM    5  C   UNL     1     -12.185  14.149  69.585  1.00  0.00    -0.326 C  
BRANCH   5   6
HETATM    6  N   UNL     1     -11.213  13.051  69.593  1.00  0.00    -0.477 NA 
HETATM    7  H   UNL     1     -11.364  12.422  70.380  1.00  0.00     0.000 HD 
BRANCH   6   8
HETATM    8  C   UNL     1     -11.218  12.325  68.315  1.00  0.00    -0.267 C  
BRANCH   8   9
HETATM    9  C   UNL     1     -11.827  13.196  67.198  1.00  0.00    -0.369 C  
BRANCH   9  10
HETATM   10  N   UNL     1     -12.148  12.399  66.000  1.00  0.00    -0.638 NA 
HETATM   11  H   UNL     1     -13.123  12.507  65.720  1.00  0.00     0.000 HD 
BRANCH  10  12
HETATM   12  C   UNL     1     -11.221  12.732  64.905  1.00  0.00    -0.297 C  
BRANCH  12  13
HETATM   13  C   UNL     1     -11.964  12.878  63.564  1.00  0.00    -0.556 C  
HETATM   14  N   UNL     1     -12.480  14.236  63.354  1.00  0.00    -1.101 NA 
HETATM   15  H1  UNL     1     -12.972  14.332  62.466  1.00  0.00     0.000 HD 
HETATM   16  H2  UNL     1     -11.737  14.928  63.440  1.00  0.00     0.000 HD 
ENDBRANCH  12  13
ENDBRANCH  10  12
ENDBRANCH   9  10
ENDBRANCH   8   9
ENDBRANCH   6   8
ENDBRANCH   5   6
ENDBRANCH   3   5
TORSDOF 7
ENDMDL
MODEL       48
REMARK 921   NORMALIZED FREE ENERGY PREDICTED BY IDOCK:   -3.06 KCAL/MOL
REMARK 922        TOTAL FREE ENERGY PREDICTED BY IDOCK:   -4.82 KCAL/MOL
REMARK 923 INTER-LIGAND FREE ENERGY PREDICTED BY IDOCK:   -4.71 KCAL/MOL
REMARK 924 INTRA-LIGAND FREE ENERGY PREDICTED BY IDOCK:   -0.12 KCAL/MOL
REMARK 927      BINDING AFFINITY PREDICTED BY RF-SCORE:    0.00 PKD
ROOT
HETATM    1  N   UNL     1     -11.988  16.059  63.718  1.00  0.00    -1.339 NA 
HETATM    2  H2  UNL     1     -12.815  15.478  63.861  1.00  0.00     0.000 HD 
HETATM    3  C   UNL     1     -11.043  15.913  64.828  1.00  0.00    -0.384 C  
HETATM    4  H1  UNL     1     -12.249  17.031  63.551  1.00  0.00     0.000 HD 
ENDROOT
BRANCH   3   5
HETATM    5  C   UNL     1     -10.651  14.446  65.079  1.00  0.00    -0.432 C  
BRANCH   5   6
HETATM    6  N   UNL     1      -9.474  14.345  65.950  1.00  0.00    -0.515 NA 
HETATM    7  H   UNL     1      -9.293  15.222  66.438  1.00  0.00     0.000 HD 
BRANCH   6   8
HETATM    8  C   UNL     1      -9.599  13.221  66.888  1.00  0.00    -0.249 C  
BRANCH   8   9
HETATM    9  C   UNL     1     -10.937  13.296  67.651  1.00  0.00    -0.262 C  
BRANCH   9  10
HETATM   10  N   UNL     1     -10.731  13.323  69.110  1.00  0.00    -0.436 NA 
HETATM   11  H   UNL     1     -10.318  14.204  69.420  1.00  0.00     0.000 HD 
BRANCH  10  12
HETATM   12  C   UNL     1     -11.995  13.032  69.807  1.00  0.00    -0.308 C  
BRANCH  12  13
HETATM   13  C   UNL     1     -12.075  11.555  70.236  1.00  0.00    -0.359 C  
HETATM   14  N   UNL     1     -12.791  11.378  71.504  1.00  0.00    -0.423 NA 
HETATM   15  H1  UNL     1     -12.843  10.400  71.788  1.00  0.00     0.000 HD 
HETATM   16  H2  UNL     1     -13.718  11.800  71.464  1.00  0.00     0.000 HD 
ENDBRANCH  12  13
ENDBRANCH  10  12
ENDBRANCH   9  10
ENDBRANCH   8   9
ENDBRANCH   6   8
ENDBRANCH   5   6
ENDBRANCH   3   5
TORSDOF 7
ENDMDL
MODEL       49
REMARK 921   NORMALIZED FREE ENERGY PREDICTED BY IDOCK:   -3.03 KCAL/MOL
REMARK 922        TOTAL FREE ENERGY PREDICTED BY IDOCK:   -4.77 KCAL/MOL
REMARK 923 INTER-LIGAND FREE ENERGY PREDICTED BY IDOCK:   -4.65 KCAL/MOL
REMARK 924 INTRA-LIGAND FREE ENERGY PREDICTED BY IDOCK:   -0.12 KCAL/MOL
REMARK 927      BINDING AFFINITY PREDICTED BY RF-SCORE:    0.00 PKD
ROOT
HETATM    1  N   UNL     1     -14.266   8.860  73.071  1.00  0.00    -1.158 NA 
HETATM    2  H2  UNL     1     -13.827   8.557  73.941  1.00  0.00     0.000 HD 
HETATM    3  C   UNL     1     -13.269   9.386  72.133  1.00  0.00    -0.460 C  
HETATM    4  H1  UNL     1     -15.020   9.523  73.252  1.00  0.00     0.000 HD 
ENDROOT
BRANCH   3   5
HETATM    5  C   UNL     1     -12.131   8.386  71.860  1.00  0.00    -0.342 C  
BRANCH   5   6
HETATM    6  N   UNL     1     -11.900   8.214  70.421  1.00  0.00    -0.472 NA 
HETATM    7  H   UNL     1     -11.685   9.102  69.968  1.00  0.00     0.000 HD 
BRANCH   6   8
HETATM    8  C   UNL     1     -10.857   7.211  70.165  1.00  0.00    -0.257 C  
BRANCH   8   9
HETATM    9  C   UNL     1     -11.384   6.107  69.227  1.00  0.00    -0.291 C  
BRANCH   9  10
HETATM   10  N   UNL     1     -11.307   6.512  67.812  1.00  0.00    -0.674 NA 
HETATM   11  H   UNL     1     -11.677   7.451  67.664  1.00  0.00     0.000 HD 
BRANCH  10  12
HETATM   12  C   UNL     1      -9.925   6.381  67.320  1.00  0.00    -0.146 C  
BRANCH  12  13
HETATM   13  C   UNL     1      -9.860   5.518  66.046  1.00  0.00    -0.059 C  
HETATM   14  N   UNL     1     -11.083   4.734  65.838  1.00  0.00    -0.792 NA 
HETATM   15  H1  UNL     1     -11.039   4.163  64.994  1.00  0.00     0.000 HD 
HETATM   16  H2  UNL     1     -11.907   5.334  65.834  1.00  0.00     0.000 HD 
ENDBRANCH  12  13
ENDBRANCH  10  12
ENDBRANCH   9  10
ENDBRANCH   8   9
ENDBRANCH   6   8
ENDBRANCH   5   6
ENDBRANCH   3   5
TORSDOF 7
ENDMDL
MODEL       50
REMARK 921   NORMALIZED FREE ENERGY PREDICTED BY IDOCK:   -3.02 KCAL/MOL
REMARK 922        TOTAL FREE ENERGY PREDICTED BY IDOCK:   -4.76 KCAL/MOL
REMARK 923 INTER-LIGAND FREE ENERGY PREDICTED BY IDOCK:   -4.12 KCAL/MOL
REMARK 924 INTRA-LIGAND FREE ENERGY PREDICTED BY IDOCK:   -0.63 KCAL/MOL
REMARK 927      BINDING AFFINITY PREDICTED BY RF-SCORE:    0.00 PKD
ROOT
HETATM    1  N   UNL     1     -12.092  11.043  68.318  1.00  0.00    -0.788 NA 
HETATM    2  H2  UNL     1     -12.976  11.053  67.809  1.00  0.00     0.000 HD 
HETATM    3  C   UNL     1     -10.983  10.655  67.442  1.00  0.00    -0.298 C  
HETATM    4  H1  UNL     1     -12.155  10.458  69.151  1.00  0.00     0.000 HD 
ENDROOT
BRANCH   3   5
HETATM    5  C   UNL     1     -10.887  11.538  66.184  1.00  0.00    -0.278 C  
BRANCH   5   6
HETATM    6  N   UNL     1     -12.202  12.057  65.791  1.00  0.00    -0.431 NA 
HETATM    7  H   UNL     1     -12.563  12.720  66.476  1.00  0.00     0.000 HD 
BRANCH   6   8
HETATM    8  C   UNL     1     -12.163  12.642  64.443  1.00  0.00    -0.443 C  
BRANCH   8   9
HETATM    9  C   UNL     1     -10.945  13.574  64.290  1.00  0.00    -0.336 C  
BRANCH   9  10
HETATM   10  N   UNL     1     -11.237  14.936  64.771  1.00  0.00    -0.508 NA 
HETATM   11  H   UNL     1     -12.233  15.071  64.950  1.00  0.00     0.000 HD 
BRANCH  10  12
HETATM   12  C   UNL     1     -10.419  15.244  65.956  1.00  0.00    -0.317 C  
BRANCH  12  13
HETATM   13  C   UNL     1     -11.297  15.566  67.179  1.00  0.00    -0.135 C  
HETATM   14  N   UNL     1     -12.099  14.416  67.611  1.00  0.00    -0.590 NA 
HETATM   15  H1  UNL     1     -12.681  14.629  68.421  1.00  0.00     0.000 HD 
HETATM   16  H2  UNL     1     -11.510  13.602  67.785  1.00  0.00     0.000 HD 
ENDBRANCH  12  13
ENDBRANCH  10  12
ENDBRANCH   9  10
ENDBRANCH   8   9
ENDBRANCH   6   8
ENDBRANCH   5   6
ENDBRANCH   3   5
TORSDOF 7
ENDMDL
MODEL       51
REMARK 921   NORMALIZED FREE ENERGY PREDICTED BY IDOCK:   -3.01 KCAL/MOL
REMARK 922        TOTAL FREE ENERGY PREDICTED BY IDOCK:   -4.75 KCAL/MOL
REMARK 923 INTER-LIGAND FREE ENERGY PREDICTED BY IDOCK:   -4.60 KCAL/MOL
REMARK 924 INTRA-LIGAND FREE ENERGY PREDICTED BY IDOCK:   -0.15 KCAL/MOL
REMARK 927      BINDING AFFINITY PREDICTED BY RF-SCORE:    0.00 PKD
ROOT
HETATM    1  N   UNL     1     -12.123   6.852  70.271  1.00  0.00    -0.627 NA 
HETATM    2  H2  UNL     1     -11.117   6.764  70.413  1.00  0.00     0.000 HD 
HETATM    3  C   UNL     1     -12.819   7.057  71.545  1.00  0.00    -0.372 C  
HETATM    4  H1  UNL     1     -12.490   6.056  69.749  1.00  0.00     0.000 HD 
ENDROOT
BRANCH   3   5
HETATM    5  C   UNL     1     -12.264   8.258  72.333  1.00  0.00    -0.352 C  
BRANCH   5   6
HETATM    6  N   UNL     1     -13.228   9.363  72.379  1.00  0.00    -0.504 NA 
HETATM    7  H   UNL     1     -13.019  10.010  73.139  1.00  0.00     0.000 HD 
BRANCH   6   8
HETATM    8  C   UNL     1     -13.307  10.056  71.086  1.00  0.00    -0.305 C  
BRANCH   8   9
HETATM    9  C   UNL     1     -12.893  11.533  71.234  1.00  0.00    -0.360 C  
BRANCH   9  10
HETATM   10  N   UNL     1     -13.440  12.131  72.466  1.00  0.00    -0.534 NA 
HETATM   11  H   UNL     1     -12.949  11.804  73.299  1.00  0.00     0.000 HD 
BRANCH  10  12
HETATM   12  C   UNL     1     -13.434  13.600  72.364  1.00  0.00    -0.584 C  
BRANCH  12  13
HETATM   13  C   UNL     1     -12.802  14.070  71.040  1.00  0.00    -0.340 C  
HETATM   14  N   UNL     1     -13.063  15.488  70.769  1.00  0.00    -0.622 NA 
HETATM   15  H1  UNL     1     -12.644  15.800  69.893  1.00  0.00     0.000 HD 
HETATM   16  H2  UNL     1     -12.761  16.073  71.549  1.00  0.00     0.000 HD 
ENDBRANCH  12  13
ENDBRANCH  10  12
ENDBRANCH   9  10
ENDBRANCH   8   9
ENDBRANCH   6   8
ENDBRANCH   5   6
ENDBRANCH   3   5
TORSDOF 7
ENDMDL
MODEL       52
REMARK 921   NORMALIZED FREE ENERGY PREDICTED BY IDOCK:   -3.01 KCAL/MOL
REMARK 922        TOTAL FREE ENERGY PREDICTED BY IDOCK:   -4.75 KCAL/MOL
REMARK 923 INTER-LIGAND FREE ENERGY PREDICTED BY IDOCK:   -4.33 KCAL/MOL
REMARK 924 INTRA-LIGAND FREE ENERGY PREDICTED BY IDOCK:   -0.42 KCAL/MOL
REMARK 927      BINDING AFFINITY PREDICTED BY RF-SCORE:    0.00 PKD
ROOT
HETATM    1  N   UNL     1      -9.763  11.267  67.670  1.00  0.00    -0.170 NA 
HETATM    2  H2  UNL     1      -9.277  10.984  68.521  1.00  0.00     0.000 HD 
HETATM    3  C   UNL     1     -11.207  11.044  67.789  1.00  0.00    -0.308 C  
HETATM    4  H1  UNL     1      -9.363  10.809  66.851  1.00  0.00     0.000 HD 
ENDROOT
BRANCH   3   5
HETATM    5  C   UNL     1     -11.810  11.734  69.026  1.00  0.00    -0.317 C  
BRANCH   5   6
HETATM    6  N   UNL     1     -10.935  12.800  69.527  1.00  0.00    -0.454 NA 
HETATM    7  H   UNL     1      -9.981  12.695  69.183  1.00  0.00     0.000 HD 
BRANCH   6   8
HETATM    8  C   UNL     1     -11.479  14.129  69.212  1.00  0.00    -0.292 C  
BRANCH   8   9
HETATM    9  C   UNL     1     -10.470  14.946  68.381  1.00  0.00    -0.243 C  
BRANCH   9  10
HETATM   10  N   UNL     1     -10.346  14.423  67.009  1.00  0.00    -0.262 NA 
HETATM   11  H   UNL     1     -11.069  13.734  66.796  1.00  0.00     0.000 HD 
BRANCH  10  12
HETATM   12  C   UNL     1     -10.341  15.532  66.041  1.00  0.00    -0.326 C  
BRANCH  12  13
HETATM   13  C   UNL     1     -11.186  15.198  64.796  1.00  0.00    -0.388 C  
HETATM   14  N   UNL     1     -11.463  16.381  63.974  1.00  0.00    -1.573 NA 
HETATM   15  H1  UNL     1     -12.022  16.159  63.150  1.00  0.00     0.000 HD 
HETATM   16  H2  UNL     1     -10.600  16.859  63.715  1.00  0.00     0.000 HD 
ENDBRANCH  12  13
ENDBRANCH  10  12
ENDBRANCH   9  10
ENDBRANCH   8   9
ENDBRANCH   6   8
ENDBRANCH   5   6
ENDBRANCH   3   5
TORSDOF 7
ENDMDL
MODEL       53
REMARK 921   NORMALIZED FREE ENERGY PREDICTED BY IDOCK:   -3.01 KCAL/MOL
REMARK 922        TOTAL FREE ENERGY PREDICTED BY IDOCK:   -4.75 KCAL/MOL
REMARK 923 INTER-LIGAND FREE ENERGY PREDICTED BY IDOCK:   -4.58 KCAL/MOL
REMARK 924 INTRA-LIGAND FREE ENERGY PREDICTED BY IDOCK:   -0.17 KCAL/MOL
REMARK 927      BINDING AFFINITY PREDICTED BY RF-SCORE:    0.00 PKD
ROOT
HETATM    1  N   UNL     1     -11.211  11.370  62.955  1.00  0.00    -0.844 NA 
HETATM    2  H2  UNL     1     -10.805  10.959  63.796  1.00  0.00     0.000 HD 
HETATM    3  C   UNL     1     -12.495  12.012  63.250  1.00  0.00    -0.425 C  
HETATM    4  H1  UNL     1     -11.282  10.680  62.207  1.00  0.00     0.000 HD 
ENDROOT
BRANCH   3   5
HETATM    5  C   UNL     1     -12.389  13.053  64.379  1.00  0.00    -0.376 C  
BRANCH   5   6
HETATM    6  N   UNL     1     -12.167  14.403  63.848  1.00  0.00    -0.980 NA 
HETATM    7  H   UNL     1     -13.023  14.797  63.459  1.00  0.00     0.000 HD 
BRANCH   6   8
HETATM    8  C   UNL     1     -11.579  15.286  64.864  1.00  0.00    -0.289 C  
BRANCH   8   9
HETATM    9  C   UNL     1     -10.149  14.832  65.217  1.00  0.00    -0.354 C  
BRANCH   9  10
HETATM   10  N   UNL     1     -10.053  14.372  66.614  1.00  0.00    -0.267 NA 
HETATM   11  H   UNL     1      -9.207  13.824  66.778  1.00  0.00     0.000 HD 
BRANCH  10  12
HETATM   12  C   UNL     1     -10.153  15.517  67.534  1.00  0.00    -0.241 C  
BRANCH  12  13
HETATM   13  C   UNL     1     -10.900  15.137  68.826  1.00  0.00    -0.247 C  
HETATM   14  N   UNL     1     -12.354  15.297  68.699  1.00  0.00    -0.560 NA 
HETATM   15  H1  UNL     1     -12.849  15.045  69.555  1.00  0.00     0.000 HD 
HETATM   16  H2  UNL     1     -12.712  14.774  67.900  1.00  0.00     0.000 HD 
ENDBRANCH  12  13
ENDBRANCH  10  12
ENDBRANCH   9  10
ENDBRANCH   8   9
ENDBRANCH   6   8
ENDBRANCH   5   6
ENDBRANCH   3   5
TORSDOF 7
ENDMDL
MODEL       54
REMARK 921   NORMALIZED FREE ENERGY PREDICTED BY IDOCK:   -3.01 KCAL/MOL
REMARK 922        TOTAL FREE ENERGY PREDICTED BY IDOCK:   -4.75 KCAL/MOL
REMARK 923 INTER-LIGAND FREE ENERGY PREDICTED BY IDOCK:   -4.65 KCAL/MOL
REMARK 924 INTRA-LIGAND FREE ENERGY PREDICTED BY IDOCK:   -0.09 KCAL/MOL
REMARK 927      BINDING AFFINITY PREDICTED BY RF-SCORE:    0.00 PKD
ROOT
HETATM    1  N   UNL     1     -13.122  16.331  73.955  1.00  0.00    -0.932 NA 
HETATM    2  H2  UNL     1     -12.802  17.183  73.495  1.00  0.00     0.000 HD 
HETATM    3  C   UNL     1     -13.684  15.387  72.985  1.00  0.00    -0.392 C  
HETATM    4  H1  UNL     1     -13.770  16.545  74.713  1.00  0.00     0.000 HD 
ENDROOT
BRANCH   3   5
HETATM    5  C   UNL     1     -12.706  15.065  71.841  1.00  0.00    -0.337 C  
BRANCH   5   6
HETATM    6  N   UNL     1     -13.414  14.613  70.638  1.00  0.00    -0.534 NA 
HETATM    7  H   UNL     1     -13.666  15.396  70.035  1.00  0.00     0.000 HD 
BRANCH   6   8
HETATM    8  C   UNL     1     -12.638  13.600  69.910  1.00  0.00    -0.059 C  
BRANCH   8   9
HETATM    9  C   UNL     1     -12.053  12.559  70.885  1.00  0.00    -0.041 C  
BRANCH   9  10
HETATM   10  N   UNL     1     -13.100  11.679  71.434  1.00  0.00    -0.328 NA 
HETATM   11  H   UNL     1     -13.955  11.710  70.876  1.00  0.00     0.000 HD 
BRANCH  10  12
HETATM   12  C   UNL     1     -12.587  10.306  71.576  1.00  0.00    -0.440 C  
BRANCH  12  13
HETATM   13  C   UNL     1     -13.731   9.295  71.781  1.00  0.00    -0.377 C  
HETATM   14  N   UNL     1     -14.023   9.060  73.199  1.00  0.00    -1.215 NA 
HETATM   15  H1  UNL     1     -14.780   8.391  73.335  1.00  0.00     0.000 HD 
HETATM   16  H2  UNL     1     -14.215   9.936  73.685  1.00  0.00     0.000 HD 
ENDBRANCH  12  13
ENDBRANCH  10  12
ENDBRANCH   9  10
ENDBRANCH   8   9
ENDBRANCH   6   8
ENDBRANCH   5   6
ENDBRANCH   3   5
TORSDOF 7
ENDMDL
MODEL       55
REMARK 921   NORMALIZED FREE ENERGY PREDICTED BY IDOCK:   -3.00 KCAL/MOL
REMARK 922        TOTAL FREE ENERGY PREDICTED BY IDOCK:   -4.74 KCAL/MOL
REMARK 923 INTER-LIGAND FREE ENERGY PREDICTED BY IDOCK:   -4.37 KCAL/MOL
REMARK 924 INTRA-LIGAND FREE ENERGY PREDICTED BY IDOCK:   -0.37 KCAL/MOL
REMARK 927      BINDING AFFINITY PREDICTED BY RF-SCORE:    0.00 PKD
ROOT
HETATM    1  N   UNL     1      -9.702  15.707  67.513  1.00  0.00    -0.221 NA 
HETATM    2  H2  UNL     1      -9.992  14.746  67.333  1.00  0.00     0.000 HD 
HETATM    3  C   UNL     1     -10.814  16.502  68.042  1.00  0.00    -0.337 C  
HETATM    4  H1  UNL     1      -9.284  16.125  66.681  1.00  0.00     0.000 HD 
ENDROOT
BRANCH   3   5
HETATM    5  C   UNL     1     -11.446  15.871  69.296  1.00  0.00    -0.374 C  
BRANCH   5   6
HETATM    6  N   UNL     1     -12.441  14.852  68.943  1.00  0.00    -0.553 NA 
HETATM    7  H   UNL     1     -12.661  14.874  67.947  1.00  0.00     0.000 HD 
BRANCH   6   8
HETATM    8  C   UNL     1     -12.010  13.514  69.371  1.00  0.00    -0.330 C  
BRANCH   8   9
HETATM    9  C   UNL     1     -11.878  12.572  68.159  1.00  0.00    -0.317 C  
BRANCH   9  10
HETATM   10  N   UNL     1     -11.405  13.288  66.961  1.00  0.00    -0.299 NA 
HETATM   11  H   UNL     1     -10.550  12.879  66.584  1.00  0.00     0.000 HD 
BRANCH  10  12
HETATM   12  C   UNL     1     -12.475  13.351  65.951  1.00  0.00    -0.408 C  
BRANCH  12  13
HETATM   13  C   UNL     1     -12.194  14.442  64.900  1.00  0.00    -0.433 C  
HETATM   14  N   UNL     1     -12.520  14.003  63.538  1.00  0.00    -1.099 NA 
HETATM   15  H1  UNL     1     -12.334  14.725  62.842  1.00  0.00     0.000 HD 
HETATM   16  H2  UNL     1     -13.484  13.674  63.478  1.00  0.00     0.000 HD 
ENDBRANCH  12  13
ENDBRANCH  10  12
ENDBRANCH   9  10
ENDBRANCH   8   9
ENDBRANCH   6   8
ENDBRANCH   5   6
ENDBRANCH   3   5
TORSDOF 7
ENDMDL
MODEL       56
REMARK 921   NORMALIZED FREE ENERGY PREDICTED BY IDOCK:   -3.00 KCAL/MOL
REMARK 922        TOTAL FREE ENERGY PREDICTED BY IDOCK:   -4.74 KCAL/MOL
REMARK 923 INTER-LIGAND FREE ENERGY PREDICTED BY IDOCK:   -4.60 KCAL/MOL
REMARK 924 INTRA-LIGAND FREE ENERGY PREDICTED BY IDOCK:   -0.13 KCAL/MOL
REMARK 927      BINDING AFFINITY PREDICTED BY RF-SCORE:    0.00 PKD
ROOT
HETATM    1  N   UNL     1     -14.038  15.272  70.894  1.00  0.00    -0.813 NA 
HETATM    2  H2  UNL     1     -14.558  14.948  70.078  1.00  0.00     0.000 HD 
HETATM    3  C   UNL     1     -12.774  14.543  71.038  1.00  0.00    -0.343 C  
HETATM    4  H1  UNL     1     -14.612  15.228  71.736  1.00  0.00     0.000 HD 
ENDROOT
BRANCH   3   5
HETATM    5  C   UNL     1     -11.908  14.609  69.767  1.00  0.00    -0.316 C  
BRANCH   5   6
HETATM    6  N   UNL     1     -11.170  13.358  69.554  1.00  0.00    -0.449 NA 
HETATM    7  H   UNL     1     -11.101  12.813  70.412  1.00  0.00     0.000 HD 
BRANCH   6   8
HETATM    8  C   UNL     1     -11.759  12.571  68.461  1.00  0.00    -0.324 C  
BRANCH   8   9
HETATM    9  C   UNL     1     -11.625  11.062  68.745  1.00  0.00    -0.318 C  
BRANCH   9  10
HETATM   10  N   UNL     1     -12.682  10.582  69.652  1.00  0.00    -0.616 NA 
HETATM   11  H   UNL     1     -13.195   9.794  69.256  1.00  0.00     0.000 HD 
BRANCH  10  12
HETATM   12  C   UNL     1     -12.112  10.261  70.971  1.00  0.00    -0.386 C  
BRANCH  12  13
HETATM   13  C   UNL     1     -12.881   9.113  71.653  1.00  0.00    -0.363 C  
HETATM   14  N   UNL     1     -13.878   9.600  72.613  1.00  0.00    -0.675 NA 
HETATM   15  H1  UNL     1     -14.387   8.840  73.064  1.00  0.00     0.000 HD 
HETATM   16  H2  UNL     1     -14.518  10.262  72.174  1.00  0.00     0.000 HD 
ENDBRANCH  12  13
ENDBRANCH  10  12
ENDBRANCH   9  10
ENDBRANCH   8   9
ENDBRANCH   6   8
ENDBRANCH   5   6
ENDBRANCH   3   5
TORSDOF 7
ENDMDL
MODEL       57
REMARK 921   NORMALIZED FREE ENERGY PREDICTED BY IDOCK:   -3.00 KCAL/MOL
REMARK 922        TOTAL FREE ENERGY PREDICTED BY IDOCK:   -4.73 KCAL/MOL
REMARK 923 INTER-LIGAND FREE ENERGY PREDICTED BY IDOCK:   -4.23 KCAL/MOL
REMARK 924 INTRA-LIGAND FREE ENERGY PREDICTED BY IDOCK:   -0.50 KCAL/MOL
REMARK 927      BINDING AFFINITY PREDICTED BY RF-SCORE:    0.00 PKD
ROOT
HETATM    1  N   UNL     1     -11.081  17.476  64.898  1.00  0.00    -0.773 NA 
HETATM    2  H2  UNL     1     -11.907  17.043  65.310  1.00  0.00     0.000 HD 
HETATM    3  C   UNL     1     -10.337  18.249  65.897  1.00  0.00    -0.284 C  
HETATM    4  H1  UNL     1     -11.328  18.031  64.079  1.00  0.00     0.000 HD 
ENDROOT
BRANCH   3   5
HETATM    5  C   UNL     1      -9.964  17.412  67.134  1.00  0.00    -0.291 C  
BRANCH   5   6
HETATM    6  N   UNL     1     -11.152  16.822  67.762  1.00  0.00    -0.211 NA 
HETATM    7  H   UNL     1     -11.951  16.826  67.129  1.00  0.00     0.000 HD 
BRANCH   6   8
HETATM    8  C   UNL     1     -10.872  15.472  68.269  1.00  0.00    -0.292 C  
BRANCH   8   9
HETATM    9  C   UNL     1     -11.801  14.437  67.604  1.00  0.00    -0.378 C  
BRANCH   9  10
HETATM   10  N   UNL     1     -11.039  13.427  66.848  1.00  0.00    -0.287 NA 
HETATM   11  H   UNL     1     -11.571  12.566  66.720  1.00  0.00     0.000 HD 
BRANCH  10  12
HETATM   12  C   UNL     1     -10.583  13.989  65.566  1.00  0.00    -0.318 C  
BRANCH  12  13
HETATM   13  C   UNL     1     -11.541  13.620  64.417  1.00  0.00    -0.393 C  
HETATM   14  N   UNL     1     -12.431  14.729  64.053  1.00  0.00    -1.000 NA 
HETATM   15  H1  UNL     1     -13.065  14.485  63.293  1.00  0.00     0.000 HD 
HETATM   16  H2  UNL     1     -11.898  15.570  63.832  1.00  0.00     0.000 HD 
ENDBRANCH  12  13
ENDBRANCH  10  12
ENDBRANCH   9  10
ENDBRANCH   8   9
ENDBRANCH   6   8
ENDBRANCH   5   6
ENDBRANCH   3   5
TORSDOF 7
ENDMDL
MODEL       58
REMARK 921   NORMALIZED FREE ENERGY PREDICTED BY IDOCK:   -2.99 KCAL/MOL
REMARK 922        TOTAL FREE ENERGY PREDICTED BY IDOCK:   -4.72 KCAL/MOL
REMARK 923 INTER-LIGAND FREE ENERGY PREDICTED BY IDOCK:   -4.48 KCAL/MOL
REMARK 924 INTRA-LIGAND FREE ENERGY PREDICTED BY IDOCK:   -0.24 KCAL/MOL
REMARK 927      BINDING AFFINITY PREDICTED BY RF-SCORE:    0.00 PKD
ROOT
HETATM    1  N   UNL     1     -11.735  16.232  63.870  1.00  0.00    -1.518 NA 
HETATM    2  H2  UNL     1     -12.565  16.721  64.207  1.00  0.00     0.000 HD 
HETATM    3  C   UNL     1     -11.323  15.185  64.808  1.00  0.00    -0.395 C  
HETATM    4  H1  UNL     1     -10.983  16.889  63.661  1.00  0.00     0.000 HD 
ENDROOT
BRANCH   3   5
HETATM    5  C   UNL     1     -12.459  14.194  65.123  1.00  0.00    -0.439 C  
BRANCH   5   6
HETATM    6  N   UNL     1     -12.612  13.993  66.569  1.00  0.00    -0.503 NA 
HETATM    7  H   UNL     1     -12.601  13.004  66.812  1.00  0.00     0.000 HD 
BRANCH   6   8
HETATM    8  C   UNL     1     -11.598  14.745  67.322  1.00  0.00    -0.369 C  
BRANCH   8   9
HETATM    9  C   UNL     1     -10.831  13.813  68.281  1.00  0.00    -0.250 C  
BRANCH   9  10
HETATM   10  N   UNL     1     -10.474  12.539  67.632  1.00  0.00    -0.215 NA 
HETATM   11  H   UNL     1     -11.270  12.120  67.149  1.00  0.00     0.000 HD 
BRANCH  10  12
HETATM   12  C   UNL     1      -9.325  12.732  66.732  1.00  0.00    -0.241 C  
BRANCH  12  13
HETATM   13  C   UNL     1      -8.634  11.395  66.405  1.00  0.00    -0.174 C  
HETATM   14  N   UNL     1      -8.589  11.126  64.963  1.00  0.00    -0.382 NA 
HETATM   15  H1  UNL     1      -8.132  10.241  64.746  1.00  0.00     0.000 HD 
HETATM   16  H2  UNL     1      -8.153  11.898  64.458  1.00  0.00     0.000 HD 
ENDBRANCH  12  13
ENDBRANCH  10  12
ENDBRANCH   9  10
ENDBRANCH   8   9
ENDBRANCH   6   8
ENDBRANCH   5   6
ENDBRANCH   3   5
TORSDOF 7
ENDMDL
MODEL       59
REMARK 921   NORMALIZED FREE ENERGY PREDICTED BY IDOCK:   -2.99 KCAL/MOL
REMARK 922        TOTAL FREE ENERGY PREDICTED BY IDOCK:   -4.72 KCAL/MOL
REMARK 923 INTER-LIGAND FREE ENERGY PREDICTED BY IDOCK:   -4.49 KCAL/MOL
REMARK 924 INTRA-LIGAND FREE ENERGY PREDICTED BY IDOCK:   -0.23 KCAL/MOL
REMARK 927      BINDING AFFINITY PREDICTED BY RF-SCORE:    0.00 PKD
ROOT
HETATM    1  N   UNL     1     -11.230  16.065  68.108  1.00  0.00    -0.344 NA 
HETATM    2  H2  UNL     1     -10.230  16.231  68.228  1.00  0.00     0.000 HD 
HETATM    3  C   UNL     1     -11.770  15.275  69.218  1.00  0.00    -0.338 C  
HETATM    4  H1  UNL     1     -11.424  15.645  67.198  1.00  0.00     0.000 HD 
ENDROOT
BRANCH   3   5
HETATM    5  C   UNL     1     -11.476  15.908  70.590  1.00  0.00    -0.400 C  
BRANCH   5   6
HETATM    6  N   UNL     1     -12.690  16.011  71.407  1.00  0.00    -0.532 NA 
HETATM    7  H   UNL     1     -13.215  16.858  71.193  1.00  0.00     0.000 HD 
BRANCH   6   8
HETATM    8  C   UNL     1     -13.527  14.810  71.272  1.00  0.00    -0.411 C  
BRANCH   8   9
HETATM    9  C   UNL     1     -13.475  13.964  72.559  1.00  0.00    -0.572 C  
BRANCH   9  10
HETATM   10  N   UNL     1     -13.498  12.520  72.263  1.00  0.00    -0.557 NA 
HETATM   11  H   UNL     1     -14.441  12.189  72.056  1.00  0.00     0.000 HD 
BRANCH  10  12
HETATM   12  C   UNL     1     -12.554  12.209  71.177  1.00  0.00    -0.260 C  
BRANCH  12  13
HETATM   13  C   UNL     1     -12.609  10.718  70.793  1.00  0.00    -0.383 C  
HETATM   14  N   UNL     1     -12.632  10.515  69.340  1.00  0.00    -0.690 NA 
HETATM   15  H1  UNL     1     -12.668   9.528  69.086  1.00  0.00     0.000 HD 
HETATM   16  H2  UNL     1     -11.843  10.982  68.891  1.00  0.00     0.000 HD 
ENDBRANCH  12  13
ENDBRANCH  10  12
ENDBRANCH   9  10
ENDBRANCH   8   9
ENDBRANCH   6   8
ENDBRANCH   5   6
ENDBRANCH   3   5
TORSDOF 7
ENDMDL
MODEL       60
REMARK 921   NORMALIZED FREE ENERGY PREDICTED BY IDOCK:   -2.98 KCAL/MOL
REMARK 922        TOTAL FREE ENERGY PREDICTED BY IDOCK:   -4.71 KCAL/MOL
REMARK 923 INTER-LIGAND FREE ENERGY PREDICTED BY IDOCK:   -4.52 KCAL/MOL
REMARK 924 INTRA-LIGAND FREE ENERGY PREDICTED BY IDOCK:   -0.19 KCAL/MOL
REMARK 927      BINDING AFFINITY PREDICTED BY RF-SCORE:    0.00 PKD
ROOT
HETATM    1  N   UNL     1     -11.438  16.536  63.984  1.00  0.00    -1.581 NA 
HETATM    2  H2  UNL     1     -11.544  16.197  63.028  1.00  0.00     0.000 HD 
HETATM    3  C   UNL     1     -11.533  15.437  64.948  1.00  0.00    -0.311 C  
HETATM    4  H1  UNL     1     -12.100  17.287  64.181  1.00  0.00     0.000 HD 
ENDROOT
BRANCH   3   5
HETATM    5  C   UNL     1     -10.535  14.303  64.650  1.00  0.00    -0.298 C  
BRANCH   5   6
HETATM    6  N   UNL     1      -9.583  14.121  65.751  1.00  0.00    -0.520 NA 
HETATM    7  H   UNL     1      -8.837  13.473  65.499  1.00  0.00     0.000 HD 
BRANCH   6   8
HETATM    8  C   UNL     1      -9.045  15.410  66.209  1.00  0.00    -0.320 C  
BRANCH   8   9
HETATM    9  C   UNL     1      -8.715  15.358  67.714  1.00  0.00    -0.164 C  
BRANCH   9  10
HETATM   10  N   UNL     1      -9.573  14.394  68.426  1.00  0.00    -0.214 NA 
HETATM   11  H   UNL     1      -9.068  13.540  68.666  1.00  0.00     0.000 HD 
BRANCH  10  12
HETATM   12  C   UNL     1     -10.175  15.029  69.611  1.00  0.00    -0.157 C  
BRANCH  12  13
HETATM   13  C   UNL     1     -11.359  15.935  69.224  1.00  0.00    -0.355 C  
HETATM   14  N   UNL     1     -12.649  15.246  69.332  1.00  0.00    -0.599 NA 
HETATM   15  H1  UNL     1     -13.433  15.846  69.076  1.00  0.00     0.000 HD 
HETATM   16  H2  UNL     1     -12.778  14.851  70.264  1.00  0.00     0.000 HD 
ENDBRANCH  12  13
ENDBRANCH  10  12
ENDBRANCH   9  10
ENDBRANCH   8   9
ENDBRANCH   6   8
ENDBRANCH   5   6
ENDBRANCH   3   5
TORSDOF 7
ENDMDL
MODEL       61
REMARK 921   NORMALIZED FREE ENERGY PREDICTED BY IDOCK:   -2.98 KCAL/MOL
REMARK 922        TOTAL FREE ENERGY PREDICTED BY IDOCK:   -4.70 KCAL/MOL
REMARK 923 INTER-LIGAND FREE ENERGY PREDICTED BY IDOCK:   -4.51 KCAL/MOL
REMARK 924 INTRA-LIGAND FREE ENERGY PREDICTED BY IDOCK:   -0.20 KCAL/MOL
REMARK 927      BINDING AFFINITY PREDICTED BY RF-SCORE:    0.00 PKD
ROOT
HETATM    1  N   UNL     1     -12.190  11.060  68.808  1.00  0.00    -0.744 NA 
HETATM    2  H2  UNL     1     -11.405  10.623  68.325  1.00  0.00     0.000 HD 
HETATM    3  C   UNL     1     -11.780  12.308  69.459  1.00  0.00    -0.332 C  
HETATM    4  H1  UNL     1     -12.630  10.408  69.457  1.00  0.00     0.000 HD 
ENDROOT
BRANCH   3   5
HETATM    5  C   UNL     1     -11.116  13.293  68.480  1.00  0.00    -0.265 C  
BRANCH   5   6
HETATM    6  N   UNL     1     -12.115  14.046  67.713  1.00  0.00    -0.509 NA 
HETATM    7  H   UNL     1     -12.345  14.931  68.166  1.00  0.00     0.000 HD 
BRANCH   6   8
HETATM    8  C   UNL     1     -11.680  14.248  66.324  1.00  0.00    -0.393 C  
BRANCH   8   9
HETATM    9  C   UNL     1     -12.695  13.629  65.342  1.00  0.00    -0.453 C  
BRANCH   9  10
HETATM   10  N   UNL     1     -12.025  12.872  64.271  1.00  0.00    -0.373 NA 
HETATM   11  H   UNL     1     -12.037  13.376  63.383  1.00  0.00     0.000 HD 
BRANCH  10  12
HETATM   12  C   UNL     1     -10.656  12.515  64.681  1.00  0.00    -0.316 C  
BRANCH  12  13
HETATM   13  C   UNL     1     -10.278  11.098  64.207  1.00  0.00    -0.340 C  
HETATM   14  N   UNL     1     -10.493  10.914  62.767  1.00  0.00    -0.781 NA 
HETATM   15  H1  UNL     1     -10.242   9.977  62.453  1.00  0.00     0.000 HD 
HETATM   16  H2  UNL     1      -9.999  11.626  62.228  1.00  0.00     0.000 HD 
ENDBRANCH  12  13
ENDBRANCH  10  12
ENDBRANCH   9  10
ENDBRANCH   8   9
ENDBRANCH   6   8
ENDBRANCH   5   6
ENDBRANCH   3   5
TORSDOF 7
ENDMDL
MODEL       62
REMARK 921   NORMALIZED FREE ENERGY PREDICTED BY IDOCK:   -2.98 KCAL/MOL
REMARK 922        TOTAL FREE ENERGY PREDICTED BY IDOCK:   -4.70 KCAL/MOL
REMARK 923 INTER-LIGAND FREE ENERGY PREDICTED BY IDOCK:   -3.90 KCAL/MOL
REMARK 924 INTRA-LIGAND FREE ENERGY PREDICTED BY IDOCK:   -0.80 KCAL/MOL
REMARK 927      BINDING AFFINITY PREDICTED BY RF-SCORE:    0.00 PKD
ROOT
HETATM    1  N   UNL     1     -11.049  14.721  64.586  1.00  0.00    -0.578 NA 
HETATM    2  H2  UNL     1     -10.080  14.513  64.342  1.00  0.00     0.000 HD 
HETATM    3  C   UNL     1     -11.928  13.594  64.259  1.00  0.00    -0.445 C  
HETATM    4  H1  UNL     1     -11.356  15.593  64.155  1.00  0.00     0.000 HD 
ENDROOT
BRANCH   3   5
HETATM    5  C   UNL     1     -11.464  12.277  64.908  1.00  0.00    -0.332 C  
BRANCH   5   6
HETATM    6  N   UNL     1     -12.043  12.102  66.245  1.00  0.00    -0.589 NA 
HETATM    7  H   UNL     1     -12.984  11.712  66.197  1.00  0.00     0.000 HD 
BRANCH   6   8
HETATM    8  C   UNL     1     -11.168  11.294  67.104  1.00  0.00    -0.275 C  
BRANCH   8   9
HETATM    9  C   UNL     1      -9.834  12.023  67.361  1.00  0.00    -0.184 C  
BRANCH   9  10
HETATM   10  N   UNL     1      -9.881  12.827  68.595  1.00  0.00    -0.398 NA 
HETATM   11  H   UNL     1      -9.131  12.578  69.241  1.00  0.00     0.000 HD 
BRANCH  10  12
HETATM   12  C   UNL     1      -9.872  14.262  68.267  1.00  0.00    -0.235 C  
BRANCH  12  13
HETATM   13  C   UNL     1     -11.194  14.941  68.671  1.00  0.00    -0.275 C  
HETATM   14  N   UNL     1     -12.264  14.708  67.693  1.00  0.00    -0.587 NA 
HETATM   15  H1  UNL     1     -13.139  15.157  67.960  1.00  0.00     0.000 HD 
HETATM   16  H2  UNL     1     -12.398  13.711  67.527  1.00  0.00     0.000 HD 
ENDBRANCH  12  13
ENDBRANCH  10  12
ENDBRANCH   9  10
ENDBRANCH   8   9
ENDBRANCH   6   8
ENDBRANCH   5   6
ENDBRANCH   3   5
TORSDOF 7
ENDMDL
MODEL       63
REMARK 921   NORMALIZED FREE ENERGY PREDICTED BY IDOCK:   -2.97 KCAL/MOL
REMARK 922        TOTAL FREE ENERGY PREDICTED BY IDOCK:   -4.69 KCAL/MOL
REMARK 923 INTER-LIGAND FREE ENERGY PREDICTED BY IDOCK:   -4.56 KCAL/MOL
REMARK 924 INTRA-LIGAND FREE ENERGY PREDICTED BY IDOCK:   -0.14 KCAL/MOL
REMARK 927      BINDING AFFINITY PREDICTED BY RF-SCORE:    0.00 PKD
ROOT
HETATM    1  N   UNL     1      -9.119  19.996  65.989  1.00  0.00    -0.535 NA 
HETATM    2  H2  UNL     1      -9.263  19.534  65.091  1.00  0.00     0.000 HD 
HETATM    3  C   UNL     1     -10.263  19.784  66.880  1.00  0.00    -0.456 C  
HETATM    4  H1  UNL     1      -8.901  20.985  65.862  1.00  0.00     0.000 HD 
ENDROOT
BRANCH   3   5
HETATM    5  C   UNL     1     -10.593  18.292  67.072  1.00  0.00    -0.349 C  
BRANCH   5   6
HETATM    6  N   UNL     1     -10.599  17.574  65.793  1.00  0.00    -0.491 NA 
HETATM    7  H   UNL     1     -10.047  18.060  65.087  1.00  0.00     0.000 HD 
BRANCH   6   8
HETATM    8  C   UNL     1     -10.158  16.183  65.959  1.00  0.00    -0.351 C  
BRANCH   8   9
HETATM    9  C   UNL     1     -11.194  15.208  65.365  1.00  0.00    -0.338 C  
BRANCH   9  10
HETATM   10  N   UNL     1     -11.362  14.011  66.209  1.00  0.00    -0.324 NA 
HETATM   11  H   UNL     1     -11.732  14.244  67.131  1.00  0.00     0.000 HD 
BRANCH  10  12
HETATM   12  C   UNL     1     -12.197  13.015  65.516  1.00  0.00    -0.469 C  
BRANCH  12  13
HETATM   13  C   UNL     1     -11.675  12.734  64.095  1.00  0.00    -0.401 C  
HETATM   14  N   UNL     1     -12.691  12.108  63.240  1.00  0.00    -0.845 NA 
HETATM   15  H1  UNL     1     -12.345  11.922  62.298  1.00  0.00     0.000 HD 
HETATM   16  H2  UNL     1     -13.544  12.667  63.215  1.00  0.00     0.000 HD 
ENDBRANCH  12  13
ENDBRANCH  10  12
ENDBRANCH   9  10
ENDBRANCH   8   9
ENDBRANCH   6   8
ENDBRANCH   5   6
ENDBRANCH   3   5
TORSDOF 7
ENDMDL
MODEL       64
REMARK 921   NORMALIZED FREE ENERGY PREDICTED BY IDOCK:   -2.97 KCAL/MOL
REMARK 922        TOTAL FREE ENERGY PREDICTED BY IDOCK:   -4.69 KCAL/MOL
REMARK 923 INTER-LIGAND FREE ENERGY PREDICTED BY IDOCK:   -4.54 KCAL/MOL
REMARK 924 INTRA-LIGAND FREE ENERGY PREDICTED BY IDOCK:   -0.15 KCAL/MOL
REMARK 927      BINDING AFFINITY PREDICTED BY RF-SCORE:    0.00 PKD
ROOT
HETATM    1  N   UNL     1     -13.306  16.231  73.901  1.00  0.00    -0.906 NA 
HETATM    2  H2  UNL     1     -13.059  17.212  73.769  1.00  0.00     0.000 HD 
HETATM    3  C   UNL     1     -13.659  15.600  72.627  1.00  0.00    -0.579 C  
HETATM    4  H1  UNL     1     -14.038  16.129  74.604  1.00  0.00     0.000 HD 
ENDROOT
BRANCH   3   5
HETATM    5  C   UNL     1     -12.554  15.755  71.566  1.00  0.00    -0.455 C  
BRANCH   5   6
HETATM    6  N   UNL     1     -12.928  15.110  70.302  1.00  0.00    -0.650 NA 
HETATM    7  H   UNL     1     -13.816  15.466  69.948  1.00  0.00     0.000 HD 
BRANCH   6   8
HETATM    8  C   UNL     1     -11.860  15.238  69.301  1.00  0.00    -0.329 C  
BRANCH   8   9
HETATM    9  C   UNL     1     -10.976  16.464  69.603  1.00  0.00    -0.329 C  
BRANCH   9  10
HETATM   10  N   UNL     1     -10.305  16.964  68.390  1.00  0.00    -0.317 NA 
HETATM   11  H   UNL     1     -10.965  17.388  67.737  1.00  0.00     0.000 HD 
BRANCH  10  12
HETATM   12  C   UNL     1      -9.220  17.890  68.754  1.00  0.00    -0.221 C  
BRANCH  12  13
HETATM   13  C   UNL     1      -9.260  19.170  67.898  1.00  0.00    -0.308 C  
HETATM   14  N   UNL     1     -10.629  19.640  67.657  1.00  0.00    -0.444 NA 
HETATM   15  H1  UNL     1     -10.656  20.487  67.090  1.00  0.00     0.000 HD 
HETATM   16  H2  UNL     1     -11.133  19.768  68.535  1.00  0.00     0.000 HD 
ENDBRANCH  12  13
ENDBRANCH  10  12
ENDBRANCH   9  10
ENDBRANCH   8   9
ENDBRANCH   6   8
ENDBRANCH   5   6
ENDBRANCH   3   5
TORSDOF 7
ENDMDL
MODEL       65
REMARK 921   NORMALIZED FREE ENERGY PREDICTED BY IDOCK:   -2.95 KCAL/MOL
REMARK 922        TOTAL FREE ENERGY PREDICTED BY IDOCK:   -4.67 KCAL/MOL
REMARK 923 INTER-LIGAND FREE ENERGY PREDICTED BY IDOCK:   -4.55 KCAL/MOL
REMARK 924 INTRA-LIGAND FREE ENERGY PREDICTED BY IDOCK:   -0.12 KCAL/MOL
REMARK 927      BINDING AFFINITY PREDICTED BY RF-SCORE:    0.00 PKD
ROOT
HETATM    1  N   UNL     1     -11.376   6.626  67.252  1.00  0.00    -0.783 NA 
HETATM    2  H2  UNL     1     -12.338   6.909  67.439  1.00  0.00     0.000 HD 
HETATM    3  C   UNL     1     -10.518   7.793  67.027  1.00  0.00    -0.349 C  
HETATM    4  H1  UNL     1     -11.334   5.956  66.484  1.00  0.00     0.000 HD 
ENDROOT
BRANCH   3   5
HETATM    5  C   UNL     1     -10.583   8.805  68.185  1.00  0.00    -0.147 C  
BRANCH   5   6
HETATM    6  N   UNL     1     -11.499   9.911  67.883  1.00  0.00    -0.563 NA 
HETATM    7  H   UNL     1     -12.442   9.718  68.219  1.00  0.00     0.000 HD 
BRANCH   6   8
HETATM    8  C   UNL     1     -10.989  11.185  68.409  1.00  0.00    -0.227 C  
BRANCH   8   9
HETATM    9  C   UNL     1     -10.433  12.060  67.269  1.00  0.00    -0.218 C  
BRANCH   9  10
HETATM   10  N   UNL     1     -11.414  13.067  66.827  1.00  0.00    -0.327 NA 
HETATM   11  H   UNL     1     -11.073  14.019  66.966  1.00  0.00     0.000 HD 
BRANCH  10  12
HETATM   12  C   UNL     1     -11.801  12.820  65.428  1.00  0.00    -0.415 C  
BRANCH  12  13
HETATM   13  C   UNL     1     -12.465  14.060  64.800  1.00  0.00    -0.365 C  
HETATM   14  N   UNL     1     -12.406  14.044  63.334  1.00  0.00    -1.154 NA 
HETATM   15  H1  UNL     1     -12.846  14.865  62.918  1.00  0.00     0.000 HD 
HETATM   16  H2  UNL     1     -12.806  13.184  62.959  1.00  0.00     0.000 HD 
ENDBRANCH  12  13
ENDBRANCH  10  12
ENDBRANCH   9  10
ENDBRANCH   8   9
ENDBRANCH   6   8
ENDBRANCH   5   6
ENDBRANCH   3   5
TORSDOF 7
ENDMDL
MODEL       66
REMARK 921   NORMALIZED FREE ENERGY PREDICTED BY IDOCK:   -2.95 KCAL/MOL
REMARK 922        TOTAL FREE ENERGY PREDICTED BY IDOCK:   -4.66 KCAL/MOL
REMARK 923 INTER-LIGAND FREE ENERGY PREDICTED BY IDOCK:   -4.55 KCAL/MOL
REMARK 924 INTRA-LIGAND FREE ENERGY PREDICTED BY IDOCK:   -0.11 KCAL/MOL
REMARK 927      BINDING AFFINITY PREDICTED BY RF-SCORE:    0.00 PKD
ROOT
HETATM    1  N   UNL     1     -11.187   8.609  68.923  1.00  0.00    -0.303 NA 
HETATM    2  H2  UNL     1     -11.083   9.209  68.105  1.00  0.00     0.000 HD 
HETATM    3  C   UNL     1     -10.748   9.296  70.141  1.00  0.00    -0.235 C  
HETATM    4  H1  UNL     1     -10.713   7.716  68.786  1.00  0.00     0.000 HD 
ENDROOT
BRANCH   3   5
HETATM    5  C   UNL     1     -11.464  10.643  70.348  1.00  0.00    -0.334 C  
BRANCH   5   6
HETATM    6  N   UNL     1     -10.922  11.682  69.466  1.00  0.00    -0.444 NA 
HETATM    7  H   UNL     1     -10.045  11.388  69.036  1.00  0.00     0.000 HD 
BRANCH   6   8
HETATM    8  C   UNL     1     -11.908  12.092  68.456  1.00  0.00    -0.311 C  
BRANCH   8   9
HETATM    9  C   UNL     1     -11.206  12.494  67.143  1.00  0.00    -0.300 C  
BRANCH   9  10
HETATM   10  N   UNL     1     -12.081  12.295  65.975  1.00  0.00    -0.630 NA 
HETATM   11  H   UNL     1     -12.826  12.992  65.933  1.00  0.00     0.000 HD 
BRANCH  10  12
HETATM   12  C   UNL     1     -11.281  12.271  64.739  1.00  0.00    -0.318 C  
BRANCH  12  13
HETATM   13  C   UNL     1     -12.166  12.451  63.491  1.00  0.00    -0.563 C  
HETATM   14  N   UNL     1     -12.394  13.864  63.167  1.00  0.00    -1.106 NA 
HETATM   15  H1  UNL     1     -12.980  13.984  62.341  1.00  0.00     0.000 HD 
HETATM   16  H2  UNL     1     -11.512  14.366  63.067  1.00  0.00     0.000 HD 
ENDBRANCH  12  13
ENDBRANCH  10  12
ENDBRANCH   9  10
ENDBRANCH   8   9
ENDBRANCH   6   8
ENDBRANCH   5   6
ENDBRANCH   3   5
TORSDOF 7
ENDMDL
MODEL       67
REMARK 921   NORMALIZED FREE ENERGY PREDICTED BY IDOCK:   -2.94 KCAL/MOL
REMARK 922        TOTAL FREE ENERGY PREDICTED BY IDOCK:   -4.65 KCAL/MOL
REMARK 923 INTER-LIGAND FREE ENERGY PREDICTED BY IDOCK:   -4.51 KCAL/MOL
REMARK 924 INTRA-LIGAND FREE ENERGY PREDICTED BY IDOCK:   -0.14 KCAL/MOL
REMARK 927      BINDING AFFINITY PREDICTED BY RF-SCORE:    0.00 PKD
ROOT
HETATM    1  N   UNL     1     -12.117  13.405  63.248  1.00  0.00    -0.885 NA 
HETATM    2  H2  UNL     1     -11.107  13.544  63.281  1.00  0.00     0.000 HD 
HETATM    3  C   UNL     1     -12.612  12.832  64.503  1.00  0.00    -0.389 C  
HETATM    4  H1  UNL     1     -12.384  12.851  62.434  1.00  0.00     0.000 HD 
ENDROOT
BRANCH   3   5
HETATM    5  C   UNL     1     -12.209  13.667  65.732  1.00  0.00    -0.464 C  
BRANCH   5   6
HETATM    6  N   UNL     1     -10.777  13.537  66.025  1.00  0.00    -0.277 NA 
HETATM    7  H   UNL     1     -10.350  14.443  66.216  1.00  0.00     0.000 HD 
BRANCH   6   8
HETATM    8  C   UNL     1     -10.541  12.588  67.122  1.00  0.00    -0.228 C  
BRANCH   8   9
HETATM    9  C   UNL     1     -11.739  12.570  68.092  1.00  0.00    -0.348 C  
BRANCH   9  10
HETATM   10  N   UNL     1     -12.231  11.200  68.325  1.00  0.00    -0.709 NA 
HETATM   11  H   UNL     1     -12.030  10.584  67.536  1.00  0.00     0.000 HD 
BRANCH  10  12
HETATM   12  C   UNL     1     -11.687  10.672  69.587  1.00  0.00    -0.296 C  
BRANCH  12  13
HETATM   13  C   UNL     1     -12.727  10.740  70.721  1.00  0.00    -0.360 C  
HETATM   14  N   UNL     1     -13.278   9.421  71.054  1.00  0.00    -0.558 NA 
HETATM   15  H1  UNL     1     -13.967   9.466  71.805  1.00  0.00     0.000 HD 
HETATM   16  H2  UNL     1     -12.535   8.758  71.276  1.00  0.00     0.000 HD 
ENDBRANCH  12  13
ENDBRANCH  10  12
ENDBRANCH   9  10
ENDBRANCH   8   9
ENDBRANCH   6   8
ENDBRANCH   5   6
ENDBRANCH   3   5
TORSDOF 7
ENDMDL
MODEL       68
REMARK 921   NORMALIZED FREE ENERGY PREDICTED BY IDOCK:   -2.93 KCAL/MOL
REMARK 922        TOTAL FREE ENERGY PREDICTED BY IDOCK:   -4.64 KCAL/MOL
REMARK 923 INTER-LIGAND FREE ENERGY PREDICTED BY IDOCK:   -4.31 KCAL/MOL
REMARK 924 INTRA-LIGAND FREE ENERGY PREDICTED BY IDOCK:   -0.33 KCAL/MOL
REMARK 927      BINDING AFFINITY PREDICTED BY RF-SCORE:    0.00 PKD
ROOT
HETATM    1  N   UNL     1     -12.515  14.463  68.633  1.00  0.00    -0.550 NA 
HETATM    2  H2  UNL     1     -12.981  13.569  68.793  1.00  0.00     0.000 HD 
HETATM    3  C   UNL     1     -11.561  14.370  67.525  1.00  0.00    -0.373 C  
HETATM    4  H1  UNL     1     -12.086  14.810  69.491  1.00  0.00     0.000 HD 
ENDROOT
BRANCH   3   5
HETATM    5  C   UNL     1     -12.208  13.845  66.231  1.00  0.00    -0.461 C  
BRANCH   5   6
HETATM    6  N   UNL     1     -12.207  12.379  66.185  1.00  0.00    -0.609 NA 
HETATM    7  H   UNL     1     -12.559  12.032  65.293  1.00  0.00     0.000 HD 
BRANCH   6   8
HETATM    8  C   UNL     1     -10.874  11.837  66.486  1.00  0.00    -0.282 C  
BRANCH   8   9
HETATM    9  C   UNL     1     -10.982  10.620  67.426  1.00  0.00    -0.298 C  
BRANCH   9  10
HETATM   10  N   UNL     1     -12.084  10.773  68.391  1.00  0.00    -0.827 NA 
HETATM   11  H   UNL     1     -12.775  10.027  68.302  1.00  0.00     0.000 HD 
BRANCH  10  12
HETATM   12  C   UNL     1     -11.551  10.869  69.760  1.00  0.00    -0.322 C  
BRANCH  12  13
HETATM   13  C   UNL     1     -10.921   9.538  70.214  1.00  0.00    -0.269 C  
HETATM   14  N   UNL     1     -10.766   9.460  71.671  1.00  0.00    -0.321 NA 
HETATM   15  H1  UNL     1     -10.349   8.579  71.971  1.00  0.00     0.000 HD 
HETATM   16  H2  UNL     1     -11.654   9.627  72.144  1.00  0.00     0.000 HD 
ENDBRANCH  12  13
ENDBRANCH  10  12
ENDBRANCH   9  10
ENDBRANCH   8   9
ENDBRANCH   6   8
ENDBRANCH   5   6
ENDBRANCH   3   5
TORSDOF 7
ENDMDL
MODEL       69
REMARK 921   NORMALIZED FREE ENERGY PREDICTED BY IDOCK:   -2.93 KCAL/MOL
REMARK 922        TOTAL FREE ENERGY PREDICTED BY IDOCK:   -4.63 KCAL/MOL
REMARK 923 INTER-LIGAND FREE ENERGY PREDICTED BY IDOCK:   -4.46 KCAL/MOL
REMARK 924 INTRA-LIGAND FREE ENERGY PREDICTED BY IDOCK:   -0.17 KCAL/MOL
REMARK 927      BINDING AFFINITY PREDICTED BY RF-SCORE:    0.00 PKD
ROOT
HETATM    1  N   UNL     1     -13.247  15.777  72.209  1.00  0.00    -0.459 NA 
HETATM    2  H2  UNL     1     -14.098  15.907  71.661  1.00  0.00     0.000 HD 
HETATM    3  C   UNL     1     -13.190  14.430  72.783  1.00  0.00    -0.520 C  
HETATM    4  H1  UNL     1     -13.152  16.507  72.915  1.00  0.00     0.000 HD 
ENDROOT
BRANCH   3   5
HETATM    5  C   UNL     1     -13.334  13.328  71.717  1.00  0.00    -0.393 C  
BRANCH   5   6
HETATM    6  N   UNL     1     -13.533  12.010  72.330  1.00  0.00    -0.525 NA 
HETATM    7  H   UNL     1     -14.523  11.799  72.453  1.00  0.00     0.000 HD 
BRANCH   6   8
HETATM    8  C   UNL     1     -12.848  10.958  71.566  1.00  0.00    -0.454 C  
BRANCH   8   9
HETATM    9  C   UNL     1     -12.063  11.566  70.387  1.00  0.00    -0.382 C  
BRANCH   9  10
HETATM   10  N   UNL     1     -12.340  10.858  69.125  1.00  0.00    -0.693 NA 
HETATM   11  H   UNL     1     -13.328  10.902  68.872  1.00  0.00     0.000 HD 
BRANCH  10  12
HETATM   12  C   UNL     1     -11.474  11.374  68.051  1.00  0.00    -0.307 C  
BRANCH  12  13
HETATM   13  C   UNL     1     -10.488  10.299  67.557  1.00  0.00    -0.244 C  
HETATM   14  N   UNL     1     -10.991   8.938  67.769  1.00  0.00    -0.487 NA 
HETATM   15  H1  UNL     1     -10.338   8.226  67.442  1.00  0.00     0.000 HD 
HETATM   16  H2  UNL     1     -11.911   8.816  67.345  1.00  0.00     0.000 HD 
ENDBRANCH  12  13
ENDBRANCH  10  12
ENDBRANCH   9  10
ENDBRANCH   8   9
ENDBRANCH   6   8
ENDBRANCH   5   6
ENDBRANCH   3   5
TORSDOF 7
ENDMDL
MODEL       70
REMARK 921   NORMALIZED FREE ENERGY PREDICTED BY IDOCK:   -2.92 KCAL/MOL
REMARK 922        TOTAL FREE ENERGY PREDICTED BY IDOCK:   -4.62 KCAL/MOL
REMARK 923 INTER-LIGAND FREE ENERGY PREDICTED BY IDOCK:   -4.03 KCAL/MOL
REMARK 924 INTRA-LIGAND FREE ENERGY PREDICTED BY IDOCK:   -0.60 KCAL/MOL
REMARK 927      BINDING AFFINITY PREDICTED BY RF-SCORE:    0.00 PKD
ROOT
HETATM    1  N   UNL     1     -12.164  12.906  70.894  1.00  0.00    -0.447 NA 
HETATM    2  H2  UNL     1     -12.295  13.351  69.986  1.00  0.00     0.000 HD 
HETATM    3  C   UNL     1     -12.414  11.464  70.815  1.00  0.00    -0.365 C  
HETATM    4  H1  UNL     1     -12.728  13.362  71.611  1.00  0.00     0.000 HD 
ENDROOT
BRANCH   3   5
HETATM    5  C   UNL     1     -11.562  10.776  69.733  1.00  0.00    -0.317 C  
BRANCH   5   6
HETATM    6  N   UNL     1     -12.205  10.848  68.416  1.00  0.00    -0.810 NA 
HETATM    7  H   UNL     1     -13.134  11.264  68.475  1.00  0.00     0.000 HD 
BRANCH   6   8
HETATM    8  C   UNL     1     -11.357  11.557  67.447  1.00  0.00    -0.298 C  
BRANCH   8   9
HETATM    9  C   UNL     1     -11.766  13.041  67.351  1.00  0.00    -0.374 C  
BRANCH   9  10
HETATM   10  N   UNL     1     -10.936  13.892  68.221  1.00  0.00    -0.247 NA 
HETATM   11  H   UNL     1      -9.979  13.973  67.875  1.00  0.00     0.000 HD 
BRANCH  10  12
HETATM   12  C   UNL     1     -11.570  15.209  68.398  1.00  0.00    -0.337 C  
BRANCH  12  13
HETATM   13  C   UNL     1     -10.973  15.965  69.600  1.00  0.00    -0.319 C  
HETATM   14  N   UNL     1     -11.927  16.099  70.706  1.00  0.00    -0.513 NA 
HETATM   15  H1  UNL     1     -11.532  16.600  71.502  1.00  0.00     0.000 HD 
HETATM   16  H2  UNL     1     -12.293  15.190  70.989  1.00  0.00     0.000 HD 
ENDBRANCH  12  13
ENDBRANCH  10  12
ENDBRANCH   9  10
ENDBRANCH   8   9
ENDBRANCH   6   8
ENDBRANCH   5   6
ENDBRANCH   3   5
TORSDOF 7
ENDMDL
MODEL       71
REMARK 921   NORMALIZED FREE ENERGY PREDICTED BY IDOCK:   -2.91 KCAL/MOL
REMARK 922        TOTAL FREE ENERGY PREDICTED BY IDOCK:   -4.60 KCAL/MOL
REMARK 923 INTER-LIGAND FREE ENERGY PREDICTED BY IDOCK:   -4.39 KCAL/MOL
REMARK 924 INTRA-LIGAND FREE ENERGY PREDICTED BY IDOCK:   -0.22 KCAL/MOL
REMARK 927      BINDING AFFINITY PREDICTED BY RF-SCORE:    0.00 PKD
ROOT
HETATM    1  N   UNL     1     -12.240  10.768  68.738  1.00  0.00    -0.814 NA 
HETATM    2  H2  UNL     1     -12.502  11.222  69.613  1.00  0.00     0.000 HD 
HETATM    3  C   UNL     1     -11.155  11.494  68.072  1.00  0.00    -0.254 C  
HETATM    4  H1  UNL     1     -13.053  10.639  68.135  1.00  0.00     0.000 HD 
ENDROOT
BRANCH   3   5
HETATM    5  C   UNL     1      -9.930  11.689  68.983  1.00  0.00     0.019 C  
BRANCH   5   6
HETATM    6  N   UNL     1      -9.032  12.726  68.461  1.00  0.00    -0.369 NA 
HETATM    7  H   UNL     1      -8.455  12.373  67.698  1.00  0.00     0.000 HD 
BRANCH   6   8
HETATM    8  C   UNL     1      -9.779  13.927  68.062  1.00  0.00    -0.226 C  
BRANCH   8   9
HETATM    9  C   UNL     1      -9.155  14.562  66.803  1.00  0.00    -0.261 C  
BRANCH   9  10
HETATM   10  N   UNL     1      -9.728  14.000  65.568  1.00  0.00    -0.533 NA 
HETATM   11  H   UNL     1      -9.948  13.008  65.667  1.00  0.00     0.000 HD 
BRANCH  10  12
HETATM   12  C   UNL     1     -10.903  14.784  65.151  1.00  0.00    -0.404 C  
BRANCH  12  13
HETATM   13  C   UNL     1     -12.056  13.870  64.694  1.00  0.00    -0.431 C  
HETATM   14  N   UNL     1     -12.418  14.088  63.288  1.00  0.00    -1.112 NA 
HETATM   15  H1  UNL     1     -13.182  13.483  62.986  1.00  0.00     0.000 HD 
HETATM   16  H2  UNL     1     -11.606  13.987  62.680  1.00  0.00     0.000 HD 
ENDBRANCH  12  13
ENDBRANCH  10  12
ENDBRANCH   9  10
ENDBRANCH   8   9
ENDBRANCH   6   8
ENDBRANCH   5   6
ENDBRANCH   3   5
TORSDOF 7
ENDMDL
MODEL       72
REMARK 921   NORMALIZED FREE ENERGY PREDICTED BY IDOCK:   -2.90 KCAL/MOL
REMARK 922        TOTAL FREE ENERGY PREDICTED BY IDOCK:   -4.59 KCAL/MOL
REMARK 923 INTER-LIGAND FREE ENERGY PREDICTED BY IDOCK:   -4.40 KCAL/MOL
REMARK 924 INTRA-LIGAND FREE ENERGY PREDICTED BY IDOCK:   -0.19 KCAL/MOL
REMARK 927      BINDING AFFINITY PREDICTED BY RF-SCORE:    0.00 PKD
ROOT
HETATM    1  N   UNL     1     -12.352  14.008  63.401  1.00  0.00    -1.154 NA 
HETATM    2  H2  UNL     1     -11.641  14.627  63.791  1.00  0.00     0.000 HD 
HETATM    3  C   UNL     1     -11.869  12.625  63.336  1.00  0.00    -0.514 C  
HETATM    4  H1  UNL     1     -12.681  14.350  62.498  1.00  0.00     0.000 HD 
ENDROOT
BRANCH   3   5
HETATM    5  C   UNL     1     -11.372  12.109  64.699  1.00  0.00    -0.326 C  
BRANCH   5   6
HETATM    6  N   UNL     1     -12.264  12.523  65.788  1.00  0.00    -0.626 NA 
HETATM    7  H   UNL     1     -13.188  12.102  65.696  1.00  0.00     0.000 HD 
BRANCH   6   8
HETATM    8  C   UNL     1     -11.670  12.236  67.102  1.00  0.00    -0.326 C  
BRANCH   8   9
HETATM    9  C   UNL     1     -11.721  13.484  68.005  1.00  0.00    -0.359 C  
BRANCH   9  10
HETATM   10  N   UNL     1     -10.603  13.507  68.965  1.00  0.00    -0.404 NA 
HETATM   11  H   UNL     1     -10.282  12.567  69.199  1.00  0.00     0.000 HD 
BRANCH  10  12
HETATM   12  C   UNL     1      -9.511  14.351  68.453  1.00  0.00    -0.207 C  
BRANCH  12  13
HETATM   13  C   UNL     1      -8.297  13.503  68.028  1.00  0.00    -0.168 C  
HETATM   14  N   UNL     1      -8.272  12.191  68.686  1.00  0.00    -0.315 NA 
HETATM   15  H1  UNL     1      -7.469  11.630  68.405  1.00  0.00     0.000 HD 
HETATM   16  H2  UNL     1      -9.145  11.687  68.532  1.00  0.00     0.000 HD 
ENDBRANCH  12  13
ENDBRANCH  10  12
ENDBRANCH   9  10
ENDBRANCH   8   9
ENDBRANCH   6   8
ENDBRANCH   5   6
ENDBRANCH   3   5
TORSDOF 7
ENDMDL
MODEL       73
REMARK 921   NORMALIZED FREE ENERGY PREDICTED BY IDOCK:   -2.88 KCAL/MOL
REMARK 922        TOTAL FREE ENERGY PREDICTED BY IDOCK:   -4.57 KCAL/MOL
REMARK 923 INTER-LIGAND FREE ENERGY PREDICTED BY IDOCK:   -3.92 KCAL/MOL
REMARK 924 INTRA-LIGAND FREE ENERGY PREDICTED BY IDOCK:   -0.65 KCAL/MOL
REMARK 927      BINDING AFFINITY PREDICTED BY RF-SCORE:    0.00 PKD
ROOT
HETATM    1  N   UNL     1      -9.864   9.892  70.386  1.00  0.00    -0.377 NA 
HETATM    2  H2  UNL     1     -10.303   9.370  71.144  1.00  0.00     0.000 HD 
HETATM    3  C   UNL     1     -10.848  10.273  69.369  1.00  0.00    -0.245 C  
HETATM    4  H1  UNL     1      -9.076   9.376  69.994  1.00  0.00     0.000 HD 
ENDROOT
BRANCH   3   5
HETATM    5  C   UNL     1     -12.037  11.051  69.960  1.00  0.00    -0.364 C  
BRANCH   5   6
HETATM    6  N   UNL     1     -13.115  10.148  70.382  1.00  0.00    -0.583 NA 
HETATM    7  H   UNL     1     -12.993   9.213  69.993  1.00  0.00     0.000 HD 
BRANCH   6   8
HETATM    8  C   UNL     1     -13.239  10.113  71.845  1.00  0.00    -0.452 C  
BRANCH   8   9
HETATM    9  C   UNL     1     -13.058   8.675  72.372  1.00  0.00    -0.349 C  
BRANCH   9  10
HETATM   10  N   UNL     1     -11.652   8.241  72.296  1.00  0.00    -0.358 NA 
HETATM   11  H   UNL     1     -11.113   8.552  73.105  1.00  0.00     0.000 HD 
BRANCH  10  12
HETATM   12  C   UNL     1     -11.580   6.781  72.115  1.00  0.00    -0.288 C  
BRANCH  12  13
HETATM   13  C   UNL     1     -10.901   6.412  70.782  1.00  0.00    -0.267 C  
HETATM   14  N   UNL     1     -11.683   6.840  69.617  1.00  0.00    -0.642 NA 
HETATM   15  H1  UNL     1     -11.233   6.596  68.735  1.00  0.00     0.000 HD 
HETATM   16  H2  UNL     1     -11.890   7.838  69.661  1.00  0.00     0.000 HD 
ENDBRANCH  12  13
ENDBRANCH  10  12
ENDBRANCH   9  10
ENDBRANCH   8   9
ENDBRANCH   6   8
ENDBRANCH   5   6
ENDBRANCH   3   5
TORSDOF 7
ENDMDL
MODEL       74
REMARK 921   NORMALIZED FREE ENERGY PREDICTED BY IDOCK:   -2.88 KCAL/MOL
REMARK 922        TOTAL FREE ENERGY PREDICTED BY IDOCK:   -4.57 KCAL/MOL
REMARK 923 INTER-LIGAND FREE ENERGY PREDICTED BY IDOCK:   -3.95 KCAL/MOL
REMARK 924 INTRA-LIGAND FREE ENERGY PREDICTED BY IDOCK:   -0.61 KCAL/MOL
REMARK 927      BINDING AFFINITY PREDICTED BY RF-SCORE:    0.00 PKD
ROOT
HETATM    1  N   UNL     1      -6.571  19.025  64.784  1.00  0.00    -0.451 NA 
HETATM    2  H2  UNL     1      -7.372  18.872  65.397  1.00  0.00     0.000 HD 
HETATM    3  C   UNL     1      -6.185  20.439  64.766  1.00  0.00    -0.290 C  
HETATM    4  H1  UNL     1      -6.748  18.656  63.850  1.00  0.00     0.000 HD 
ENDROOT
BRANCH   3   5
HETATM    5  C   UNL     1      -5.919  20.997  66.176  1.00  0.00    -0.259 C  
BRANCH   5   6
HETATM    6  N   UNL     1      -7.168  21.356  66.857  1.00  0.00    -0.829 NA 
HETATM    7  H   UNL     1      -7.919  21.535  66.191  1.00  0.00     0.000 HD 
BRANCH   6   8
HETATM    8  C   UNL     1      -7.552  20.335  67.841  1.00  0.00    -0.244 C  
BRANCH   8   9
HETATM    9  C   UNL     1      -9.057  20.019  67.739  1.00  0.00    -0.320 C  
BRANCH   9  10
HETATM   10  N   UNL     1      -9.401  19.418  66.438  1.00  0.00    -0.355 NA 
HETATM   11  H   UNL     1      -8.596  18.965  66.004  1.00  0.00     0.000 HD 
BRANCH  10  12
HETATM   12  C   UNL     1     -10.537  18.494  66.590  1.00  0.00    -0.342 C  
BRANCH  12  13
HETATM   13  C   UNL     1     -10.187  17.082  66.084  1.00  0.00    -0.337 C  
HETATM   14  N   UNL     1      -8.740  16.879  65.949  1.00  0.00    -0.524 NA 
HETATM   15  H1  UNL     1      -8.507  15.945  65.615  1.00  0.00     0.000 HD 
HETATM   16  H2  UNL     1      -8.256  17.088  66.823  1.00  0.00     0.000 HD 
ENDBRANCH  12  13
ENDBRANCH  10  12
ENDBRANCH   9  10
ENDBRANCH   8   9
ENDBRANCH   6   8
ENDBRANCH   5   6
ENDBRANCH   3   5
TORSDOF 7
ENDMDL
MODEL       75
REMARK 921   NORMALIZED FREE ENERGY PREDICTED BY IDOCK:   -2.87 KCAL/MOL
REMARK 922        TOTAL FREE ENERGY PREDICTED BY IDOCK:   -4.54 KCAL/MOL
REMARK 923 INTER-LIGAND FREE ENERGY PREDICTED BY IDOCK:   -4.38 KCAL/MOL
REMARK 924 INTRA-LIGAND FREE ENERGY PREDICTED BY IDOCK:   -0.16 KCAL/MOL
REMARK 927      BINDING AFFINITY PREDICTED BY RF-SCORE:    0.00 PKD
ROOT
HETATM    1  N   UNL     1      -9.370   5.568  65.157  1.00  0.00    -0.360 NA 
HETATM    2  H2  UNL     1      -8.799   6.292  64.721  1.00  0.00     0.000 HD 
HETATM    3  C   UNL     1      -9.662   5.897  66.555  1.00  0.00    -0.155 C  
HETATM    4  H1  UNL     1      -8.939   4.649  65.054  1.00  0.00     0.000 HD 
ENDROOT
BRANCH   3   5
HETATM    5  C   UNL     1     -10.312   7.284  66.711  1.00  0.00    -0.241 C  
BRANCH   5   6
HETATM    6  N   UNL     1     -11.095   7.375  67.949  1.00  0.00    -0.491 NA 
HETATM    7  H   UNL     1     -12.059   7.650  67.763  1.00  0.00     0.000 HD 
BRANCH   6   8
HETATM    8  C   UNL     1     -11.030   6.122  68.715  1.00  0.00    -0.348 C  
BRANCH   8   9
HETATM    9  C   UNL     1     -11.467   6.354  70.175  1.00  0.00    -0.417 C  
BRANCH   9  10
HETATM   10  N   UNL     1     -11.940   7.733  70.389  1.00  0.00    -0.480 NA 
HETATM   11  H   UNL     1     -12.138   8.210  69.508  1.00  0.00     0.000 HD 
BRANCH  10  12
HETATM   12  C   UNL     1     -13.105   7.736  71.289  1.00  0.00    -0.206 C  
BRANCH  12  13
HETATM   13  C   UNL     1     -13.110   8.979  72.200  1.00  0.00    -0.435 C  
HETATM   14  N   UNL     1     -14.065   8.857  73.307  1.00  0.00    -1.248 NA 
HETATM   15  H1  UNL     1     -14.068   9.679  73.910  1.00  0.00     0.000 HD 
HETATM   16  H2  UNL     1     -13.897   8.007  73.845  1.00  0.00     0.000 HD 
ENDBRANCH  12  13
ENDBRANCH  10  12
ENDBRANCH   9  10
ENDBRANCH   8   9
ENDBRANCH   6   8
ENDBRANCH   5   6
ENDBRANCH   3   5
TORSDOF 7
ENDMDL
MODEL       76
REMARK 921   NORMALIZED FREE ENERGY PREDICTED BY IDOCK:   -2.86 KCAL/MOL
REMARK 922        TOTAL FREE ENERGY PREDICTED BY IDOCK:   -4.54 KCAL/MOL
REMARK 923 INTER-LIGAND FREE ENERGY PREDICTED BY IDOCK:   -4.45 KCAL/MOL
REMARK 924 INTRA-LIGAND FREE ENERGY PREDICTED BY IDOCK:   -0.09 KCAL/MOL
REMARK 927      BINDING AFFINITY PREDICTED BY RF-SCORE:    0.00 PKD
ROOT
HETATM    1  N   UNL     1     -11.007   5.449  66.139  1.00  0.00    -0.767 NA 
HETATM    2  H2  UNL     1     -10.167   4.882  66.258  1.00  0.00     0.000 HD 
HETATM    3  C   UNL     1     -11.011   6.587  67.063  1.00  0.00    -0.396 C  
HETATM    4  H1  UNL     1     -11.849   4.878  66.220  1.00  0.00     0.000 HD 
ENDROOT
BRANCH   3   5
HETATM    5  C   UNL     1      -9.741   7.449  66.942  1.00  0.00    -0.205 C  
BRANCH   5   6
HETATM    6  N   UNL     1      -9.777   8.295  65.744  1.00  0.00    -0.426 NA 
HETATM    7  H   UNL     1     -10.706   8.313  65.326  1.00  0.00     0.000 HD 
BRANCH   6   8
HETATM    8  C   UNL     1      -9.288   9.650  66.033  1.00  0.00    -0.207 C  
BRANCH   8   9
HETATM    9  C   UNL     1     -10.467  10.629  66.201  1.00  0.00    -0.194 C  
BRANCH   9  10
HETATM   10  N   UNL     1     -10.583  11.544  65.052  1.00  0.00    -0.287 NA 
HETATM   11  H   UNL     1     -10.424  11.065  64.165  1.00  0.00     0.000 HD 
BRANCH  10  12
HETATM   12  C   UNL     1     -11.884  12.233  65.080  1.00  0.00    -0.350 C  
BRANCH  12  13
HETATM   13  C   UNL     1     -12.471  12.385  63.664  1.00  0.00    -0.508 C  
HETATM   14  N   UNL     1     -12.389  13.764  63.170  1.00  0.00    -1.106 NA 
HETATM   15  H1  UNL     1     -12.777  13.865  62.232  1.00  0.00     0.000 HD 
HETATM   16  H2  UNL     1     -11.431  14.112  63.210  1.00  0.00     0.000 HD 
ENDBRANCH  12  13
ENDBRANCH  10  12
ENDBRANCH   9  10
ENDBRANCH   8   9
ENDBRANCH   6   8
ENDBRANCH   5   6
ENDBRANCH   3   5
TORSDOF 7
ENDMDL
MODEL       77
REMARK 921   NORMALIZED FREE ENERGY PREDICTED BY IDOCK:   -2.86 KCAL/MOL
REMARK 922        TOTAL FREE ENERGY PREDICTED BY IDOCK:   -4.54 KCAL/MOL
REMARK 923 INTER-LIGAND FREE ENERGY PREDICTED BY IDOCK:   -4.40 KCAL/MOL
REMARK 924 INTRA-LIGAND FREE ENERGY PREDICTED BY IDOCK:   -0.13 KCAL/MOL
REMARK 927      BINDING AFFINITY PREDICTED BY RF-SCORE:    0.00 PKD
ROOT
HETATM    1  N   UNL     1     -14.347   8.847  73.164  1.00  0.00    -1.145 NA 
HETATM    2  H2  UNL     1     -15.229   9.069  72.703  1.00  0.00     0.000 HD 
HETATM    3  C   UNL     1     -13.221   8.963  72.233  1.00  0.00    -0.447 C  
HETATM    4  H1  UNL     1     -14.390   7.932  73.614  1.00  0.00     0.000 HD 
ENDROOT
BRANCH   3   5
HETATM    5  C   UNL     1     -13.157  10.343  71.554  1.00  0.00    -0.431 C  
BRANCH   5   6
HETATM    6  N   UNL     1     -12.591  10.252  70.204  1.00  0.00    -0.539 NA 
HETATM    7  H   UNL     1     -13.319  10.152  69.498  1.00  0.00     0.000 HD 
BRANCH   6   8
HETATM    8  C   UNL     1     -11.714  11.396  69.915  1.00  0.00    -0.346 C  
BRANCH   8   9
HETATM    9  C   UNL     1     -10.454  10.937  69.156  1.00  0.00    -0.221 C  
BRANCH   9  10
HETATM   10  N   UNL     1     -10.544   9.521  68.757  1.00  0.00    -0.221 NA 
HETATM   11  H   UNL     1     -11.324   9.046  69.212  1.00  0.00     0.000 HD 
BRANCH  10  12
HETATM   12  C   UNL     1     -10.611   9.409  67.291  1.00  0.00    -0.244 C  
BRANCH  12  13
HETATM   13  C   UNL     1      -9.942   8.114  66.793  1.00  0.00    -0.279 C  
HETATM   14  N   UNL     1     -10.883   6.990  66.721  1.00  0.00    -0.530 NA 
HETATM   15  H1  UNL     1     -10.440   6.132  66.392  1.00  0.00     0.000 HD 
HETATM   16  H2  UNL     1     -11.695   7.227  66.152  1.00  0.00     0.000 HD 
ENDBRANCH  12  13
ENDBRANCH  10  12
ENDBRANCH   9  10
ENDBRANCH   8   9
ENDBRANCH   6   8
ENDBRANCH   5   6
ENDBRANCH   3   5
TORSDOF 7
ENDMDL
MODEL       78
REMARK 921   NORMALIZED FREE ENERGY PREDICTED BY IDOCK:   -2.86 KCAL/MOL
REMARK 922        TOTAL FREE ENERGY PREDICTED BY IDOCK:   -4.53 KCAL/MOL
REMARK 923 INTER-LIGAND FREE ENERGY PREDICTED BY IDOCK:   -4.40 KCAL/MOL
REMARK 924 INTRA-LIGAND FREE ENERGY PREDICTED BY IDOCK:   -0.13 KCAL/MOL
REMARK 927      BINDING AFFINITY PREDICTED BY RF-SCORE:    0.00 PKD
ROOT
HETATM    1  N   UNL     1     -11.667  16.234  63.871  1.00  0.00    -1.518 NA 
HETATM    2  H2  UNL     1     -10.657  16.353  63.797  1.00  0.00     0.000 HD 
HETATM    3  C   UNL     1     -12.007  14.889  64.344  1.00  0.00    -0.394 C  
HETATM    4  H1  UNL     1     -12.128  16.467  62.991  1.00  0.00     0.000 HD 
ENDROOT
BRANCH   3   5
HETATM    5  C   UNL     1     -11.311  14.538  65.671  1.00  0.00    -0.336 C  
BRANCH   5   6
HETATM    6  N   UNL     1     -12.276  14.103  66.687  1.00  0.00    -0.483 NA 
HETATM    7  H   UNL     1     -13.175  13.863  66.270  1.00  0.00     0.000 HD 
BRANCH   6   8
HETATM    8  C   UNL     1     -11.742  12.996  67.491  1.00  0.00    -0.370 C  
BRANCH   8   9
HETATM    9  C   UNL     1     -10.222  13.155  67.695  1.00  0.00    -0.224 C  
BRANCH   9  10
HETATM   10  N   UNL     1      -9.734  12.338  68.820  1.00  0.00    -0.411 NA 
HETATM   11  H   UNL     1     -10.348  12.403  69.633  1.00  0.00     0.000 HD 
BRANCH  10  12
HETATM   12  C   UNL     1      -9.539  10.944  68.388  1.00  0.00    -0.177 C  
BRANCH  12  13
HETATM   13  C   UNL     1      -8.142  10.424  68.775  1.00  0.00    -0.125 C  
HETATM   14  N   UNL     1      -7.529  11.214  69.848  1.00  0.00    -0.361 NA 
HETATM   15  H1  UNL     1      -6.603  10.871  70.105  1.00  0.00     0.000 HD 
HETATM   16  H2  UNL     1      -8.141  11.265  70.663  1.00  0.00     0.000 HD 
ENDBRANCH  12  13
ENDBRANCH  10  12
ENDBRANCH   9  10
ENDBRANCH   8   9
ENDBRANCH   6   8
ENDBRANCH   5   6
ENDBRANCH   3   5
TORSDOF 7
ENDMDL
MODEL       79
REMARK 921   NORMALIZED FREE ENERGY PREDICTED BY IDOCK:   -2.85 KCAL/MOL
REMARK 922        TOTAL FREE ENERGY PREDICTED BY IDOCK:   -4.52 KCAL/MOL
REMARK 923 INTER-LIGAND FREE ENERGY PREDICTED BY IDOCK:   -4.28 KCAL/MOL
REMARK 924 INTRA-LIGAND FREE ENERGY PREDICTED BY IDOCK:   -0.24 KCAL/MOL
REMARK 927      BINDING AFFINITY PREDICTED BY RF-SCORE:    0.00 PKD
ROOT
HETATM    1  N   UNL     1      -6.920  10.715  64.883  1.00  0.00    -0.361 NA 
HETATM    2  H2  UNL     1      -7.178  10.496  65.845  1.00  0.00     0.000 HD 
HETATM    3  C   UNL     1      -7.768   9.991  63.931  1.00  0.00    -0.145 C  
HETATM    4  H1  UNL     1      -5.926  10.551  64.724  1.00  0.00     0.000 HD 
ENDROOT
BRANCH   3   5
HETATM    5  C   UNL     1      -9.268  10.238  64.172  1.00  0.00    -0.267 C  
BRANCH   5   6
HETATM    6  N   UNL     1      -9.787   9.390  65.250  1.00  0.00    -0.438 NA 
HETATM    7  H   UNL     1      -9.097   8.704  65.552  1.00  0.00     0.000 HD 
BRANCH   6   8
HETATM    8  C   UNL     1     -10.272  10.199  66.378  1.00  0.00    -0.221 C  
BRANCH   8   9
HETATM    9  C   UNL     1     -10.492  11.661  65.943  1.00  0.00    -0.255 C  
BRANCH   9  10
HETATM   10  N   UNL     1     -11.866  12.112  66.226  1.00  0.00    -0.594 NA 
HETATM   11  H   UNL     1     -11.904  12.737  67.033  1.00  0.00     0.000 HD 
BRANCH  10  12
HETATM   12  C   UNL     1     -12.456  12.728  65.026  1.00  0.00    -0.506 C  
BRANCH  12  13
HETATM   13  C   UNL     1     -12.417  14.266  65.105  1.00  0.00    -0.416 C  
HETATM   14  N   UNL     1     -12.296  14.891  63.783  1.00  0.00    -1.071 NA 
HETATM   15  H1  UNL     1     -12.270  15.909  63.835  1.00  0.00     0.000 HD 
HETATM   16  H2  UNL     1     -13.036  14.573  63.157  1.00  0.00     0.000 HD 
ENDBRANCH  12  13
ENDBRANCH  10  12
ENDBRANCH   9  10
ENDBRANCH   8   9
ENDBRANCH   6   8
ENDBRANCH   5   6
ENDBRANCH   3   5
TORSDOF 7
ENDMDL
MODEL       80
REMARK 921   NORMALIZED FREE ENERGY PREDICTED BY IDOCK:   -2.85 KCAL/MOL
REMARK 922        TOTAL FREE ENERGY PREDICTED BY IDOCK:   -4.52 KCAL/MOL
REMARK 923 INTER-LIGAND FREE ENERGY PREDICTED BY IDOCK:   -4.38 KCAL/MOL
REMARK 924 INTRA-LIGAND FREE ENERGY PREDICTED BY IDOCK:   -0.13 KCAL/MOL
REMARK 927      BINDING AFFINITY PREDICTED BY RF-SCORE:    0.00 PKD
ROOT
HETATM    1  N   UNL     1     -13.541  16.125  73.457  1.00  0.00    -0.866 NA 
HETATM    2  H2  UNL     1     -13.836  15.170  73.251  1.00  0.00     0.000 HD 
HETATM    3  C   UNL     1     -12.103  16.294  73.223  1.00  0.00    -0.488 C  
HETATM    4  H1  UNL     1     -13.818  16.399  74.399  1.00  0.00     0.000 HD 
ENDROOT
BRANCH   3   5
HETATM    5  C   UNL     1     -11.684  15.880  71.801  1.00  0.00    -0.491 C  
BRANCH   5   6
HETATM    6  N   UNL     1     -11.956  14.460  71.552  1.00  0.00    -0.407 NA 
HETATM    7  H   UNL     1     -12.647  14.091  72.205  1.00  0.00     0.000 HD 
BRANCH   6   8
HETATM    8  C   UNL     1     -12.357  14.230  70.157  1.00  0.00    -0.353 C  
BRANCH   8   9
HETATM    9  C   UNL     1     -11.167  14.463  69.205  1.00  0.00    -0.272 C  
BRANCH   9  10
HETATM   10  N   UNL     1     -11.600  14.523  67.797  1.00  0.00    -0.348 NA 
HETATM   11  H   UNL     1     -12.615  14.591  67.713  1.00  0.00     0.000 HD 
BRANCH  10  12
HETATM   12  C   UNL     1     -10.915  15.625  67.101  1.00  0.00    -0.270 C  
BRANCH  12  13
HETATM   13  C   UNL     1     -10.511  15.222  65.670  1.00  0.00    -0.358 C  
HETATM   14  N   UNL     1      -9.655  14.031  65.645  1.00  0.00    -0.530 NA 
HETATM   15  H1  UNL     1      -9.388  13.764  64.698  1.00  0.00     0.000 HD 
HETATM   16  H2  UNL     1     -10.095  13.252  66.136  1.00  0.00     0.000 HD 
ENDBRANCH  12  13
ENDBRANCH  10  12
ENDBRANCH   9  10
ENDBRANCH   8   9
ENDBRANCH   6   8
ENDBRANCH   5   6
ENDBRANCH   3   5
TORSDOF 7
ENDMDL
MODEL       81
REMARK 921   NORMALIZED FREE ENERGY PREDICTED BY IDOCK:   -2.85 KCAL/MOL
REMARK 922        TOTAL FREE ENERGY PREDICTED BY IDOCK:   -4.52 KCAL/MOL
REMARK 923 INTER-LIGAND FREE ENERGY PREDICTED BY IDOCK:   -4.38 KCAL/MOL
REMARK 924 INTRA-LIGAND FREE ENERGY PREDICTED BY IDOCK:   -0.13 KCAL/MOL
REMARK 927      BINDING AFFINITY PREDICTED BY RF-SCORE:    0.00 PKD
ROOT
HETATM    1  N   UNL     1      -9.635  17.482  66.131  1.00  0.00    -0.470 NA 
HETATM    2  H2  UNL     1     -10.255  18.279  66.277  1.00  0.00     0.000 HD 
HETATM    3  C   UNL     1     -10.393  16.289  65.744  1.00  0.00    -0.374 C  
HETATM    4  H1  UNL     1      -9.046  17.322  66.948  1.00  0.00     0.000 HD 
ENDROOT
BRANCH   3   5
HETATM    5  C   UNL     1     -11.284  16.530  64.511  1.00  0.00    -0.024 C  
BRANCH   5   6
HETATM    6  N   UNL     1     -11.931  15.292  64.064  1.00  0.00    -0.934 NA 
HETATM    7  H   UNL     1     -11.272  14.674  63.592  1.00  0.00     0.000 HD 
BRANCH   6   8
HETATM    8  C   UNL     1     -12.605  14.610  65.178  1.00  0.00    -0.139 C  
BRANCH   8   9
HETATM    9  C   UNL     1     -12.185  13.129  65.243  1.00  0.00    -0.455 C  
BRANCH   9  10
HETATM   10  N   UNL     1     -12.657  12.376  64.067  1.00  0.00    -0.671 NA 
HETATM   11  H   UNL     1     -13.160  12.974  63.409  1.00  0.00     0.000 HD 
BRANCH  10  12
HETATM   12  C   UNL     1     -11.531  11.677  63.426  1.00  0.00    -0.260 C  
BRANCH  12  13
HETATM   13  C   UNL     1     -10.184  12.329  63.788  1.00  0.00    -0.402 C  
HETATM   14  N   UNL     1      -9.061  11.742  63.047  1.00  0.00    -0.656 NA 
HETATM   15  H1  UNL     1      -8.169  12.174  63.286  1.00  0.00     0.000 HD 
HETATM   16  H2  UNL     1      -9.228  11.775  62.041  1.00  0.00     0.000 HD 
ENDBRANCH  12  13
ENDBRANCH  10  12
ENDBRANCH   9  10
ENDBRANCH   8   9
ENDBRANCH   6   8
ENDBRANCH   5   6
ENDBRANCH   3   5
TORSDOF 7
ENDMDL
MODEL       82
REMARK 921   NORMALIZED FREE ENERGY PREDICTED BY IDOCK:   -2.84 KCAL/MOL
REMARK 922        TOTAL FREE ENERGY PREDICTED BY IDOCK:   -4.51 KCAL/MOL
REMARK 923 INTER-LIGAND FREE ENERGY PREDICTED BY IDOCK:   -4.38 KCAL/MOL
REMARK 924 INTRA-LIGAND FREE ENERGY PREDICTED BY IDOCK:   -0.13 KCAL/MOL
REMARK 927      BINDING AFFINITY PREDICTED BY RF-SCORE:    0.00 PKD
ROOT
HETATM    1  N   UNL     1     -13.959   8.829  73.147  1.00  0.00    -1.162 NA 
HETATM    2  H2  UNL     1     -14.189   9.675  73.668  1.00  0.00     0.000 HD 
HETATM    3  C   UNL     1     -13.895   9.097  71.707  1.00  0.00    -0.366 C  
HETATM    4  H1  UNL     1     -14.603   8.071  73.376  1.00  0.00     0.000 HD 
ENDROOT
BRANCH   3   5
HETATM    5  C   UNL     1     -12.924  10.240  71.362  1.00  0.00    -0.440 C  
BRANCH   5   6
HETATM    6  N   UNL     1     -12.134   9.932  70.165  1.00  0.00    -0.472 NA 
HETATM    7  H   UNL     1     -12.538   9.159  69.638  1.00  0.00     0.000 HD 
BRANCH   6   8
HETATM    8  C   UNL     1     -11.955  11.123  69.323  1.00  0.00    -0.351 C  
BRANCH   8   9
HETATM    9  C   UNL     1     -12.378  12.396  70.084  1.00  0.00    -0.136 C  
BRANCH   9  10
HETATM   10  N   UNL     1     -11.300  13.400  70.107  1.00  0.00    -0.492 NA 
HETATM   11  H   UNL     1     -10.388  12.976  70.280  1.00  0.00     0.000 HD 
BRANCH  10  12
HETATM   12  C   UNL     1     -11.313  14.188  68.864  1.00  0.00    -0.277 C  
BRANCH  12  13
HETATM   13  C   UNL     1     -11.891  15.597  69.096  1.00  0.00    -0.362 C  
HETATM   14  N   UNL     1     -10.847  16.594  69.356  1.00  0.00    -0.318 NA 
HETATM   15  H1  UNL     1     -11.230  17.527  69.510  1.00  0.00     0.000 HD 
HETATM   16  H2  UNL     1     -10.151  16.601  68.611  1.00  0.00     0.000 HD 
ENDBRANCH  12  13
ENDBRANCH  10  12
ENDBRANCH   9  10
ENDBRANCH   8   9
ENDBRANCH   6   8
ENDBRANCH   5   6
ENDBRANCH   3   5
TORSDOF 7
ENDMDL
MODEL       83
REMARK 921   NORMALIZED FREE ENERGY PREDICTED BY IDOCK:   -2.82 KCAL/MOL
REMARK 922        TOTAL FREE ENERGY PREDICTED BY IDOCK:   -4.48 KCAL/MOL
REMARK 923 INTER-LIGAND FREE ENERGY PREDICTED BY IDOCK:   -4.29 KCAL/MOL
REMARK 924 INTRA-LIGAND FREE ENERGY PREDICTED BY IDOCK:   -0.19 KCAL/MOL
REMARK 927      BINDING AFFINITY PREDICTED BY RF-SCORE:    0.00 PKD
ROOT
HETATM    1  N   UNL     1      -9.066  12.692  68.573  1.00  0.00    -0.370 NA 
HETATM    2  H2  UNL     1      -9.325  11.742  68.307  1.00  0.00     0.000 HD 
HETATM    3  C   UNL     1     -10.109  13.649  68.192  1.00  0.00    -0.245 C  
HETATM    4  H1  UNL     1      -8.151  12.941  68.198  1.00  0.00     0.000 HD 
ENDROOT
BRANCH   3   5
HETATM    5  C   UNL     1     -11.490  13.273  68.759  1.00  0.00    -0.306 C  
BRANCH   5   6
HETATM    6  N   UNL     1     -11.488  13.270  70.226  1.00  0.00    -0.507 NA 
HETATM    7  H   UNL     1     -11.601  14.211  70.602  1.00  0.00     0.000 HD 
BRANCH   6   8
HETATM    8  C   UNL     1     -12.502  12.350  70.759  1.00  0.00    -0.267 C  
BRANCH   8   9
HETATM    9  C   UNL     1     -12.172  10.894  70.374  1.00  0.00    -0.365 C  
BRANCH   9  10
HETATM   10  N   UNL     1     -11.937  10.056  71.563  1.00  0.00    -0.378 NA 
HETATM   11  H   UNL     1     -12.438  10.406  72.381  1.00  0.00     0.000 HD 
BRANCH  10  12
HETATM   12  C   UNL     1     -12.275   8.653  71.270  1.00  0.00    -0.281 C  
BRANCH  12  13
HETATM   13  C   UNL     1     -13.657   8.276  71.836  1.00  0.00    -0.357 C  
HETATM   14  N   UNL     1     -13.955   8.972  73.093  1.00  0.00    -1.215 NA 
HETATM   15  H1  UNL     1     -14.870   8.722  73.469  1.00  0.00     0.000 HD 
HETATM   16  H2  UNL     1     -13.866   9.982  72.984  1.00  0.00     0.000 HD 
ENDBRANCH  12  13
ENDBRANCH  10  12
ENDBRANCH   9  10
ENDBRANCH   8   9
ENDBRANCH   6   8
ENDBRANCH   5   6
ENDBRANCH   3   5
TORSDOF 7
ENDMDL
MODEL       84
REMARK 921   NORMALIZED FREE ENERGY PREDICTED BY IDOCK:   -2.82 KCAL/MOL
REMARK 922        TOTAL FREE ENERGY PREDICTED BY IDOCK:   -4.48 KCAL/MOL
REMARK 923 INTER-LIGAND FREE ENERGY PREDICTED BY IDOCK:   -4.30 KCAL/MOL
REMARK 924 INTRA-LIGAND FREE ENERGY PREDICTED BY IDOCK:   -0.18 KCAL/MOL
REMARK 927      BINDING AFFINITY PREDICTED BY RF-SCORE:    0.00 PKD
ROOT
HETATM    1  N   UNL     1      -7.647  21.298  66.984  1.00  0.00    -0.768 NA 
HETATM    2  H2  UNL     1      -8.020  22.172  67.356  1.00  0.00     0.000 HD 
HETATM    3  C   UNL     1      -8.457  20.154  67.412  1.00  0.00    -0.339 C  
HETATM    4  H1  UNL     1      -6.661  21.190  67.221  1.00  0.00     0.000 HD 
ENDROOT
BRANCH   3   5
HETATM    5  C   UNL     1      -9.946  20.318  67.055  1.00  0.00    -0.460 C  
BRANCH   5   6
HETATM    6  N   UNL     1     -10.744  19.190  67.548  1.00  0.00    -0.473 NA 
HETATM    7  H   UNL     1     -11.118  18.632  66.781  1.00  0.00     0.000 HD 
BRANCH   6   8
HETATM    8  C   UNL     1      -9.977  18.365  68.492  1.00  0.00    -0.387 C  
BRANCH   8   9
HETATM    9  C   UNL     1     -10.135  16.869  68.158  1.00  0.00    -0.299 C  
BRANCH   9  10
HETATM   10  N   UNL     1      -9.766  16.014  69.301  1.00  0.00    -0.248 NA 
HETATM   11  H   UNL     1      -8.842  16.246  69.667  1.00  0.00     0.000 HD 
BRANCH  10  12
HETATM   12  C   UNL     1     -10.804  16.083  70.343  1.00  0.00    -0.286 C  
BRANCH  12  13
HETATM   13  C   UNL     1     -12.162  15.579  69.819  1.00  0.00    -0.302 C  
HETATM   14  N   UNL     1     -13.249  15.801  70.780  1.00  0.00    -0.739 NA 
HETATM   15  H1  UNL     1     -14.148  15.467  70.433  1.00  0.00     0.000 HD 
HETATM   16  H2  UNL     1     -13.302  16.781  71.055  1.00  0.00     0.000 HD 
ENDBRANCH  12  13
ENDBRANCH  10  12
ENDBRANCH   9  10
ENDBRANCH   8   9
ENDBRANCH   6   8
ENDBRANCH   5   6
ENDBRANCH   3   5
TORSDOF 7
ENDMDL
MODEL       85
REMARK 921   NORMALIZED FREE ENERGY PREDICTED BY IDOCK:   -2.81 KCAL/MOL
REMARK 922        TOTAL FREE ENERGY PREDICTED BY IDOCK:   -4.47 KCAL/MOL
REMARK 923 INTER-LIGAND FREE ENERGY PREDICTED BY IDOCK:   -4.33 KCAL/MOL
REMARK 924 INTRA-LIGAND FREE ENERGY PREDICTED BY IDOCK:   -0.13 KCAL/MOL
REMARK 927      BINDING AFFINITY PREDICTED BY RF-SCORE:    0.00 PKD
ROOT
HETATM    1  N   UNL     1      -9.529  20.249  66.155  1.00  0.00    -0.641 NA 
HETATM    2  H2  UNL     1     -10.166  19.860  65.460  1.00  0.00     0.000 HD 
HETATM    3  C   UNL     1      -9.545  19.455  67.387  1.00  0.00    -0.322 C  
HETATM    4  H1  UNL     1      -9.727  21.235  66.323  1.00  0.00     0.000 HD 
ENDROOT
BRANCH   3   5
HETATM    5  C   UNL     1      -9.247  17.966  67.134  1.00  0.00    -0.258 C  
BRANCH   5   6
HETATM    6  N   UNL     1     -10.478  17.203  66.900  1.00  0.00    -0.305 NA 
HETATM    7  H   UNL     1     -11.273  17.819  66.731  1.00  0.00     0.000 HD 
BRANCH   6   8
HETATM    8  C   UNL     1     -10.305  16.233  65.811  1.00  0.00    -0.374 C  
BRANCH   8   9
HETATM    9  C   UNL     1      -9.794  14.886  66.359  1.00  0.00    -0.274 C  
BRANCH   9  10
HETATM   10  N   UNL     1      -9.685  13.871  65.295  1.00  0.00    -0.572 NA 
HETATM   11  H   UNL     1      -9.336  12.981  65.652  1.00  0.00     0.000 HD 
BRANCH  10  12
HETATM   12  C   UNL     1     -10.976  13.718  64.604  1.00  0.00    -0.400 C  
BRANCH  12  13
HETATM   13  C   UNL     1     -11.874  12.685  65.311  1.00  0.00    -0.408 C  
HETATM   14  N   UNL     1     -13.228  12.641  64.746  1.00  0.00    -0.780 NA 
HETATM   15  H1  UNL     1     -13.822  11.957  65.214  1.00  0.00     0.000 HD 
HETATM   16  H2  UNL     1     -13.201  12.478  63.740  1.00  0.00     0.000 HD 
ENDBRANCH  12  13
ENDBRANCH  10  12
ENDBRANCH   9  10
ENDBRANCH   8   9
ENDBRANCH   6   8
ENDBRANCH   5   6
ENDBRANCH   3   5
TORSDOF 7
ENDMDL
MODEL       86
REMARK 921   NORMALIZED FREE ENERGY PREDICTED BY IDOCK:   -2.81 KCAL/MOL
REMARK 922        TOTAL FREE ENERGY PREDICTED BY IDOCK:   -4.47 KCAL/MOL
REMARK 923 INTER-LIGAND FREE ENERGY PREDICTED BY IDOCK:   -3.99 KCAL/MOL
REMARK 924 INTRA-LIGAND FREE ENERGY PREDICTED BY IDOCK:   -0.48 KCAL/MOL
REMARK 927      BINDING AFFINITY PREDICTED BY RF-SCORE:    0.00 PKD
ROOT
HETATM    1  N   UNL     1     -12.136  11.403  70.456  1.00  0.00    -0.379 NA 
HETATM    2  H2  UNL     1     -12.763  12.163  70.720  1.00  0.00     0.000 HD 
HETATM    3  C   UNL     1     -12.013  11.302  68.999  1.00  0.00    -0.325 C  
HETATM    4  H1  UNL     1     -12.426  10.524  70.885  1.00  0.00     0.000 HD 
ENDROOT
BRANCH   3   5
HETATM    5  C   UNL     1     -11.576  12.629  68.351  1.00  0.00    -0.328 C  
BRANCH   5   6
HETATM    6  N   UNL     1     -10.629  13.357  69.203  1.00  0.00    -0.436 NA 
HETATM    7  H   UNL     1      -9.663  13.143  68.957  1.00  0.00     0.000 HD 
BRANCH   6   8
HETATM    8  C   UNL     1     -10.886  14.804  69.170  1.00  0.00    -0.260 C  
BRANCH   8   9
HETATM    9  C   UNL     1     -11.018  15.365  70.599  1.00  0.00    -0.319 C  
BRANCH   9  10
HETATM   10  N   UNL     1     -11.902  14.531  71.433  1.00  0.00    -0.448 NA 
HETATM   11  H   UNL     1     -11.754  14.696  72.429  1.00  0.00     0.000 HD 
BRANCH  10  12
HETATM   12  C   UNL     1     -13.307  14.733  71.043  1.00  0.00    -0.374 C  
BRANCH  12  13
HETATM   13  C   UNL     1     -14.127  15.347  72.194  1.00  0.00    -0.553 C  
HETATM   14  N   UNL     1     -13.354  15.456  73.436  1.00  0.00    -0.567 NA 
HETATM   15  H1  UNL     1     -13.897  15.863  74.198  1.00  0.00     0.000 HD 
HETATM   16  H2  UNL     1     -12.488  15.972  73.286  1.00  0.00     0.000 HD 
ENDBRANCH  12  13
ENDBRANCH  10  12
ENDBRANCH   9  10
ENDBRANCH   8   9
ENDBRANCH   6   8
ENDBRANCH   5   6
ENDBRANCH   3   5
TORSDOF 7
ENDMDL
MODEL       87
REMARK 921   NORMALIZED FREE ENERGY PREDICTED BY IDOCK:   -2.80 KCAL/MOL
REMARK 922        TOTAL FREE ENERGY PREDICTED BY IDOCK:   -4.46 KCAL/MOL
REMARK 923 INTER-LIGAND FREE ENERGY PREDICTED BY IDOCK:   -4.28 KCAL/MOL
REMARK 924 INTRA-LIGAND FREE ENERGY PREDICTED BY IDOCK:   -0.18 KCAL/MOL
REMARK 927      BINDING AFFINITY PREDICTED BY RF-SCORE:    0.00 PKD
ROOT
HETATM    1  N   UNL     1     -11.413   6.998  69.127  1.00  0.00    -0.522 NA 
HETATM    2  H2  UNL     1     -10.875   7.864  69.119  1.00  0.00     0.000 HD 
HETATM    3  C   UNL     1     -11.519   6.456  70.485  1.00  0.00    -0.379 C  
HETATM    4  H1  UNL     1     -11.031   6.323  68.465  1.00  0.00     0.000 HD 
ENDROOT
BRANCH   3   5
HETATM    5  C   UNL     1     -12.095   7.475  71.484  1.00  0.00    -0.316 C  
BRANCH   5   6
HETATM    6  N   UNL     1     -12.440   8.739  70.824  1.00  0.00    -0.490 NA 
HETATM    7  H   UNL     1     -12.939   8.581  69.949  1.00  0.00     0.000 HD 
BRANCH   6   8
HETATM    8  C   UNL     1     -13.196   9.622  71.723  1.00  0.00    -0.430 C  
BRANCH   8   9
HETATM    9  C   UNL     1     -12.864  11.100  71.440  1.00  0.00    -0.439 C  
BRANCH   9  10
HETATM   10  N   UNL     1     -11.729  11.235  70.510  1.00  0.00    -0.450 NA 
HETATM   11  H   UNL     1     -11.652  10.432  69.885  1.00  0.00     0.000 HD 
BRANCH  10  12
HETATM   12  C   UNL     1     -11.829  12.502  69.767  1.00  0.00    -0.310 C  
BRANCH  12  13
HETATM   13  C   UNL     1     -12.354  13.640  70.662  1.00  0.00    -0.368 C  
HETATM   14  N   UNL     1     -12.758  14.820  69.888  1.00  0.00    -0.579 NA 
HETATM   15  H1  UNL     1     -13.106  15.574  70.481  1.00  0.00     0.000 HD 
HETATM   16  H2  UNL     1     -13.439  14.573  69.170  1.00  0.00     0.000 HD 
ENDBRANCH  12  13
ENDBRANCH  10  12
ENDBRANCH   9  10
ENDBRANCH   8   9
ENDBRANCH   6   8
ENDBRANCH   5   6
ENDBRANCH   3   5
TORSDOF 7
ENDMDL
MODEL       88
REMARK 921   NORMALIZED FREE ENERGY PREDICTED BY IDOCK:   -2.79 KCAL/MOL
REMARK 922        TOTAL FREE ENERGY PREDICTED BY IDOCK:   -4.44 KCAL/MOL
REMARK 923 INTER-LIGAND FREE ENERGY PREDICTED BY IDOCK:   -4.25 KCAL/MOL
REMARK 924 INTRA-LIGAND FREE ENERGY PREDICTED BY IDOCK:   -0.19 KCAL/MOL
REMARK 927      BINDING AFFINITY PREDICTED BY RF-SCORE:    0.00 PKD
ROOT
HETATM    1  N   UNL     1      -8.006  14.009  68.966  1.00  0.00    -0.326 NA 
HETATM    2  H2  UNL     1      -8.528  13.818  69.821  1.00  0.00     0.000 HD 
HETATM    3  C   UNL     1      -8.867  13.890  67.785  1.00  0.00    -0.189 C  
HETATM    4  H1  UNL     1      -7.175  13.420  68.904  1.00  0.00     0.000 HD 
ENDROOT
BRANCH   3   5
HETATM    5  C   UNL     1     -10.121  14.778  67.878  1.00  0.00    -0.221 C  
BRANCH   5   6
HETATM    6  N   UNL     1      -9.857  16.005  68.636  1.00  0.00    -0.211 NA 
HETATM    7  H   UNL     1      -9.741  16.809  68.019  1.00  0.00     0.000 HD 
BRANCH   6   8
HETATM    8  C   UNL     1     -10.898  16.245  69.645  1.00  0.00    -0.345 C  
BRANCH   8   9
HETATM    9  C   UNL     1     -12.133  15.365  69.370  1.00  0.00    -0.280 C  
BRANCH   9  10
HETATM   10  N   UNL     1     -13.176  15.554  70.395  1.00  0.00    -0.757 NA 
HETATM   11  H   UNL     1     -13.874  14.810  70.369  1.00  0.00     0.000 HD 
BRANCH  10  12
HETATM   12  C   UNL     1     -12.561  15.686  71.726  1.00  0.00    -0.442 C  
BRANCH  12  13
HETATM   13  C   UNL     1     -13.606  15.526  72.847  1.00  0.00    -0.544 C  
HETATM   14  N   UNL     1     -13.227  16.242  74.071  1.00  0.00    -0.930 NA 
HETATM   15  H1  UNL     1     -13.919  16.136  74.813  1.00  0.00     0.000 HD 
HETATM   16  H2  UNL     1     -13.042  17.226  73.878  1.00  0.00     0.000 HD 
ENDBRANCH  12  13
ENDBRANCH  10  12
ENDBRANCH   9  10
ENDBRANCH   8   9
ENDBRANCH   6   8
ENDBRANCH   5   6
ENDBRANCH   3   5
TORSDOF 7
ENDMDL
MODEL       89
REMARK 921   NORMALIZED FREE ENERGY PREDICTED BY IDOCK:   -2.77 KCAL/MOL
REMARK 922        TOTAL FREE ENERGY PREDICTED BY IDOCK:   -4.41 KCAL/MOL
REMARK 923 INTER-LIGAND FREE ENERGY PREDICTED BY IDOCK:   -3.90 KCAL/MOL
REMARK 924 INTRA-LIGAND FREE ENERGY PREDICTED BY IDOCK:   -0.51 KCAL/MOL
REMARK 927      BINDING AFFINITY PREDICTED BY RF-SCORE:    0.00 PKD
ROOT
HETATM    1  N   UNL     1      -9.572  12.572  68.680  1.00  0.00    -0.400 NA 
HETATM    2  H2  UNL     1     -10.104  11.818  69.115  1.00  0.00     0.000 HD 
HETATM    3  C   UNL     1      -8.542  12.041  67.783  1.00  0.00    -0.157 C  
HETATM    4  H1  UNL     1      -9.190  13.204  69.384  1.00  0.00     0.000 HD 
ENDROOT
BRANCH   3   5
HETATM    5  C   UNL     1      -9.118  11.086  66.722  1.00  0.00    -0.162 C  
BRANCH   5   6
HETATM    6  N   UNL     1      -9.247  11.746  65.418  1.00  0.00    -0.417 NA 
HETATM    7  H   UNL     1      -8.350  11.801  64.936  1.00  0.00     0.000 HD 
BRANCH   6   8
HETATM    8  C   UNL     1     -10.266  11.090  64.587  1.00  0.00    -0.330 C  
BRANCH   8   9
HETATM    9  C   UNL     1     -10.428  11.828  63.243  1.00  0.00    -0.388 C  
BRANCH   9  10
HETATM   10  N   UNL     1     -11.599  12.722  63.250  1.00  0.00    -0.791 NA 
HETATM   11  H   UNL     1     -12.140  12.648  62.387  1.00  0.00     0.000 HD 
BRANCH  10  12
HETATM   12  C   UNL     1     -12.426  12.467  64.441  1.00  0.00    -0.446 C  
BRANCH  12  13
HETATM   13  C   UNL     1     -12.595  13.740  65.292  1.00  0.00    -0.473 C  
HETATM   14  N   UNL     1     -11.464  13.960  66.200  1.00  0.00    -0.335 NA 
HETATM   15  H1  UNL     1     -11.576  14.803  66.764  1.00  0.00     0.000 HD 
HETATM   16  H2  UNL     1     -10.581  13.973  65.691  1.00  0.00     0.000 HD 
ENDBRANCH  12  13
ENDBRANCH  10  12
ENDBRANCH   9  10
ENDBRANCH   8   9
ENDBRANCH   6   8
ENDBRANCH   5   6
ENDBRANCH   3   5
TORSDOF 7
ENDMDL
MODEL       90
REMARK 921   NORMALIZED FREE ENERGY PREDICTED BY IDOCK:   -2.76 KCAL/MOL
REMARK 922        TOTAL FREE ENERGY PREDICTED BY IDOCK:   -4.40 KCAL/MOL
REMARK 923 INTER-LIGAND FREE ENERGY PREDICTED BY IDOCK:   -4.28 KCAL/MOL
REMARK 924 INTRA-LIGAND FREE ENERGY PREDICTED BY IDOCK:   -0.12 KCAL/MOL
REMARK 927      BINDING AFFINITY PREDICTED BY RF-SCORE:    0.00 PKD
ROOT
HETATM    1  N   UNL     1     -10.930  12.758  69.215  1.00  0.00    -0.443 NA 
HETATM    2  H2  UNL     1     -11.878  12.749  69.592  1.00  0.00     0.000 HD 
HETATM    3  C   UNL     1     -10.935  13.080  67.785  1.00  0.00    -0.251 C  
HETATM    4  H1  UNL     1     -10.448  11.882  69.416  1.00  0.00     0.000 HD 
ENDROOT
BRANCH   3   5
HETATM    5  C   UNL     1     -11.664  14.401  67.480  1.00  0.00    -0.387 C  
BRANCH   5   6
HETATM    6  N   UNL     1     -11.880  14.576  66.040  1.00  0.00    -0.362 NA 
HETATM    7  H   UNL     1     -12.442  15.404  65.843  1.00  0.00     0.000 HD 
BRANCH   6   8
HETATM    8  C   UNL     1     -10.605  14.604  65.308  1.00  0.00    -0.391 C  
BRANCH   8   9
HETATM    9  C   UNL     1      -9.739  15.792  65.771  1.00  0.00    -0.337 C  
BRANCH   9  10
HETATM   10  N   UNL     1     -10.406  17.082  65.522  1.00  0.00    -0.623 NA 
HETATM   11  H   UNL     1     -11.421  16.984  65.478  1.00  0.00     0.000 HD 
BRANCH  10  12
HETATM   12  C   UNL     1      -9.993  18.071  66.532  1.00  0.00    -0.371 C  
BRANCH  12  13
HETATM   13  C   UNL     1     -10.640  19.444  66.274  1.00  0.00    -0.475 C  
HETATM   14  N   UNL     1      -9.660  20.456  65.861  1.00  0.00    -0.640 NA 
HETATM   15  H1  UNL     1     -10.089  21.365  65.690  1.00  0.00     0.000 HD 
HETATM   16  H2  UNL     1      -9.128  20.142  65.050  1.00  0.00     0.000 HD 
ENDBRANCH  12  13
ENDBRANCH  10  12
ENDBRANCH   9  10
ENDBRANCH   8   9
ENDBRANCH   6   8
ENDBRANCH   5   6
ENDBRANCH   3   5
TORSDOF 7
ENDMDL
MODEL       91
REMARK 921   NORMALIZED FREE ENERGY PREDICTED BY IDOCK:   -2.72 KCAL/MOL
REMARK 922        TOTAL FREE ENERGY PREDICTED BY IDOCK:   -4.34 KCAL/MOL
REMARK 923 INTER-LIGAND FREE ENERGY PREDICTED BY IDOCK:   -4.24 KCAL/MOL
REMARK 924 INTRA-LIGAND FREE ENERGY PREDICTED BY IDOCK:   -0.10 KCAL/MOL
REMARK 927      BINDING AFFINITY PREDICTED BY RF-SCORE:    0.00 PKD
ROOT
HETATM    1  N   UNL     1     -12.493  13.727  63.069  1.00  0.00    -1.000 NA 
HETATM    2  H2  UNL     1     -12.299  14.636  62.648  1.00  0.00     0.000 HD 
HETATM    3  C   UNL     1     -11.374  13.283  63.904  1.00  0.00    -0.318 C  
HETATM    4  H1  UNL     1     -12.746  13.040  62.358  1.00  0.00     0.000 HD 
ENDROOT
BRANCH   3   5
HETATM    5  C   UNL     1     -10.991  14.319  64.977  1.00  0.00    -0.387 C  
BRANCH   5   6
HETATM    6  N   UNL     1     -11.679  14.059  66.246  1.00  0.00    -0.370 NA 
HETATM    7  H   UNL     1     -11.973  13.086  66.320  1.00  0.00     0.000 HD 
BRANCH   6   8
HETATM    8  C   UNL     1     -10.854  14.463  67.393  1.00  0.00    -0.292 C  
BRANCH   8   9
HETATM    9  C   UNL     1     -11.521  15.619  68.163  1.00  0.00    -0.322 C  
BRANCH   9  10
HETATM   10  N   UNL     1     -10.865  16.909  67.885  1.00  0.00    -0.342 NA 
HETATM   11  H   UNL     1     -11.543  17.661  67.756  1.00  0.00     0.000 HD 
BRANCH  10  12
HETATM   12  C   UNL     1      -9.890  17.222  68.943  1.00  0.00    -0.286 C  
BRANCH  12  13
HETATM   13  C   UNL     1      -9.320  18.644  68.781  1.00  0.00    -0.300 C  
HETATM   14  N   UNL     1     -10.266  19.678  69.216  1.00  0.00    -0.628 NA 
HETATM   15  H1  UNL     1      -9.889  20.620  69.109  1.00  0.00     0.000 HD 
HETATM   16  H2  UNL     1     -10.576  19.513  70.174  1.00  0.00     0.000 HD 
ENDBRANCH  12  13
ENDBRANCH  10  12
ENDBRANCH   9  10
ENDBRANCH   8   9
ENDBRANCH   6   8
ENDBRANCH   5   6
ENDBRANCH   3   5
TORSDOF 7
ENDMDL
MODEL       92
REMARK 921   NORMALIZED FREE ENERGY PREDICTED BY IDOCK:   -2.72 KCAL/MOL
REMARK 922        TOTAL FREE ENERGY PREDICTED BY IDOCK:   -4.34 KCAL/MOL
REMARK 923 INTER-LIGAND FREE ENERGY PREDICTED BY IDOCK:   -4.14 KCAL/MOL
REMARK 924 INTRA-LIGAND FREE ENERGY PREDICTED BY IDOCK:   -0.21 KCAL/MOL
REMARK 927      BINDING AFFINITY PREDICTED BY RF-SCORE:    0.00 PKD
ROOT
HETATM    1  N   UNL     1     -12.072   6.572  72.259  1.00  0.00    -0.498 NA 
HETATM    2  H2  UNL     1     -11.645   6.204  71.408  1.00  0.00     0.000 HD 
HETATM    3  C   UNL     1     -11.342   7.744  72.751  1.00  0.00    -0.389 C  
HETATM    4  H1  UNL     1     -12.163   5.843  72.967  1.00  0.00     0.000 HD 
ENDROOT
BRANCH   3   5
HETATM    5  C   UNL     1     -11.203   8.843  71.682  1.00  0.00    -0.345 C  
BRANCH   5   6
HETATM    6  N   UNL     1     -12.484   9.115  71.020  1.00  0.00    -0.458 NA 
HETATM    7  H   UNL     1     -13.206   8.461  71.320  1.00  0.00     0.000 HD 
BRANCH   6   8
HETATM    8  C   UNL     1     -12.902  10.510  71.219  1.00  0.00    -0.431 C  
BRANCH   8   9
HETATM    9  C   UNL     1     -12.259  11.427  70.160  1.00  0.00    -0.321 C  
BRANCH   9  10
HETATM   10  N   UNL     1     -12.246  10.795  68.829  1.00  0.00    -0.814 NA 
HETATM   11  H   UNL     1     -13.043  11.086  68.261  1.00  0.00     0.000 HD 
BRANCH  10  12
HETATM   12  C   UNL     1     -10.964  11.058  68.154  1.00  0.00    -0.247 C  
BRANCH  12  13
HETATM   13  C   UNL     1     -10.505  12.513  68.365  1.00  0.00    -0.240 C  
HETATM   14  N   UNL     1      -9.096  12.604  68.764  1.00  0.00    -0.394 NA 
HETATM   15  H1  UNL     1      -8.792  13.567  68.903  1.00  0.00     0.000 HD 
HETATM   16  H2  UNL     1      -8.494  12.121  68.097  1.00  0.00     0.000 HD 
ENDBRANCH  12  13
ENDBRANCH  10  12
ENDBRANCH   9  10
ENDBRANCH   8   9
ENDBRANCH   6   8
ENDBRANCH   5   6
ENDBRANCH   3   5
TORSDOF 7
ENDMDL
MODEL       93
REMARK 921   NORMALIZED FREE ENERGY PREDICTED BY IDOCK:   -2.72 KCAL/MOL
REMARK 922        TOTAL FREE ENERGY PREDICTED BY IDOCK:   -4.34 KCAL/MOL
REMARK 923 INTER-LIGAND FREE ENERGY PREDICTED BY IDOCK:   -3.81 KCAL/MOL
REMARK 924 INTRA-LIGAND FREE ENERGY PREDICTED BY IDOCK:   -0.53 KCAL/MOL
REMARK 927      BINDING AFFINITY PREDICTED BY RF-SCORE:    0.00 PKD
ROOT
HETATM    1  N   UNL     1     -11.535  16.579  70.592  1.00  0.00    -0.511 NA 
HETATM    2  H2  UNL     1     -11.823  16.966  69.693  1.00  0.00     0.000 HD 
HETATM    3  C   UNL     1     -12.290  15.364  70.910  1.00  0.00    -0.398 C  
HETATM    4  H1  UNL     1     -11.597  17.282  71.330  1.00  0.00     0.000 HD 
ENDROOT
BRANCH   3   5
HETATM    5  C   UNL     1     -12.198  14.304  69.797  1.00  0.00    -0.339 C  
BRANCH   5   6
HETATM    6  N   UNL     1     -12.313  14.911  68.466  1.00  0.00    -0.586 NA 
HETATM    7  H   UNL     1     -12.445  15.920  68.524  1.00  0.00     0.000 HD 
BRANCH   6   8
HETATM    8  C   UNL     1     -11.160  14.566  67.622  1.00  0.00    -0.304 C  
BRANCH   8   9
HETATM    9  C   UNL     1     -10.449  15.841  67.126  1.00  0.00    -0.309 C  
BRANCH   9  10
HETATM   10  N   UNL     1      -9.416  16.292  68.075  1.00  0.00    -0.221 NA 
HETATM   11  H   UNL     1      -8.514  15.847  67.897  1.00  0.00     0.000 HD 
BRANCH  10  12
HETATM   12  C   UNL     1      -9.317  17.761  68.059  1.00  0.00    -0.276 C  
BRANCH  12  13
HETATM   13  C   UNL     1     -10.600  18.405  67.501  1.00  0.00    -0.416 C  
HETATM   14  N   UNL     1     -10.322  19.605  66.703  1.00  0.00    -0.449 NA 
HETATM   15  H1  UNL     1     -11.171  20.032  66.333  1.00  0.00     0.000 HD 
HETATM   16  H2  UNL     1      -9.656  19.404  65.957  1.00  0.00     0.000 HD 
ENDBRANCH  12  13
ENDBRANCH  10  12
ENDBRANCH   9  10
ENDBRANCH   8   9
ENDBRANCH   6   8
ENDBRANCH   5   6
ENDBRANCH   3   5
TORSDOF 7
ENDMDL
MODEL       94
REMARK 921   NORMALIZED FREE ENERGY PREDICTED BY IDOCK:   -2.71 KCAL/MOL
REMARK 922        TOTAL FREE ENERGY PREDICTED BY IDOCK:   -4.32 KCAL/MOL
REMARK 923 INTER-LIGAND FREE ENERGY PREDICTED BY IDOCK:   -4.15 KCAL/MOL
REMARK 924 INTRA-LIGAND FREE ENERGY PREDICTED BY IDOCK:   -0.17 KCAL/MOL
REMARK 927      BINDING AFFINITY PREDICTED BY RF-SCORE:    0.00 PKD
ROOT
HETATM    1  N   UNL     1      -9.381  18.408  68.495  1.00  0.00    -0.327 NA 
HETATM    2  H2  UNL     1     -10.175  19.050  68.488  1.00  0.00     0.000 HD 
HETATM    3  C   UNL     1      -9.823  17.026  68.701  1.00  0.00    -0.290 C  
HETATM    4  H1  UNL     1      -8.680  18.700  69.175  1.00  0.00     0.000 HD 
ENDROOT
BRANCH   3   5
HETATM    5  C   UNL     1     -10.882  16.585  67.675  1.00  0.00    -0.269 C  
BRANCH   5   6
HETATM    6  N   UNL     1     -11.498  15.308  68.052  1.00  0.00    -0.345 NA 
HETATM    7  H   UNL     1     -11.187  14.549  67.446  1.00  0.00     0.000 HD 
BRANCH   6   8
HETATM    8  C   UNL     1     -11.261  14.999  69.468  1.00  0.00    -0.276 C  
BRANCH   8   9
HETATM    9  C   UNL     1     -12.501  14.331  70.094  1.00  0.00    -0.335 C  
BRANCH   9  10
HETATM   10  N   UNL     1     -13.404  15.323  70.704  1.00  0.00    -0.712 NA 
HETATM   11  H   UNL     1     -14.159  15.590  70.072  1.00  0.00     0.000 HD 
BRANCH  10  12
HETATM   12  C   UNL     1     -13.916  14.821  71.991  1.00  0.00    -0.484 C  
BRANCH  12  13
HETATM   13  C   UNL     1     -13.587  15.789  73.143  1.00  0.00    -0.504 C  
HETATM   14  N   UNL     1     -12.495  15.297  73.992  1.00  0.00    -0.607 NA 
HETATM   15  H1  UNL     1     -12.277  15.937  74.755  1.00  0.00     0.000 HD 
HETATM   16  H2  UNL     1     -11.664  15.089  73.438  1.00  0.00     0.000 HD 
ENDBRANCH  12  13
ENDBRANCH  10  12
ENDBRANCH   9  10
ENDBRANCH   8   9
ENDBRANCH   6   8
ENDBRANCH   5   6
ENDBRANCH   3   5
TORSDOF 7
ENDMDL
MODEL       95
REMARK 921   NORMALIZED FREE ENERGY PREDICTED BY IDOCK:   -2.69 KCAL/MOL
REMARK 922        TOTAL FREE ENERGY PREDICTED BY IDOCK:   -4.30 KCAL/MOL
REMARK 923 INTER-LIGAND FREE ENERGY PREDICTED BY IDOCK:   -4.07 KCAL/MOL
REMARK 924 INTRA-LIGAND FREE ENERGY PREDICTED BY IDOCK:   -0.23 KCAL/MOL
REMARK 927      BINDING AFFINITY PREDICTED BY RF-SCORE:    0.00 PKD
ROOT
HETATM    1  N   UNL     1      -6.800  10.516  63.571  1.00  0.00    -0.342 NA 
HETATM    2  H2  UNL     1      -7.227  10.086  64.391  1.00  0.00     0.000 HD 
HETATM    3  C   UNL     1      -7.431  10.040  62.337  1.00  0.00    -0.121 C  
HETATM    4  H1  UNL     1      -5.789  10.378  63.571  1.00  0.00     0.000 HD 
ENDROOT
BRANCH   3   5
HETATM    5  C   UNL     1      -8.957  10.246  62.337  1.00  0.00    -0.264 C  
BRANCH   5   6
HETATM    6  N   UNL     1      -9.332  11.487  63.024  1.00  0.00    -0.524 NA 
HETATM    7  H   UNL     1      -9.439  12.260  62.368  1.00  0.00     0.000 HD 
BRANCH   6   8
HETATM    8  C   UNL     1     -10.539  11.302  63.841  1.00  0.00    -0.391 C  
BRANCH   8   9
HETATM    9  C   UNL     1     -10.280  11.727  65.299  1.00  0.00    -0.267 C  
BRANCH   9  10
HETATM   10  N   UNL     1     -11.527  12.106  65.986  1.00  0.00    -0.363 NA 
HETATM   11  H   UNL     1     -11.621  11.641  66.890  1.00  0.00     0.000 HD 
BRANCH  10  12
HETATM   12  C   UNL     1     -11.615  13.570  66.109  1.00  0.00    -0.343 C  
BRANCH  12  13
HETATM   13  C   UNL     1     -12.748  14.142  65.235  1.00  0.00    -0.403 C  
HETATM   14  N   UNL     1     -12.296  14.469  63.878  1.00  0.00    -1.047 NA 
HETATM   15  H1  UNL     1     -13.046  14.848  63.299  1.00  0.00     0.000 HD 
HETATM   16  H2  UNL     1     -11.859  13.663  63.432  1.00  0.00     0.000 HD 
ENDBRANCH  12  13
ENDBRANCH  10  12
ENDBRANCH   9  10
ENDBRANCH   8   9
ENDBRANCH   6   8
ENDBRANCH   5   6
ENDBRANCH   3   5
TORSDOF 7
ENDMDL
MODEL       96
REMARK 921   NORMALIZED FREE ENERGY PREDICTED BY IDOCK:   -2.69 KCAL/MOL
REMARK 922        TOTAL FREE ENERGY PREDICTED BY IDOCK:   -4.30 KCAL/MOL
REMARK 923 INTER-LIGAND FREE ENERGY PREDICTED BY IDOCK:   -4.13 KCAL/MOL
REMARK 924 INTRA-LIGAND FREE ENERGY PREDICTED BY IDOCK:   -0.17 KCAL/MOL
REMARK 927      BINDING AFFINITY PREDICTED BY RF-SCORE:    0.00 PKD
ROOT
HETATM    1  N   UNL     1     -12.319  16.115  72.168  1.00  0.00    -0.518 NA 
HETATM    2  H2  UNL     1     -12.652  16.486  71.278  1.00  0.00     0.000 HD 
HETATM    3  C   UNL     1     -13.337  15.272  72.802  1.00  0.00    -0.502 C  
HETATM    4  H1  UNL     1     -11.997  16.865  72.780  1.00  0.00     0.000 HD 
ENDROOT
BRANCH   3   5
HETATM    5  C   UNL     1     -13.823  14.140  71.878  1.00  0.00    -0.451 C  
BRANCH   5   6
HETATM    6  N   UNL     1     -13.988  12.880  72.612  1.00  0.00    -0.699 NA 
HETATM    7  H   UNL     1     -14.973  12.654  72.750  1.00  0.00     0.000 HD 
BRANCH   6   8
HETATM    8  C   UNL     1     -13.269  11.781  71.954  1.00  0.00    -0.362 C  
BRANCH   8   9
HETATM    9  C   UNL     1     -12.329  12.325  70.859  1.00  0.00    -0.267 C  
BRANCH   9  10
HETATM   10  N   UNL     1     -11.468  11.265  70.306  1.00  0.00    -0.478 NA 
HETATM   11  H   UNL     1     -10.508  11.585  70.171  1.00  0.00     0.000 HD 
BRANCH  10  12
HETATM   12  C   UNL     1     -11.533  10.062  71.153  1.00  0.00    -0.354 C  
BRANCH  12  13
HETATM   13  C   UNL     1     -10.607   8.950  70.624  1.00  0.00    -0.229 C  
HETATM   14  N   UNL     1     -11.180   7.612  70.808  1.00  0.00    -0.266 NA 
HETATM   15  H1  UNL     1     -10.567   6.875  70.458  1.00  0.00     0.000 HD 
HETATM   16  H2  UNL     1     -12.107   7.548  70.388  1.00  0.00     0.000 HD 
ENDBRANCH  12  13
ENDBRANCH  10  12
ENDBRANCH   9  10
ENDBRANCH   8   9
ENDBRANCH   6   8
ENDBRANCH   5   6
ENDBRANCH   3   5
TORSDOF 7
ENDMDL
MODEL       97
REMARK 921   NORMALIZED FREE ENERGY PREDICTED BY IDOCK:   -2.69 KCAL/MOL
REMARK 922        TOTAL FREE ENERGY PREDICTED BY IDOCK:   -4.29 KCAL/MOL
REMARK 923 INTER-LIGAND FREE ENERGY PREDICTED BY IDOCK:   -4.04 KCAL/MOL
REMARK 924 INTRA-LIGAND FREE ENERGY PREDICTED BY IDOCK:   -0.25 KCAL/MOL
REMARK 927      BINDING AFFINITY PREDICTED BY RF-SCORE:    0.00 PKD
ROOT
HETATM    1  N   UNL     1     -13.321  11.997  64.109  1.00  0.00    -0.618 NA 
HETATM    2  H2  UNL     1     -13.187  12.129  65.112  1.00  0.00     0.000 HD 
HETATM    3  C   UNL     1     -12.239  12.627  63.346  1.00  0.00    -0.517 C  
HETATM    4  H1  UNL     1     -14.244  12.319  63.817  1.00  0.00     0.000 HD 
ENDROOT
BRANCH   3   5
HETATM    5  C   UNL     1     -10.846  12.142  63.787  1.00  0.00    -0.432 C  
BRANCH   5   6
HETATM    6  N   UNL     1      -9.934  13.267  64.019  1.00  0.00    -0.750 NA 
HETATM    7  H   UNL     1      -9.549  13.624  63.145  1.00  0.00     0.000 HD 
BRANCH   6   8
HETATM    8  C   UNL     1     -10.585  14.331  64.796  1.00  0.00    -0.412 C  
BRANCH   8   9
HETATM    9  C   UNL     1     -10.227  14.211  66.290  1.00  0.00    -0.295 C  
BRANCH   9  10
HETATM   10  N   UNL     1      -8.806  13.870  66.483  1.00  0.00    -0.458 NA 
HETATM   11  H   UNL     1      -8.244  14.100  65.663  1.00  0.00     0.000 HD 
BRANCH  10  12
HETATM   12  C   UNL     1      -8.290  14.513  67.703  1.00  0.00    -0.180 C  
BRANCH  12  13
HETATM   13  C   UNL     1      -9.139  15.737  68.096  1.00  0.00    -0.185 C  
HETATM   14  N   UNL     1      -8.410  17.000  67.931  1.00  0.00    -0.197 NA 
HETATM   15  H1  UNL     1      -8.972  17.810  68.191  1.00  0.00     0.000 HD 
HETATM   16  H2  UNL     1      -8.047  17.093  66.982  1.00  0.00     0.000 HD 
ENDBRANCH  12  13
ENDBRANCH  10  12
ENDBRANCH   9  10
ENDBRANCH   8   9
ENDBRANCH   6   8
ENDBRANCH   5   6
ENDBRANCH   3   5
TORSDOF 7
ENDMDL
MODEL       98
REMARK 921   NORMALIZED FREE ENERGY PREDICTED BY IDOCK:   -2.69 KCAL/MOL
REMARK 922        TOTAL FREE ENERGY PREDICTED BY IDOCK:   -4.29 KCAL/MOL
REMARK 923 INTER-LIGAND FREE ENERGY PREDICTED BY IDOCK:   -4.06 KCAL/MOL
REMARK 924 INTRA-LIGAND FREE ENERGY PREDICTED BY IDOCK:   -0.23 KCAL/MOL
REMARK 927      BINDING AFFINITY PREDICTED BY RF-SCORE:    0.00 PKD
ROOT
HETATM    1  N   UNL     1      -6.673  11.529  66.110  1.00  0.00    -0.365 NA 
HETATM    2  H2  UNL     1      -7.662  11.624  66.344  1.00  0.00     0.000 HD 
HETATM    3  C   UNL     1      -6.311  10.122  65.916  1.00  0.00    -0.098 C  
HETATM    4  H1  UNL     1      -6.086  11.992  66.804  1.00  0.00     0.000 HD 
ENDROOT
BRANCH   3   5
HETATM    5  C   UNL     1      -7.198   9.423  64.869  1.00  0.00    -0.106 C  
BRANCH   5   6
HETATM    6  N   UNL     1      -7.889  10.395  64.014  1.00  0.00    -0.303 NA 
HETATM    7  H   UNL     1      -7.360  10.588  63.164  1.00  0.00     0.000 HD 
BRANCH   6   8
HETATM    8  C   UNL     1      -9.259   9.960  63.711  1.00  0.00    -0.243 C  
BRANCH   8   9
HETATM    9  C   UNL     1     -10.134  11.161  63.302  1.00  0.00    -0.380 C  
BRANCH   9  10
HETATM   10  N   UNL     1      -9.587  12.431  63.812  1.00  0.00    -0.655 NA 
HETATM   11  H   UNL     1      -9.172  12.994  63.068  1.00  0.00     0.000 HD 
BRANCH  10  12
HETATM   12  C   UNL     1     -10.624  13.172  64.548  1.00  0.00    -0.406 C  
BRANCH  12  13
HETATM   13  C   UNL     1     -12.018  12.954  63.931  1.00  0.00    -0.480 C  
HETATM   14  N   UNL     1     -12.618  14.203  63.448  1.00  0.00    -1.023 NA 
HETATM   15  H1  UNL     1     -13.541  14.059  63.039  1.00  0.00     0.000 HD 
HETATM   16  H2  UNL     1     -11.997  14.681  62.795  1.00  0.00     0.000 HD 
ENDBRANCH  12  13
ENDBRANCH  10  12
ENDBRANCH   9  10
ENDBRANCH   8   9
ENDBRANCH   6   8
ENDBRANCH   5   6
ENDBRANCH   3   5
TORSDOF 7
ENDMDL
MODEL       99
REMARK 921   NORMALIZED FREE ENERGY PREDICTED BY IDOCK:   -2.67 KCAL/MOL
REMARK 922        TOTAL FREE ENERGY PREDICTED BY IDOCK:   -4.27 KCAL/MOL
REMARK 923 INTER-LIGAND FREE ENERGY PREDICTED BY IDOCK:   -3.80 KCAL/MOL
REMARK 924 INTRA-LIGAND FREE ENERGY PREDICTED BY IDOCK:   -0.47 KCAL/MOL
REMARK 927      BINDING AFFINITY PREDICTED BY RF-SCORE:    0.00 PKD
ROOT
HETATM    1  N   UNL     1      -7.398  17.853  66.820  1.00  0.00    -0.190 NA 
HETATM    2  H2  UNL     1      -8.310  17.619  67.211  1.00  0.00     0.000 HD 
HETATM    3  C   UNL     1      -7.421  19.173  66.182  1.00  0.00    -0.274 C  
HETATM    4  H1  UNL     1      -7.069  17.121  66.191  1.00  0.00     0.000 HD 
ENDROOT
BRANCH   3   5
HETATM    5  C   UNL     1      -7.917  20.279  67.131  1.00  0.00    -0.339 C  
BRANCH   5   6
HETATM    6  N   UNL     1      -9.326  20.606  66.886  1.00  0.00    -0.640 NA 
HETATM    7  H   UNL     1      -9.632  20.281  65.969  1.00  0.00     0.000 HD 
BRANCH   6   8
HETATM    8  C   UNL     1     -10.188  20.088  67.957  1.00  0.00    -0.398 C  
BRANCH   8   9
HETATM    9  C   UNL     1     -10.784  18.722  67.563  1.00  0.00    -0.411 C  
BRANCH   9  10
HETATM   10  N   UNL     1     -10.221  17.628  68.374  1.00  0.00    -0.359 NA 
HETATM   11  H   UNL     1     -10.327  17.801  69.374  1.00  0.00     0.000 HD 
BRANCH  10  12
HETATM   12  C   UNL     1     -10.813  16.341  67.973  1.00  0.00    -0.339 C  
BRANCH  12  13
HETATM   13  C   UNL     1     -11.416  15.598  69.179  1.00  0.00    -0.359 C  
HETATM   14  N   UNL     1     -11.404  16.411  70.400  1.00  0.00    -0.488 NA 
HETATM   15  H1  UNL     1     -11.804  15.919  71.199  1.00  0.00     0.000 HD 
HETATM   16  H2  UNL     1     -11.869  17.306  70.250  1.00  0.00     0.000 HD 
ENDBRANCH  12  13
ENDBRANCH  10  12
ENDBRANCH   9  10
ENDBRANCH   8   9
ENDBRANCH   6   8
ENDBRANCH   5   6
ENDBRANCH   3   5
TORSDOF 7
ENDMDL
MODEL      100
REMARK 921   NORMALIZED FREE ENERGY PREDICTED BY IDOCK:   -2.67 KCAL/MOL
REMARK 922        TOTAL FREE ENERGY PREDICTED BY IDOCK:   -4.27 KCAL/MOL
REMARK 923 INTER-LIGAND FREE ENERGY PREDICTED BY IDOCK:   -3.84 KCAL/MOL
REMARK 924 INTRA-LIGAND FREE ENERGY PREDICTED BY IDOCK:   -0.43 KCAL/MOL
REMARK 927      BINDING AFFINITY PREDICTED BY RF-SCORE:    0.00 PKD
ROOT
HETATM    1  N   UNL     1     -11.546  14.460  66.932  1.00  0.00    -0.373 NA 
HETATM    2  H2  UNL     1     -10.602  14.704  66.631  1.00  0.00     0.000 HD 
HETATM    3  C   UNL     1     -11.744  13.007  66.920  1.00  0.00    -0.383 C  
HETATM    4  H1  UNL     1     -12.246  14.954  66.379  1.00  0.00     0.000 HD 
ENDROOT
BRANCH   3   5
HETATM    5  C   UNL     1     -10.686  12.261  67.754  1.00  0.00    -0.217 C  
BRANCH   5   6
HETATM    6  N   UNL     1     -10.775  12.614  69.175  1.00  0.00    -0.436 NA 
HETATM    7  H   UNL     1     -10.656  13.616  69.321  1.00  0.00     0.000 HD 
BRANCH   6   8
HETATM    8  C   UNL     1     -12.029  12.128  69.768  1.00  0.00    -0.302 C  
BRANCH   8   9
HETATM    9  C   UNL     1     -12.608  13.170  70.745  1.00  0.00    -0.260 C  
BRANCH   9  10
HETATM   10  N   UNL     1     -12.898  14.447  70.069  1.00  0.00    -0.494 NA 
HETATM   11  H   UNL     1     -13.893  14.554  69.868  1.00  0.00     0.000 HD 
BRANCH  10  12
HETATM   12  C   UNL     1     -12.372  15.572  70.860  1.00  0.00    -0.422 C  
BRANCH  12  13
HETATM   13  C   UNL     1     -13.004  15.616  72.265  1.00  0.00    -0.447 C  
HETATM   14  N   UNL     1     -12.207  16.403  73.212  1.00  0.00    -0.504 NA 
HETATM   15  H1  UNL     1     -12.624  16.432  74.142  1.00  0.00     0.000 HD 
HETATM   16  H2  UNL     1     -12.036  17.344  72.856  1.00  0.00     0.000 HD 
ENDBRANCH  12  13
ENDBRANCH  10  12
ENDBRANCH   9  10
ENDBRANCH   8   9
ENDBRANCH   6   8
ENDBRANCH   5   6
ENDBRANCH   3   5
TORSDOF 7
ENDMDL
MODEL      101
REMARK 921   NORMALIZED FREE ENERGY PREDICTED BY IDOCK:   -2.67 KCAL/MOL
REMARK 922        TOTAL FREE ENERGY PREDICTED BY IDOCK:   -4.26 KCAL/MOL
REMARK 923 INTER-LIGAND FREE ENERGY PREDICTED BY IDOCK:   -4.14 KCAL/MOL
REMARK 924 INTRA-LIGAND FREE ENERGY PREDICTED BY IDOCK:   -0.12 KCAL/MOL
REMARK 927      BINDING AFFINITY PREDICTED BY RF-SCORE:    0.00 PKD
ROOT
HETATM    1  N   UNL     1      -8.872   6.702  65.087  1.00  0.00    -0.360 NA 
HETATM    2  H2  UNL     1      -9.620   6.482  64.429  1.00  0.00     0.000 HD 
HETATM    3  C   UNL     1      -7.693   7.224  64.391  1.00  0.00    -0.120 C  
HETATM    4  H1  UNL     1      -8.654   5.897  65.675  1.00  0.00     0.000 HD 
ENDROOT
BRANCH   3   5
HETATM    5  C   UNL     1      -8.023   8.438  63.502  1.00  0.00    -0.159 C  
BRANCH   5   6
HETATM    6  N   UNL     1      -9.194   9.167  64.001  1.00  0.00    -0.370 NA 
HETATM    7  H   UNL     1      -9.107   9.379  64.995  1.00  0.00     0.000 HD 
BRANCH   6   8
HETATM    8  C   UNL     1      -9.443  10.381  63.211  1.00  0.00    -0.323 C  
BRANCH   8   9
HETATM    9  C   UNL     1     -10.494  11.273  63.900  1.00  0.00    -0.391 C  
BRANCH   9  10
HETATM   10  N   UNL     1     -11.671  11.492  63.041  1.00  0.00    -0.874 NA 
HETATM   11  H   UNL     1     -11.912  10.658  62.504  1.00  0.00     0.000 HD 
BRANCH  10  12
HETATM   12  C   UNL     1     -12.805  11.975  63.846  1.00  0.00    -0.284 C  
BRANCH  12  13
HETATM   13  C   UNL     1     -12.328  12.818  65.044  1.00  0.00    -0.499 C  
HETATM   14  N   UNL     1     -13.084  14.067  65.186  1.00  0.00    -0.759 NA 
HETATM   15  H1  UNL     1     -12.768  14.625  65.979  1.00  0.00     0.000 HD 
HETATM   16  H2  UNL     1     -14.086  13.886  65.240  1.00  0.00     0.000 HD 
ENDBRANCH  12  13
ENDBRANCH  10  12
ENDBRANCH   9  10
ENDBRANCH   8   9
ENDBRANCH   6   8
ENDBRANCH   5   6
ENDBRANCH   3   5
TORSDOF 7
ENDMDL
MODEL      102
REMARK 921   NORMALIZED FREE ENERGY PREDICTED BY IDOCK:   -2.66 KCAL/MOL
REMARK 922        TOTAL FREE ENERGY PREDICTED BY IDOCK:   -4.26 KCAL/MOL
REMARK 923 INTER-LIGAND FREE ENERGY PREDICTED BY IDOCK:   -3.85 KCAL/MOL
REMARK 924 INTRA-LIGAND FREE ENERGY PREDICTED BY IDOCK:   -0.41 KCAL/MOL
REMARK 927      BINDING AFFINITY PREDICTED BY RF-SCORE:    0.00 PKD
ROOT
HETATM    1  N   UNL     1     -13.569  14.969  70.719  1.00  0.00    -0.679 NA 
HETATM    2  H2  UNL     1     -13.961  15.222  69.811  1.00  0.00     0.000 HD 
HETATM    3  C   UNL     1     -12.310  14.236  70.564  1.00  0.00    -0.360 C  
HETATM    4  H1  UNL     1     -14.250  14.461  71.283  1.00  0.00     0.000 HD 
ENDROOT
BRANCH   3   5
HETATM    5  C   UNL     1     -11.282  15.002  69.711  1.00  0.00    -0.277 C  
BRANCH   5   6
HETATM    6  N   UNL     1     -10.257  14.103  69.168  1.00  0.00    -0.422 NA 
HETATM    7  H   UNL     1     -10.605  13.149  69.078  1.00  0.00     0.000 HD 
BRANCH   6   8
HETATM    8  C   UNL     1      -9.727  14.607  67.893  1.00  0.00    -0.216 C  
BRANCH   8   9
HETATM    9  C   UNL     1     -10.783  15.463  67.166  1.00  0.00    -0.314 C  
BRANCH   9  10
HETATM   10  N   UNL     1     -11.632  14.645  66.282  1.00  0.00    -0.363 NA 
HETATM   11  H   UNL     1     -12.064  15.203  65.544  1.00  0.00     0.000 HD 
BRANCH  10  12
HETATM   12  C   UNL     1     -10.860  13.516  65.737  1.00  0.00    -0.275 C  
BRANCH  12  13
HETATM   13  C   UNL     1     -11.583  12.175  65.969  1.00  0.00    -0.358 C  
HETATM   14  N   UNL     1     -12.016  12.006  67.361  1.00  0.00    -0.585 NA 
HETATM   15  H1  UNL     1     -12.494  11.118  67.514  1.00  0.00     0.000 HD 
HETATM   16  H2  UNL     1     -12.591  12.791  67.664  1.00  0.00     0.000 HD 
ENDBRANCH  12  13
ENDBRANCH  10  12
ENDBRANCH   9  10
ENDBRANCH   8   9
ENDBRANCH   6   8
ENDBRANCH   5   6
ENDBRANCH   3   5
TORSDOF 7
ENDMDL
MODEL      103
REMARK 921   NORMALIZED FREE ENERGY PREDICTED BY IDOCK:   -2.66 KCAL/MOL
REMARK 922        TOTAL FREE ENERGY PREDICTED BY IDOCK:   -4.26 KCAL/MOL
REMARK 923 INTER-LIGAND FREE ENERGY PREDICTED BY IDOCK:   -4.10 KCAL/MOL
REMARK 924 INTRA-LIGAND FREE ENERGY PREDICTED BY IDOCK:   -0.15 KCAL/MOL
REMARK 927      BINDING AFFINITY PREDICTED BY RF-SCORE:    0.00 PKD
ROOT
HETATM    1  N   UNL     1     -10.131  18.563  68.770  1.00  0.00    -0.384 NA 
HETATM    2  H2  UNL     1      -9.937  18.380  69.754  1.00  0.00     0.000 HD 
HETATM    3  C   UNL     1     -10.150  17.318  67.996  1.00  0.00    -0.324 C  
HETATM    4  H1  UNL     1      -9.480  19.250  68.390  1.00  0.00     0.000 HD 
ENDROOT
BRANCH   3   5
HETATM    5  C   UNL     1     -11.132  16.281  68.570  1.00  0.00    -0.368 C  
BRANCH   5   6
HETATM    6  N   UNL     1     -11.195  15.079  67.731  1.00  0.00    -0.311 NA 
HETATM    7  H   UNL     1     -12.139  14.694  67.699  1.00  0.00     0.000 HD 
BRANCH   6   8
HETATM    8  C   UNL     1     -10.672  15.340  66.383  1.00  0.00    -0.318 C  
BRANCH   8   9
HETATM    9  C   UNL     1     -10.173  14.035  65.731  1.00  0.00    -0.328 C  
BRANCH   9  10
HETATM   10  N   UNL     1     -10.403  14.031  64.276  1.00  0.00    -0.641 NA 
HETATM   11  H   UNL     1      -9.528  14.038  63.751  1.00  0.00     0.000 HD 
BRANCH  10  12
HETATM   12  C   UNL     1     -11.261  12.895  63.901  1.00  0.00    -0.423 C  
BRANCH  12  13
HETATM   13  C   UNL     1     -10.440  11.604  63.721  1.00  0.00    -0.402 C  
HETATM   14  N   UNL     1      -9.379  11.751  62.717  1.00  0.00    -0.604 NA 
HETATM   15  H1  UNL     1      -8.835  10.897  62.598  1.00  0.00     0.000 HD 
HETATM   16  H2  UNL     1      -8.776  12.544  62.934  1.00  0.00     0.000 HD 
ENDBRANCH  12  13
ENDBRANCH  10  12
ENDBRANCH   9  10
ENDBRANCH   8   9
ENDBRANCH   6   8
ENDBRANCH   5   6
ENDBRANCH   3   5
TORSDOF 7
ENDMDL
MODEL      104
REMARK 921   NORMALIZED FREE ENERGY PREDICTED BY IDOCK:   -2.65 KCAL/MOL
REMARK 922        TOTAL FREE ENERGY PREDICTED BY IDOCK:   -4.24 KCAL/MOL
REMARK 923 INTER-LIGAND FREE ENERGY PREDICTED BY IDOCK:   -3.57 KCAL/MOL
REMARK 924 INTRA-LIGAND FREE ENERGY PREDICTED BY IDOCK:   -0.67 KCAL/MOL
REMARK 927      BINDING AFFINITY PREDICTED BY RF-SCORE:    0.00 PKD
ROOT
HETATM    1  N   UNL     1     -10.204  15.483  65.679  1.00  0.00    -0.346 NA 
HETATM    2  H2  UNL     1      -9.812  15.579  64.742  1.00  0.00     0.000 HD 
HETATM    3  C   UNL     1      -9.170  15.101  66.645  1.00  0.00    -0.270 C  
HETATM    4  H1  UNL     1     -10.997  14.840  65.680  1.00  0.00     0.000 HD 
ENDROOT
BRANCH   3   5
HETATM    5  C   UNL     1      -7.974  16.069  66.643  1.00  0.00    -0.256 C  
BRANCH   5   6
HETATM    6  N   UNL     1      -8.252  17.266  65.842  1.00  0.00    -0.543 NA 
HETATM    7  H   UNL     1      -9.190  17.624  66.017  1.00  0.00     0.000 HD 
BRANCH   6   8
HETATM    8  C   UNL     1      -7.231  18.301  66.057  1.00  0.00    -0.263 C  
BRANCH   8   9
HETATM    9  C   UNL     1      -7.882  19.696  66.148  1.00  0.00    -0.331 C  
BRANCH   9  10
HETATM   10  N   UNL     1      -8.488  19.928  67.471  1.00  0.00    -0.320 NA 
HETATM   11  H   UNL     1      -7.899  20.517  68.062  1.00  0.00     0.000 HD 
BRANCH  10  12
HETATM   12  C   UNL     1      -9.843  20.482  67.319  1.00  0.00    -0.441 C  
BRANCH  12  13
HETATM   13  C   UNL     1     -10.840  19.409  66.841  1.00  0.00    -0.404 C  
HETATM   14  N   UNL     1     -10.748  18.171  67.623  1.00  0.00    -0.399 NA 
HETATM   15  H1  UNL     1     -11.407  17.461  67.306  1.00  0.00     0.000 HD 
HETATM   16  H2  UNL     1     -10.858  18.357  68.620  1.00  0.00     0.000 HD 
ENDBRANCH  12  13
ENDBRANCH  10  12
ENDBRANCH   9  10
ENDBRANCH   8   9
ENDBRANCH   6   8
ENDBRANCH   5   6
ENDBRANCH   3   5
TORSDOF 7
ENDMDL
MODEL      105
REMARK 921   NORMALIZED FREE ENERGY PREDICTED BY IDOCK:   -2.65 KCAL/MOL
REMARK 922        TOTAL FREE ENERGY PREDICTED BY IDOCK:   -4.24 KCAL/MOL
REMARK 923 INTER-LIGAND FREE ENERGY PREDICTED BY IDOCK:   -3.62 KCAL/MOL
REMARK 924 INTRA-LIGAND FREE ENERGY PREDICTED BY IDOCK:   -0.62 KCAL/MOL
REMARK 927      BINDING AFFINITY PREDICTED BY RF-SCORE:    0.00 PKD
ROOT
HETATM    1  N   UNL     1      -8.598  16.038  67.956  1.00  0.00    -0.164 NA 
HETATM    2  H2  UNL     1      -7.856  16.289  67.303  1.00  0.00     0.000 HD 
HETATM    3  C   UNL     1      -9.591  17.111  68.062  1.00  0.00    -0.267 C  
HETATM    4  H1  UNL     1      -8.213  15.772  68.863  1.00  0.00     0.000 HD 
ENDROOT
BRANCH   3   5
HETATM    5  C   UNL     1     -10.172  17.514  66.694  1.00  0.00    -0.332 C  
BRANCH   5   6
HETATM    6  N   UNL     1      -9.734  16.599  65.634  1.00  0.00    -0.548 NA 
HETATM    7  H   UNL     1      -8.898  16.083  65.906  1.00  0.00     0.000 HD 
BRANCH   6   8
HETATM    8  C   UNL     1     -10.819  15.695  65.227  1.00  0.00    -0.406 C  
BRANCH   8   9
HETATM    9  C   UNL     1     -10.302  14.248  65.101  1.00  0.00    -0.415 C  
BRANCH   9  10
HETATM   10  N   UNL     1     -10.842  13.382  66.164  1.00  0.00    -0.280 NA 
HETATM   11  H   UNL     1     -10.101  12.952  66.719  1.00  0.00     0.000 HD 
BRANCH  10  12
HETATM   12  C   UNL     1     -11.789  14.136  67.002  1.00  0.00    -0.429 C  
BRANCH  12  13
HETATM   13  C   UNL     1     -11.667  13.741  68.485  1.00  0.00    -0.356 C  
HETATM   14  N   UNL     1     -10.285  13.433  68.870  1.00  0.00    -0.425 NA 
HETATM   15  H1  UNL     1     -10.204  13.172  69.853  1.00  0.00     0.000 HD 
HETATM   16  H2  UNL     1      -9.659  14.206  68.642  1.00  0.00     0.000 HD 
ENDBRANCH  12  13
ENDBRANCH  10  12
ENDBRANCH   9  10
ENDBRANCH   8   9
ENDBRANCH   6   8
ENDBRANCH   5   6
ENDBRANCH   3   5
TORSDOF 7
ENDMDL
MODEL      106
REMARK 921   NORMALIZED FREE ENERGY PREDICTED BY IDOCK:   -2.64 KCAL/MOL
REMARK 922        TOTAL FREE ENERGY PREDICTED BY IDOCK:   -4.23 KCAL/MOL
REMARK 923 INTER-LIGAND FREE ENERGY PREDICTED BY IDOCK:   -3.84 KCAL/MOL
REMARK 924 INTRA-LIGAND FREE ENERGY PREDICTED BY IDOCK:   -0.39 KCAL/MOL
REMARK 927      BINDING AFFINITY PREDICTED BY RF-SCORE:    0.00 PKD
ROOT
HETATM    1  N   UNL     1      -9.593   9.792  67.942  1.00  0.00    -0.138 NA 
HETATM    2  H2  UNL     1     -10.309   9.463  68.589  1.00  0.00     0.000 HD 
HETATM    3  C   UNL     1     -10.194  10.306  66.708  1.00  0.00    -0.228 C  
HETATM    4  H1  UNL     1      -8.898   9.067  67.765  1.00  0.00     0.000 HD 
ENDROOT
BRANCH   3   5
HETATM    5  C   UNL     1     -11.244  11.400  66.974  1.00  0.00    -0.283 C  
BRANCH   5   6
HETATM    6  N   UNL     1     -12.075  11.076  68.138  1.00  0.00    -0.780 NA 
HETATM    7  H   UNL     1     -11.908  10.124  68.464  1.00  0.00     0.000 HD 
BRANCH   6   8
HETATM    8  C   UNL     1     -11.889  12.056  69.217  1.00  0.00    -0.318 C  
BRANCH   8   9
HETATM    9  C   UNL     1     -12.042  11.383  70.595  1.00  0.00    -0.372 C  
BRANCH   9  10
HETATM   10  N   UNL     1     -11.501  10.012  70.595  1.00  0.00    -0.319 NA 
HETATM   11  H   UNL     1     -10.488  10.002  70.467  1.00  0.00     0.000 HD 
BRANCH  10  12
HETATM   12  C   UNL     1     -11.908   9.304  71.820  1.00  0.00    -0.384 C  
BRANCH  12  13
HETATM   13  C   UNL     1     -13.423   9.025  71.833  1.00  0.00    -0.425 C  
HETATM   14  N   UNL     1     -13.778   7.827  71.063  1.00  0.00    -0.598 NA 
HETATM   15  H1  UNL     1     -14.780   7.643  71.071  1.00  0.00     0.000 HD 
HETATM   16  H2  UNL     1     -13.251   7.015  71.385  1.00  0.00     0.000 HD 
ENDBRANCH  12  13
ENDBRANCH  10  12
ENDBRANCH   9  10
ENDBRANCH   8   9
ENDBRANCH   6   8
ENDBRANCH   5   6
ENDBRANCH   3   5
TORSDOF 7
ENDMDL
MODEL      107
REMARK 921   NORMALIZED FREE ENERGY PREDICTED BY IDOCK:   -2.63 KCAL/MOL
REMARK 922        TOTAL FREE ENERGY PREDICTED BY IDOCK:   -4.22 KCAL/MOL
REMARK 923 INTER-LIGAND FREE ENERGY PREDICTED BY IDOCK:   -4.05 KCAL/MOL
REMARK 924 INTRA-LIGAND FREE ENERGY PREDICTED BY IDOCK:   -0.17 KCAL/MOL
REMARK 927      BINDING AFFINITY PREDICTED BY RF-SCORE:    0.00 PKD
ROOT
HETATM    1  N   UNL     1     -11.593  16.246  63.926  1.00  0.00    -1.573 NA 
HETATM    2  H2  UNL     1     -12.489  16.613  64.248  1.00  0.00     0.000 HD 
HETATM    3  C   UNL     1     -10.856  15.617  65.026  1.00  0.00    -0.450 C  
HETATM    4  H1  UNL     1     -11.050  16.968  63.454  1.00  0.00     0.000 HD 
ENDROOT
BRANCH   3   5
HETATM    5  C   UNL     1     -11.676  14.527  65.739  1.00  0.00    -0.344 C  
BRANCH   5   6
HETATM    6  N   UNL     1     -11.104  14.193  67.048  1.00  0.00    -0.300 NA 
HETATM    7  H   UNL     1     -11.825  13.912  67.712  1.00  0.00     0.000 HD 
BRANCH   6   8
HETATM    8  C   UNL     1     -10.054  13.172  66.926  1.00  0.00    -0.245 C  
BRANCH   8   9
HETATM    9  C   UNL     1      -9.730  12.558  68.302  1.00  0.00    -0.220 C  
BRANCH   9  10
HETATM   10  N   UNL     1      -8.297  12.670  68.625  1.00  0.00    -0.345 NA 
HETATM   11  H   UNL     1      -7.935  11.817  69.054  1.00  0.00     0.000 HD 
BRANCH  10  12
HETATM   12  C   UNL     1      -7.534  13.048  67.424  1.00  0.00    -0.131 C  
BRANCH  12  13
HETATM   13  C   UNL     1      -6.759  14.362  67.640  1.00  0.00    -0.169 C  
HETATM   14  N   UNL     1      -7.223  15.437  66.756  1.00  0.00    -0.273 NA 
HETATM   15  H1  UNL     1      -6.710  16.307  66.899  1.00  0.00     0.000 HD 
HETATM   16  H2  UNL     1      -8.228  15.583  66.852  1.00  0.00     0.000 HD 
ENDBRANCH  12  13
ENDBRANCH  10  12
ENDBRANCH   9  10
ENDBRANCH   8   9
ENDBRANCH   6   8
ENDBRANCH   5   6
ENDBRANCH   3   5
TORSDOF 7
ENDMDL
MODEL      108
REMARK 921   NORMALIZED FREE ENERGY PREDICTED BY IDOCK:   -2.63 KCAL/MOL
REMARK 922        TOTAL FREE ENERGY PREDICTED BY IDOCK:   -4.21 KCAL/MOL
REMARK 923 INTER-LIGAND FREE ENERGY PREDICTED BY IDOCK:   -3.98 KCAL/MOL
REMARK 924 INTRA-LIGAND FREE ENERGY PREDICTED BY IDOCK:   -0.23 KCAL/MOL
REMARK 927      BINDING AFFINITY PREDICTED BY RF-SCORE:    0.00 PKD
ROOT
HETATM    1  N   UNL     1     -10.315  17.288  66.977  1.00  0.00    -0.324 NA 
HETATM    2  H2  UNL     1     -11.210  17.026  67.390  1.00  0.00     0.000 HD 
HETATM    3  C   UNL     1      -9.842  16.259  66.047  1.00  0.00    -0.343 C  
HETATM    4  H1  UNL     1      -9.629  17.507  67.700  1.00  0.00     0.000 HD 
ENDROOT
BRANCH   3   5
HETATM    5  C   UNL     1     -10.878  15.927  64.957  1.00  0.00    -0.426 C  
BRANCH   5   6
HETATM    6  N   UNL     1     -10.797  14.521  64.549  1.00  0.00    -0.621 NA 
HETATM    7  H   UNL     1     -10.291  13.960  65.234  1.00  0.00     0.000 HD 
BRANCH   6   8
HETATM    8  C   UNL     1     -12.131  13.967  64.278  1.00  0.00    -0.440 C  
BRANCH   8   9
HETATM    9  C   UNL     1     -12.541  12.972  65.381  1.00  0.00    -0.422 C  
BRANCH   9  10
HETATM   10  N   UNL     1     -11.503  11.950  65.607  1.00  0.00    -0.298 NA 
HETATM   11  H   UNL     1     -10.624  12.192  65.148  1.00  0.00     0.000 HD 
BRANCH  10  12
HETATM   12  C   UNL     1     -11.324  11.717  67.049  1.00  0.00    -0.321 C  
BRANCH  12  13
HETATM   13  C   UNL     1     -11.705  12.962  67.873  1.00  0.00    -0.357 C  
HETATM   14  N   UNL     1     -11.135  12.935  69.225  1.00  0.00    -0.424 NA 
HETATM   15  H1  UNL     1     -11.387  13.759  69.770  1.00  0.00     0.000 HD 
HETATM   16  H2  UNL     1     -10.124  12.809  69.194  1.00  0.00     0.000 HD 
ENDBRANCH  12  13
ENDBRANCH  10  12
ENDBRANCH   9  10
ENDBRANCH   8   9
ENDBRANCH   6   8
ENDBRANCH   5   6
ENDBRANCH   3   5
TORSDOF 7
ENDMDL
MODEL      109
REMARK 921   NORMALIZED FREE ENERGY PREDICTED BY IDOCK:   -2.63 KCAL/MOL
REMARK 922        TOTAL FREE ENERGY PREDICTED BY IDOCK:   -4.21 KCAL/MOL
REMARK 923 INTER-LIGAND FREE ENERGY PREDICTED BY IDOCK:   -4.04 KCAL/MOL
REMARK 924 INTRA-LIGAND FREE ENERGY PREDICTED BY IDOCK:   -0.17 KCAL/MOL
REMARK 927      BINDING AFFINITY PREDICTED BY RF-SCORE:    0.00 PKD
ROOT
HETATM    1  N   UNL     1      -7.895  13.812  69.020  1.00  0.00    -0.328 NA 
HETATM    2  H2  UNL     1      -8.480  13.104  69.465  1.00  0.00     0.000 HD 
HETATM    3  C   UNL     1      -7.804  13.588  67.574  1.00  0.00    -0.178 C  
HETATM    4  H1  UNL     1      -6.979  13.863  69.466  1.00  0.00     0.000 HD 
ENDROOT
BRANCH   3   5
HETATM    5  C   UNL     1      -9.187  13.510  66.901  1.00  0.00    -0.249 C  
BRANCH   5   6
HETATM    6  N   UNL     1      -9.961  14.737  67.118  1.00  0.00    -0.234 NA 
HETATM    7  H   UNL     1      -9.366  15.565  67.089  1.00  0.00     0.000 HD 
BRANCH   6   8
HETATM    8  C   UNL     1     -11.075  14.840  66.166  1.00  0.00    -0.339 C  
BRANCH   8   9
HETATM    9  C   UNL     1     -12.277  14.002  66.643  1.00  0.00    -0.428 C  
BRANCH   9  10
HETATM   10  N   UNL     1     -12.509  12.837  65.772  1.00  0.00    -0.576 NA 
HETATM   11  H   UNL     1     -13.429  12.421  65.928  1.00  0.00     0.000 HD 
BRANCH  10  12
HETATM   12  C   UNL     1     -12.306  13.208  64.362  1.00  0.00    -0.360 C  
BRANCH  12  13
HETATM   13  C   UNL     1     -12.362  11.975  63.441  1.00  0.00    -0.523 C  
HETATM   14  N   UNL     1     -11.046  11.351  63.259  1.00  0.00    -0.822 NA 
HETATM   15  H1  UNL     1     -11.083  10.535  62.649  1.00  0.00     0.000 HD 
HETATM   16  H2  UNL     1     -10.622  11.120  64.157  1.00  0.00     0.000 HD 
ENDBRANCH  12  13
ENDBRANCH  10  12
ENDBRANCH   9  10
ENDBRANCH   8   9
ENDBRANCH   6   8
ENDBRANCH   5   6
ENDBRANCH   3   5
TORSDOF 7
ENDMDL
MODEL      110
REMARK 921   NORMALIZED FREE ENERGY PREDICTED BY IDOCK:   -2.62 KCAL/MOL
REMARK 922        TOTAL FREE ENERGY PREDICTED BY IDOCK:   -4.20 KCAL/MOL
REMARK 923 INTER-LIGAND FREE ENERGY PREDICTED BY IDOCK:   -4.07 KCAL/MOL
REMARK 924 INTRA-LIGAND FREE ENERGY PREDICTED BY IDOCK:   -0.12 KCAL/MOL
REMARK 927      BINDING AFFINITY PREDICTED BY RF-SCORE:    0.00 PKD
ROOT
HETATM    1  N   UNL     1     -11.762  10.351  68.342  1.00  0.00    -0.717 NA 
HETATM    2  H2  UNL     1     -12.599   9.769  68.298  1.00  0.00     0.000 HD 
HETATM    3  C   UNL     1     -11.957  11.489  69.244  1.00  0.00    -0.330 C  
HETATM    4  H1  UNL     1     -11.467  10.638  67.409  1.00  0.00     0.000 HD 
ENDROOT
BRANCH   3   5
HETATM    5  C   UNL     1     -12.403  11.056  70.653  1.00  0.00    -0.386 C  
BRANCH   5   6
HETATM    6  N   UNL     1     -13.262   9.868  70.603  1.00  0.00    -0.611 NA 
HETATM    7  H   UNL     1     -12.965   9.221  69.873  1.00  0.00     0.000 HD 
BRANCH   6   8
HETATM    8  C   UNL     1     -13.335   9.206  71.913  1.00  0.00    -0.427 C  
BRANCH   8   9
HETATM    9  C   UNL     1     -11.952   8.663  72.325  1.00  0.00    -0.368 C  
BRANCH   9  10
HETATM   10  N   UNL     1     -11.983   7.207  72.546  1.00  0.00    -0.500 NA 
HETATM   11  H   UNL     1     -12.156   6.694  71.680  1.00  0.00     0.000 HD 
BRANCH  10  12
HETATM   12  C   UNL     1     -10.743   6.767  73.208  1.00  0.00    -0.302 C  
BRANCH  12  13
HETATM   13  C   UNL     1     -10.569   5.239  73.120  1.00  0.00    -0.234 C  
HETATM   14  N   UNL     1     -11.512   4.518  73.984  1.00  0.00    -0.198 NA 
HETATM   15  H1  UNL     1     -11.397   3.507  73.926  1.00  0.00     0.000 HD 
HETATM   16  H2  UNL     1     -12.474   4.791  73.786  1.00  0.00     0.000 HD 
ENDBRANCH  12  13
ENDBRANCH  10  12
ENDBRANCH   9  10
ENDBRANCH   8   9
ENDBRANCH   6   8
ENDBRANCH   5   6
ENDBRANCH   3   5
TORSDOF 7
ENDMDL
MODEL      111
REMARK 921   NORMALIZED FREE ENERGY PREDICTED BY IDOCK:   -2.60 KCAL/MOL
REMARK 922        TOTAL FREE ENERGY PREDICTED BY IDOCK:   -4.17 KCAL/MOL
REMARK 923 INTER-LIGAND FREE ENERGY PREDICTED BY IDOCK:   -3.90 KCAL/MOL
REMARK 924 INTRA-LIGAND FREE ENERGY PREDICTED BY IDOCK:   -0.27 KCAL/MOL
REMARK 927      BINDING AFFINITY PREDICTED BY RF-SCORE:    0.00 PKD
ROOT
HETATM    1  N   UNL     1      -8.572   7.988  64.313  1.00  0.00    -0.381 NA 
HETATM    2  H2  UNL     1      -9.412   7.473  64.051  1.00  0.00     0.000 HD 
HETATM    3  C   UNL     1      -8.908   9.319  64.826  1.00  0.00    -0.185 C  
HETATM    4  H1  UNL     1      -7.908   8.024  63.539  1.00  0.00     0.000 HD 
ENDROOT
BRANCH   3   5
HETATM    5  C   UNL     1      -9.910   9.265  65.993  1.00  0.00    -0.293 C  
BRANCH   5   6
HETATM    6  N   UNL     1      -9.587  10.256  67.026  1.00  0.00    -0.167 NA 
HETATM    7  H   UNL     1      -8.608  10.538  66.982  1.00  0.00     0.000 HD 
BRANCH   6   8
HETATM    8  C   UNL     1     -10.486  11.416  66.952  1.00  0.00    -0.240 C  
BRANCH   8   9
HETATM    9  C   UNL     1      -9.753  12.635  66.359  1.00  0.00    -0.258 C  
BRANCH   9  10
HETATM   10  N   UNL     1     -10.281  12.996  65.031  1.00  0.00    -0.408 NA 
HETATM   11  H   UNL     1      -9.634  12.744  64.283  1.00  0.00     0.000 HD 
BRANCH  10  12
HETATM   12  C   UNL     1     -11.611  12.396  64.833  1.00  0.00    -0.343 C  
BRANCH  12  13
HETATM   13  C   UNL     1     -12.196  12.765  63.457  1.00  0.00    -0.525 C  
HETATM   14  N   UNL     1     -12.434  14.206  63.318  1.00  0.00    -1.098 NA 
HETATM   15  H1  UNL     1     -12.822  14.451  62.407  1.00  0.00     0.000 HD 
HETATM   16  H2  UNL     1     -11.586  14.739  63.513  1.00  0.00     0.000 HD 
ENDBRANCH  12  13
ENDBRANCH  10  12
ENDBRANCH   9  10
ENDBRANCH   8   9
ENDBRANCH   6   8
ENDBRANCH   5   6
ENDBRANCH   3   5
TORSDOF 7
ENDMDL
MODEL      112
REMARK 921   NORMALIZED FREE ENERGY PREDICTED BY IDOCK:   -2.59 KCAL/MOL
REMARK 922        TOTAL FREE ENERGY PREDICTED BY IDOCK:   -4.16 KCAL/MOL
REMARK 923 INTER-LIGAND FREE ENERGY PREDICTED BY IDOCK:   -4.01 KCAL/MOL
REMARK 924 INTRA-LIGAND FREE ENERGY PREDICTED BY IDOCK:   -0.15 KCAL/MOL
REMARK 927      BINDING AFFINITY PREDICTED BY RF-SCORE:    0.00 PKD
ROOT
HETATM    1  N   UNL     1      -9.471  16.037  68.537  1.00  0.00    -0.209 NA 
HETATM    2  H2  UNL     1      -9.961  16.931  68.562  1.00  0.00     0.000 HD 
HETATM    3  C   UNL     1     -10.415  14.916  68.592  1.00  0.00    -0.242 C  
HETATM    4  H1  UNL     1      -8.763  15.987  69.270  1.00  0.00     0.000 HD 
ENDROOT
BRANCH   3   5
HETATM    5  C   UNL     1     -11.485  14.992  67.487  1.00  0.00    -0.328 C  
BRANCH   5   6
HETATM    6  N   UNL     1     -10.906  15.410  66.206  1.00  0.00    -0.313 NA 
HETATM    7  H   UNL     1      -9.889  15.462  66.253  1.00  0.00     0.000 HD 
BRANCH   6   8
HETATM    8  C   UNL     1     -11.350  14.537  65.110  1.00  0.00    -0.366 C  
BRANCH   8   9
HETATM    9  C   UNL     1     -12.548  13.675  65.553  1.00  0.00    -0.496 C  
BRANCH   9  10
HETATM   10  N   UNL     1     -12.188  12.249  65.646  1.00  0.00    -0.597 NA 
HETATM   11  H   UNL     1     -12.776  11.668  65.047  1.00  0.00     0.000 HD 
BRANCH  10  12
HETATM   12  C   UNL     1     -10.757  12.066  65.355  1.00  0.00    -0.287 C  
BRANCH  12  13
HETATM   13  C   UNL     1     -10.530  10.948  64.320  1.00  0.00    -0.335 C  
HETATM   14  N   UNL     1     -10.956  11.339  62.971  1.00  0.00    -0.836 NA 
HETATM   15  H1  UNL     1     -10.806  10.598  62.286  1.00  0.00     0.000 HD 
HETATM   16  H2  UNL     1     -10.504  12.206  62.681  1.00  0.00     0.000 HD 
ENDBRANCH  12  13
ENDBRANCH  10  12
ENDBRANCH   9  10
ENDBRANCH   8   9
ENDBRANCH   6   8
ENDBRANCH   5   6
ENDBRANCH   3   5
TORSDOF 7
ENDMDL
MODEL      113
REMARK 921   NORMALIZED FREE ENERGY PREDICTED BY IDOCK:   -2.59 KCAL/MOL
REMARK 922        TOTAL FREE ENERGY PREDICTED BY IDOCK:   -4.15 KCAL/MOL
REMARK 923 INTER-LIGAND FREE ENERGY PREDICTED BY IDOCK:   -3.96 KCAL/MOL
REMARK 924 INTRA-LIGAND FREE ENERGY PREDICTED BY IDOCK:   -0.19 KCAL/MOL
REMARK 927      BINDING AFFINITY PREDICTED BY RF-SCORE:    0.00 PKD
ROOT
HETATM    1  N   UNL     1     -12.244   6.757  70.368  1.00  0.00    -0.585 NA 
HETATM    2  H2  UNL     1     -12.608   5.828  70.155  1.00  0.00     0.000 HD 
HETATM    3  C   UNL     1     -10.859   6.899  69.912  1.00  0.00    -0.257 C  
HETATM    4  H1  UNL     1     -12.353   6.974  71.359  1.00  0.00     0.000 HD 
ENDROOT
BRANCH   3   5
HETATM    5  C   UNL     1     -10.694   6.570  68.417  1.00  0.00    -0.279 C  
BRANCH   5   6
HETATM    6  N   UNL     1     -10.906   7.755  67.579  1.00  0.00    -0.519 NA 
HETATM    7  H   UNL     1     -11.866   7.808  67.241  1.00  0.00     0.000 HD 
BRANCH   6   8
HETATM    8  C   UNL     1     -10.513   8.984  68.283  1.00  0.00    -0.200 C  
BRANCH   8   9
HETATM    9  C   UNL     1     -11.150  10.220  67.617  1.00  0.00    -0.251 C  
BRANCH   9  10
HETATM   10  N   UNL     1     -12.189  10.824  68.470  1.00  0.00    -0.822 NA 
HETATM   11  H   UNL     1     -12.866  10.132  68.793  1.00  0.00     0.000 HD 
BRANCH  10  12
HETATM   12  C   UNL     1     -11.568  11.551  69.589  1.00  0.00    -0.333 C  
BRANCH  12  13
HETATM   13  C   UNL     1     -12.176  11.131  70.941  1.00  0.00    -0.364 C  
HETATM   14  N   UNL     1     -11.995   9.701  71.216  1.00  0.00    -0.351 NA 
HETATM   15  H1  UNL     1     -12.398   9.423  72.111  1.00  0.00     0.000 HD 
HETATM   16  H2  UNL     1     -11.011   9.438  71.159  1.00  0.00     0.000 HD 
ENDBRANCH  12  13
ENDBRANCH  10  12
ENDBRANCH   9  10
ENDBRANCH   8   9
ENDBRANCH   6   8
ENDBRANCH   5   6
ENDBRANCH   3   5
TORSDOF 7
ENDMDL
MODEL      114
REMARK 921   NORMALIZED FREE ENERGY PREDICTED BY IDOCK:   -2.59 KCAL/MOL
REMARK 922        TOTAL FREE ENERGY PREDICTED BY IDOCK:   -4.15 KCAL/MOL
REMARK 923 INTER-LIGAND FREE ENERGY PREDICTED BY IDOCK:   -3.95 KCAL/MOL
REMARK 924 INTRA-LIGAND FREE ENERGY PREDICTED BY IDOCK:   -0.20 KCAL/MOL
REMARK 927      BINDING AFFINITY PREDICTED BY RF-SCORE:    0.00 PKD
ROOT
HETATM    1  N   UNL     1     -12.020  15.872  63.942  1.00  0.00    -1.249 NA 
HETATM    2  H2  UNL     1     -12.544  15.970  63.072  1.00  0.00     0.000 HD 
HETATM    3  C   UNL     1     -12.204  14.538  64.521  1.00  0.00    -0.465 C  
HETATM    4  H1  UNL     1     -12.255  16.618  64.597  1.00  0.00     0.000 HD 
ENDROOT
BRANCH   3   5
HETATM    5  C   UNL     1     -11.850  13.412  63.532  1.00  0.00    -0.344 C  
BRANCH   5   6
HETATM    6  N   UNL     1     -10.733  12.597  64.021  1.00  0.00    -0.398 NA 
HETATM    7  H   UNL     1      -9.903  13.164  64.192  1.00  0.00     0.000 HD 
BRANCH   6   8
HETATM    8  C   UNL     1     -11.115  11.829  65.214  1.00  0.00    -0.276 C  
BRANCH   8   9
HETATM    9  C   UNL     1      -9.977  11.834  66.253  1.00  0.00    -0.218 C  
BRANCH   9  10
HETATM   10  N   UNL     1      -9.587  13.205  66.626  1.00  0.00    -0.255 NA 
HETATM   11  H   UNL     1     -10.382  13.845  66.612  1.00  0.00     0.000 HD 
BRANCH  10  12
HETATM   12  C   UNL     1      -8.906  13.203  67.932  1.00  0.00    -0.196 C  
BRANCH  12  13
HETATM   13  C   UNL     1      -7.464  12.675  67.815  1.00  0.00    -0.131 C  
HETATM   14  N   UNL     1      -6.572  13.628  67.145  1.00  0.00    -0.421 NA 
HETATM   15  H1  UNL     1      -5.617  13.278  67.067  1.00  0.00     0.000 HD 
HETATM   16  H2  UNL     1      -6.594  14.537  67.605  1.00  0.00     0.000 HD 
ENDBRANCH  12  13
ENDBRANCH  10  12
ENDBRANCH   9  10
ENDBRANCH   8   9
ENDBRANCH   6   8
ENDBRANCH   5   6
ENDBRANCH   3   5
TORSDOF 7
ENDMDL
MODEL      115
REMARK 921   NORMALIZED FREE ENERGY PREDICTED BY IDOCK:   -2.58 KCAL/MOL
REMARK 922        TOTAL FREE ENERGY PREDICTED BY IDOCK:   -4.15 KCAL/MOL
REMARK 923 INTER-LIGAND FREE ENERGY PREDICTED BY IDOCK:   -3.98 KCAL/MOL
REMARK 924 INTRA-LIGAND FREE ENERGY PREDICTED BY IDOCK:   -0.17 KCAL/MOL
REMARK 927      BINDING AFFINITY PREDICTED BY RF-SCORE:    0.00 PKD
ROOT
HETATM    1  N   UNL     1     -11.194   9.880  67.980  1.00  0.00    -0.521 NA 
HETATM    2  H2  UNL     1     -12.177  10.138  68.065  1.00  0.00     0.000 HD 
HETATM    3  C   UNL     1     -10.615  10.415  66.744  1.00  0.00    -0.205 C  
HETATM    4  H1  UNL     1     -11.071   8.871  68.064  1.00  0.00     0.000 HD 
ENDROOT
BRANCH   3   5
HETATM    5  C   UNL     1     -10.801  11.938  66.616  1.00  0.00    -0.276 C  
BRANCH   5   6
HETATM    6  N   UNL     1     -11.996  12.270  65.831  1.00  0.00    -0.597 NA 
HETATM    7  H   UNL     1     -12.766  11.634  66.035  1.00  0.00     0.000 HD 
BRANCH   6   8
HETATM    8  C   UNL     1     -12.389  13.673  66.024  1.00  0.00    -0.445 C  
BRANCH   8   9
HETATM    9  C   UNL     1     -11.375  14.402  66.928  1.00  0.00    -0.348 C  
BRANCH   9  10
HETATM   10  N   UNL     1     -12.033  15.030  68.087  1.00  0.00    -0.538 NA 
HETATM   11  H   UNL     1     -12.988  15.320  67.873  1.00  0.00     0.000 HD 
BRANCH  10  12
HETATM   12  C   UNL     1     -11.979  14.130  69.251  1.00  0.00    -0.340 C  
BRANCH  12  13
HETATM   13  C   UNL     1     -12.668  14.755  70.479  1.00  0.00    -0.343 C  
HETATM   14  N   UNL     1     -11.803  15.711  71.180  1.00  0.00    -0.367 NA 
HETATM   15  H1  UNL     1     -12.259  16.125  71.993  1.00  0.00     0.000 HD 
HETATM   16  H2  UNL     1     -11.460  16.431  70.545  1.00  0.00     0.000 HD 
ENDBRANCH  12  13
ENDBRANCH  10  12
ENDBRANCH   9  10
ENDBRANCH   8   9
ENDBRANCH   6   8
ENDBRANCH   5   6
ENDBRANCH   3   5
TORSDOF 7
ENDMDL
MODEL      116
REMARK 921   NORMALIZED FREE ENERGY PREDICTED BY IDOCK:   -2.58 KCAL/MOL
REMARK 922        TOTAL FREE ENERGY PREDICTED BY IDOCK:   -4.14 KCAL/MOL
REMARK 923 INTER-LIGAND FREE ENERGY PREDICTED BY IDOCK:   -3.88 KCAL/MOL
REMARK 924 INTRA-LIGAND FREE ENERGY PREDICTED BY IDOCK:   -0.25 KCAL/MOL
REMARK 927      BINDING AFFINITY PREDICTED BY RF-SCORE:    0.00 PKD
ROOT
HETATM    1  N   UNL     1     -12.177  10.836  68.576  1.00  0.00    -0.822 NA 
HETATM    2  H2  UNL     1     -11.271  10.603  68.170  1.00  0.00     0.000 HD 
HETATM    3  C   UNL     1     -12.107  12.085  69.340  1.00  0.00    -0.202 C  
HETATM    4  H1  UNL     1     -12.542  10.060  69.128  1.00  0.00     0.000 HD 
ENDROOT
BRANCH   3   5
HETATM    5  C   UNL     1     -11.555  13.256  68.508  1.00  0.00    -0.333 C  
BRANCH   5   6
HETATM    6  N   UNL     1     -12.361  13.486  67.303  1.00  0.00    -0.304 NA 
HETATM    7  H   UNL     1     -13.341  13.645  67.533  1.00  0.00     0.000 HD 
BRANCH   6   8
HETATM    8  C   UNL     1     -11.811  14.584  66.495  1.00  0.00    -0.352 C  
BRANCH   8   9
HETATM    9  C   UNL     1     -10.895  14.035  65.384  1.00  0.00    -0.328 C  
BRANCH   9  10
HETATM   10  N   UNL     1      -9.722  14.902  65.168  1.00  0.00    -0.401 NA 
HETATM   11  H   UNL     1      -9.903  15.619  64.464  1.00  0.00     0.000 HD 
BRANCH  10  12
HETATM   12  C   UNL     1      -9.279  15.484  66.445  1.00  0.00    -0.305 C  
BRANCH  12  13
HETATM   13  C   UNL     1      -8.851  16.954  66.275  1.00  0.00    -0.279 C  
HETATM   14  N   UNL     1      -9.941  17.800  65.776  1.00  0.00    -0.559 NA 
HETATM   15  H1  UNL     1      -9.658  18.773  65.664  1.00  0.00     0.000 HD 
HETATM   16  H2  UNL     1     -10.767  17.723  66.370  1.00  0.00     0.000 HD 
ENDBRANCH  12  13
ENDBRANCH  10  12
ENDBRANCH   9  10
ENDBRANCH   8   9
ENDBRANCH   6   8
ENDBRANCH   5   6
ENDBRANCH   3   5
TORSDOF 7
ENDMDL
MODEL      117
REMARK 921   NORMALIZED FREE ENERGY PREDICTED BY IDOCK:   -2.57 KCAL/MOL
REMARK 922        TOTAL FREE ENERGY PREDICTED BY IDOCK:   -4.13 KCAL/MOL
REMARK 923 INTER-LIGAND FREE ENERGY PREDICTED BY IDOCK:   -3.98 KCAL/MOL
REMARK 924 INTRA-LIGAND FREE ENERGY PREDICTED BY IDOCK:   -0.15 KCAL/MOL
REMARK 927      BINDING AFFINITY PREDICTED BY RF-SCORE:    0.00 PKD
ROOT
HETATM    1  N   UNL     1      -9.937   6.025  72.772  1.00  0.00    -0.174 NA 
HETATM    2  H2  UNL     1      -9.586   6.371  73.665  1.00  0.00     0.000 HD 
HETATM    3  C   UNL     1     -11.314   6.469  72.539  1.00  0.00    -0.262 C  
HETATM    4  H1  UNL     1      -9.836   5.012  72.706  1.00  0.00     0.000 HD 
ENDROOT
BRANCH   3   5
HETATM    5  C   UNL     1     -11.466   7.998  72.639  1.00  0.00    -0.402 C  
BRANCH   5   6
HETATM    6  N   UNL     1     -12.863   8.386  72.862  1.00  0.00    -0.686 NA 
HETATM    7  H   UNL     1     -13.081   8.444  73.856  1.00  0.00     0.000 HD 
BRANCH   6   8
HETATM    8  C   UNL     1     -13.186   9.639  72.165  1.00  0.00    -0.444 C  
BRANCH   8   9
HETATM    9  C   UNL     1     -12.057  10.025  71.189  1.00  0.00    -0.380 C  
BRANCH   9  10
HETATM   10  N   UNL     1     -12.591  10.529  69.911  1.00  0.00    -0.535 NA 
HETATM   11  H   UNL     1     -13.448  11.067  70.042  1.00  0.00     0.000 HD 
BRANCH  10  12
HETATM   12  C   UNL     1     -11.560  11.302  69.199  1.00  0.00    -0.319 C  
BRANCH  12  13
HETATM   13  C   UNL     1     -11.926  12.796  69.125  1.00  0.00    -0.246 C  
HETATM   14  N   UNL     1     -11.746  13.480  70.411  1.00  0.00    -0.531 NA 
HETATM   15  H1  UNL     1     -11.989  14.470  70.362  1.00  0.00     0.000 HD 
HETATM   16  H2  UNL     1     -10.799  13.351  70.766  1.00  0.00     0.000 HD 
ENDBRANCH  12  13
ENDBRANCH  10  12
ENDBRANCH   9  10
ENDBRANCH   8   9
ENDBRANCH   6   8
ENDBRANCH   5   6
ENDBRANCH   3   5
TORSDOF 7
ENDMDL
MODEL      118
REMARK 921   NORMALIZED FREE ENERGY PREDICTED BY IDOCK:   -2.57 KCAL/MOL
REMARK 922        TOTAL FREE ENERGY PREDICTED BY IDOCK:   -4.12 KCAL/MOL
REMARK 923 INTER-LIGAND FREE ENERGY PREDICTED BY IDOCK:   -3.92 KCAL/MOL
REMARK 924 INTRA-LIGAND FREE ENERGY PREDICTED BY IDOCK:   -0.20 KCAL/MOL
REMARK 927      BINDING AFFINITY PREDICTED BY RF-SCORE:    0.00 PKD
ROOT
HETATM    1  N   UNL     1      -6.802  10.682  64.765  1.00  0.00    -0.356 NA 
HETATM    2  H2  UNL     1      -6.989  11.664  64.565  1.00  0.00     0.000 HD 
HETATM    3  C   UNL     1      -7.950   9.843  64.412  1.00  0.00    -0.146 C  
HETATM    4  H1  UNL     1      -6.509  10.555  65.734  1.00  0.00     0.000 HD 
ENDROOT
BRANCH   3   5
HETATM    5  C   UNL     1      -8.393  10.035  62.950  1.00  0.00    -0.166 C  
BRANCH   5   6
HETATM    6  N   UNL     1      -9.848  10.186  62.844  1.00  0.00    -0.519 NA 
HETATM    7  H   UNL     1     -10.307   9.289  62.683  1.00  0.00     0.000 HD 
BRANCH   6   8
HETATM    8  C   UNL     1     -10.401  10.871  64.020  1.00  0.00    -0.349 C  
BRANCH   8   9
HETATM    9  C   UNL     1     -11.005  12.232  63.623  1.00  0.00    -0.471 C  
BRANCH   9  10
HETATM   10  N   UNL     1     -10.132  13.352  64.017  1.00  0.00    -0.749 NA 
HETATM   11  H   UNL     1      -9.766  13.853  63.206  1.00  0.00     0.000 HD 
BRANCH  10  12
HETATM   12  C   UNL     1     -10.841  14.248  64.944  1.00  0.00    -0.416 C  
BRANCH  12  13
HETATM   13  C   UNL     1     -10.223  14.204  66.354  1.00  0.00    -0.290 C  
HETATM   14  N   UNL     1      -8.905  14.847  66.408  1.00  0.00    -0.460 NA 
HETATM   15  H1  UNL     1      -8.496  14.817  67.342  1.00  0.00     0.000 HD 
HETATM   16  H2  UNL     1      -8.948  15.803  66.056  1.00  0.00     0.000 HD 
ENDBRANCH  12  13
ENDBRANCH  10  12
ENDBRANCH   9  10
ENDBRANCH   8   9
ENDBRANCH   6   8
ENDBRANCH   5   6
ENDBRANCH   3   5
TORSDOF 7
ENDMDL
MODEL      119
REMARK 921   NORMALIZED FREE ENERGY PREDICTED BY IDOCK:   -2.56 KCAL/MOL
REMARK 922        TOTAL FREE ENERGY PREDICTED BY IDOCK:   -4.12 KCAL/MOL
REMARK 923 INTER-LIGAND FREE ENERGY PREDICTED BY IDOCK:   -3.39 KCAL/MOL
REMARK 924 INTRA-LIGAND FREE ENERGY PREDICTED BY IDOCK:   -0.72 KCAL/MOL
REMARK 927      BINDING AFFINITY PREDICTED BY RF-SCORE:    0.00 PKD
ROOT
HETATM    1  N   UNL     1      -9.913  18.354  65.833  1.00  0.00    -0.539 NA 
HETATM    2  H2  UNL     1      -9.962  17.576  66.491  1.00  0.00     0.000 HD 
HETATM    3  C   UNL     1     -10.687  19.502  66.314  1.00  0.00    -0.429 C  
HETATM    4  H1  UNL     1     -10.190  18.061  64.896  1.00  0.00     0.000 HD 
ENDROOT
BRANCH   3   5
HETATM    5  C   UNL     1     -10.269  19.945  67.728  1.00  0.00    -0.429 C  
BRANCH   5   6
HETATM    6  N   UNL     1      -9.500  18.900  68.413  1.00  0.00    -0.338 NA 
HETATM    7  H   UNL     1      -9.291  18.120  67.792  1.00  0.00     0.000 HD 
BRANCH   6   8
HETATM    8  C   UNL     1      -8.278  19.448  69.019  1.00  0.00    -0.231 C  
BRANCH   8   9
HETATM    9  C   UNL     1      -7.034  18.693  68.512  1.00  0.00    -0.266 C  
BRANCH   9  10
HETATM   10  N   UNL     1      -7.235  18.163  67.152  1.00  0.00    -0.196 NA 
HETATM   11  H   UNL     1      -8.100  18.506  66.733  1.00  0.00     0.000 HD 
BRANCH  10  12
HETATM   12  C   UNL     1      -6.062  18.458  66.313  1.00  0.00    -0.172 C  
BRANCH  12  13
HETATM   13  C   UNL     1      -6.417  19.427  65.169  1.00  0.00    -0.267 C  
HETATM   14  N   UNL     1      -7.431  20.411  65.565  1.00  0.00    -0.526 NA 
HETATM   15  H1  UNL     1      -7.666  21.053  64.808  1.00  0.00     0.000 HD 
HETATM   16  H2  UNL     1      -7.143  20.919  66.401  1.00  0.00     0.000 HD 
ENDBRANCH  12  13
ENDBRANCH  10  12
ENDBRANCH   9  10
ENDBRANCH   8   9
ENDBRANCH   6   8
ENDBRANCH   5   6
ENDBRANCH   3   5
TORSDOF 7
ENDMDL
MODEL      120
REMARK 921   NORMALIZED FREE ENERGY PREDICTED BY IDOCK:   -2.55 KCAL/MOL
REMARK 922        TOTAL FREE ENERGY PREDICTED BY IDOCK:   -4.10 KCAL/MOL
REMARK 923 INTER-LIGAND FREE ENERGY PREDICTED BY IDOCK:   -3.92 KCAL/MOL
REMARK 924 INTRA-LIGAND FREE ENERGY PREDICTED BY IDOCK:   -0.19 KCAL/MOL
REMARK 927      BINDING AFFINITY PREDICTED BY RF-SCORE:    0.00 PKD
ROOT
HETATM    1  N   UNL     1     -10.642  18.225  66.892  1.00  0.00    -0.363 NA 
HETATM    2  H2  UNL     1     -11.640  18.051  67.008  1.00  0.00     0.000 HD 
HETATM    3  C   UNL     1      -9.891  16.968  66.825  1.00  0.00    -0.278 C  
HETATM    4  H1  UNL     1     -10.292  18.850  67.618  1.00  0.00     0.000 HD 
ENDROOT
BRANCH   3   5
HETATM    5  C   UNL     1     -10.419  16.024  65.729  1.00  0.00    -0.374 C  
BRANCH   5   6
HETATM    6  N   UNL     1     -10.529  14.644  66.215  1.00  0.00    -0.290 NA 
HETATM    7  H   UNL     1      -9.783  14.418  66.873  1.00  0.00     0.000 HD 
BRANCH   6   8
HETATM    8  C   UNL     1     -11.855  14.386  66.793  1.00  0.00    -0.410 C  
BRANCH   8   9
HETATM    9  C   UNL     1     -11.747  14.135  68.310  1.00  0.00    -0.348 C  
BRANCH   9  10
HETATM   10  N   UNL     1     -12.418  15.193  69.086  1.00  0.00    -0.596 NA 
HETATM   11  H   UNL     1     -13.266  15.526  68.623  1.00  0.00     0.000 HD 
BRANCH  10  12
HETATM   12  C   UNL     1     -12.687  14.726  70.456  1.00  0.00    -0.343 C  
BRANCH  12  13
HETATM   13  C   UNL     1     -12.412  15.832  71.492  1.00  0.00    -0.455 C  
HETATM   14  N   UNL     1     -11.575  15.363  72.603  1.00  0.00    -0.459 NA 
HETATM   15  H1  UNL     1     -11.393  16.095  73.289  1.00  0.00     0.000 HD 
HETATM   16  H2  UNL     1     -10.705  14.955  72.261  1.00  0.00     0.000 HD 
ENDBRANCH  12  13
ENDBRANCH  10  12
ENDBRANCH   9  10
ENDBRANCH   8   9
ENDBRANCH   6   8
ENDBRANCH   5   6
ENDBRANCH   3   5
TORSDOF 7
ENDMDL
MODEL      121
REMARK 921   NORMALIZED FREE ENERGY PREDICTED BY IDOCK:   -2.55 KCAL/MOL
REMARK 922        TOTAL FREE ENERGY PREDICTED BY IDOCK:   -4.10 KCAL/MOL
REMARK 923 INTER-LIGAND FREE ENERGY PREDICTED BY IDOCK:   -3.99 KCAL/MOL
REMARK 924 INTRA-LIGAND FREE ENERGY PREDICTED BY IDOCK:   -0.11 KCAL/MOL
REMARK 927      BINDING AFFINITY PREDICTED BY RF-SCORE:    0.00 PKD
ROOT
HETATM    1  N   UNL     1     -12.159  15.748  63.714  1.00  0.00    -1.173 NA 
HETATM    2  H2  UNL     1     -12.552  15.379  62.848  1.00  0.00     0.000 HD 
HETATM    3  C   UNL     1     -12.034  14.695  64.726  1.00  0.00    -0.433 C  
HETATM    4  H1  UNL     1     -12.695  16.549  64.048  1.00  0.00     0.000 HD 
ENDROOT
BRANCH   3   5
HETATM    5  C   UNL     1     -11.225  13.485  64.222  1.00  0.00    -0.360 C  
BRANCH   5   6
HETATM    6  N   UNL     1      -9.882  13.453  64.811  1.00  0.00    -0.605 NA 
HETATM    7  H   UNL     1      -9.425  14.363  64.753  1.00  0.00     0.000 HD 
BRANCH   6   8
HETATM    8  C   UNL     1      -9.917  12.955  66.193  1.00  0.00    -0.272 C  
BRANCH   8   9
HETATM    9  C   UNL     1     -10.680  11.617  66.269  1.00  0.00    -0.272 C  
BRANCH   9  10
HETATM   10  N   UNL     1     -10.198  10.779  67.381  1.00  0.00    -0.195 NA 
HETATM   11  H   UNL     1     -10.700  10.970  68.249  1.00  0.00     0.000 HD 
BRANCH  10  12
HETATM   12  C   UNL     1     -10.264   9.355  67.010  1.00  0.00    -0.255 C  
BRANCH  12  13
HETATM   13  C   UNL     1      -9.752   8.452  68.148  1.00  0.00    -0.155 C  
HETATM   14  N   UNL     1     -10.574   8.556  69.359  1.00  0.00    -0.268 NA 
HETATM   15  H1  UNL     1     -10.234   7.958  70.112  1.00  0.00     0.000 HD 
HETATM   16  H2  UNL     1     -11.555   8.368  69.154  1.00  0.00     0.000 HD 
ENDBRANCH  12  13
ENDBRANCH  10  12
ENDBRANCH   9  10
ENDBRANCH   8   9
ENDBRANCH   6   8
ENDBRANCH   5   6
ENDBRANCH   3   5
TORSDOF 7
ENDMDL
MODEL      122
REMARK 921   NORMALIZED FREE ENERGY PREDICTED BY IDOCK:   -2.55 KCAL/MOL
REMARK 922        TOTAL FREE ENERGY PREDICTED BY IDOCK:   -4.09 KCAL/MOL
REMARK 923 INTER-LIGAND FREE ENERGY PREDICTED BY IDOCK:   -3.97 KCAL/MOL
REMARK 924 INTRA-LIGAND FREE ENERGY PREDICTED BY IDOCK:   -0.12 KCAL/MOL
REMARK 927      BINDING AFFINITY PREDICTED BY RF-SCORE:    0.00 PKD
ROOT
HETATM    1  N   UNL     1     -11.800  16.168  63.775  1.00  0.00    -1.368 NA 
HETATM    2  H2  UNL     1     -11.047  16.387  63.122  1.00  0.00     0.000 HD 
HETATM    3  C   UNL     1     -11.397  15.112  64.708  1.00  0.00    -0.395 C  
HETATM    4  H1  UNL     1     -12.661  15.943  63.278  1.00  0.00     0.000 HD 
ENDROOT
BRANCH   3   5
HETATM    5  C   UNL     1     -10.096  15.451  65.457  1.00  0.00    -0.373 C  
BRANCH   5   6
HETATM    6  N   UNL     1      -9.909  14.588  66.629  1.00  0.00    -0.263 NA 
HETATM    7  H   UNL     1     -10.055  13.606  66.398  1.00  0.00     0.000 HD 
BRANCH   6   8
HETATM    8  C   UNL     1      -8.595  14.807  67.248  1.00  0.00    -0.212 C  
BRANCH   8   9
HETATM    9  C   UNL     1      -8.056  16.209  66.901  1.00  0.00    -0.240 C  
BRANCH   9  10
HETATM   10  N   UNL     1      -7.872  17.036  68.107  1.00  0.00    -0.189 NA 
HETATM   11  H   UNL     1      -7.275  16.577  68.796  1.00  0.00     0.000 HD 
BRANCH  10  12
HETATM   12  C   UNL     1      -7.363  18.367  67.738  1.00  0.00    -0.224 C  
BRANCH  12  13
HETATM   13  C   UNL     1      -7.748  19.428  68.786  1.00  0.00    -0.362 C  
HETATM   14  N   UNL     1      -6.581  19.961  69.497  1.00  0.00    -0.345 NA 
HETATM   15  H1  UNL     1      -6.836  20.664  70.191  1.00  0.00     0.000 HD 
HETATM   16  H2  UNL     1      -5.887  20.324  68.844  1.00  0.00     0.000 HD 
ENDBRANCH  12  13
ENDBRANCH  10  12
ENDBRANCH   9  10
ENDBRANCH   8   9
ENDBRANCH   6   8
ENDBRANCH   5   6
ENDBRANCH   3   5
TORSDOF 7
ENDMDL
MODEL      123
REMARK 921   NORMALIZED FREE ENERGY PREDICTED BY IDOCK:   -2.53 KCAL/MOL
REMARK 922        TOTAL FREE ENERGY PREDICTED BY IDOCK:   -4.06 KCAL/MOL
REMARK 923 INTER-LIGAND FREE ENERGY PREDICTED BY IDOCK:   -3.82 KCAL/MOL
REMARK 924 INTRA-LIGAND FREE ENERGY PREDICTED BY IDOCK:   -0.25 KCAL/MOL
REMARK 927      BINDING AFFINITY PREDICTED BY RF-SCORE:    0.00 PKD
ROOT
HETATM    1  N   UNL     1      -9.666   7.040  65.942  1.00  0.00    -0.343 NA 
HETATM    2  H2  UNL     1      -8.704   7.255  66.204  1.00  0.00     0.000 HD 
HETATM    3  C   UNL     1     -10.585   7.302  67.053  1.00  0.00    -0.344 C  
HETATM    4  H1  UNL     1      -9.744   6.087  65.587  1.00  0.00     0.000 HD 
ENDROOT
BRANCH   3   5
HETATM    5  C   UNL     1     -10.466   8.740  67.591  1.00  0.00    -0.244 C  
BRANCH   5   6
HETATM    6  N   UNL     1     -10.543   8.775  69.055  1.00  0.00    -0.326 NA 
HETATM    7  H   UNL     1      -9.840   8.172  69.481  1.00  0.00     0.000 HD 
BRANCH   6   8
HETATM    8  C   UNL     1     -10.451  10.152  69.562  1.00  0.00    -0.241 C  
BRANCH   8   9
HETATM    9  C   UNL     1     -11.788  10.893  69.366  1.00  0.00    -0.328 C  
BRANCH   9  10
HETATM   10  N   UNL     1     -12.886  10.237  70.098  1.00  0.00    -0.562 NA 
HETATM   11  H   UNL     1     -13.017   9.269  69.803  1.00  0.00     0.000 HD 
BRANCH  10  12
HETATM   12  C   UNL     1     -12.665  10.345  71.550  1.00  0.00    -0.459 C  
BRANCH  12  13
HETATM   13  C   UNL     1     -13.173   9.094  72.292  1.00  0.00    -0.461 C  
HETATM   14  N   UNL     1     -13.428   7.970  71.383  1.00  0.00    -0.507 NA 
HETATM   15  H1  UNL     1     -13.765   7.142  71.874  1.00  0.00     0.000 HD 
HETATM   16  H2  UNL     1     -12.602   7.756  70.824  1.00  0.00     0.000 HD 
ENDBRANCH  12  13
ENDBRANCH  10  12
ENDBRANCH   9  10
ENDBRANCH   8   9
ENDBRANCH   6   8
ENDBRANCH   5   6
ENDBRANCH   3   5
TORSDOF 7
ENDMDL
MODEL      124
REMARK 921   NORMALIZED FREE ENERGY PREDICTED BY IDOCK:   -2.52 KCAL/MOL
REMARK 922        TOTAL FREE ENERGY PREDICTED BY IDOCK:   -4.06 KCAL/MOL
REMARK 923 INTER-LIGAND FREE ENERGY PREDICTED BY IDOCK:   -3.95 KCAL/MOL
REMARK 924 INTRA-LIGAND FREE ENERGY PREDICTED BY IDOCK:   -0.11 KCAL/MOL
REMARK 927      BINDING AFFINITY PREDICTED BY RF-SCORE:    0.00 PKD
ROOT
HETATM    1  N   UNL     1     -11.381   4.286  64.954  1.00  0.00    -1.051 NA 
HETATM    2  H2  UNL     1     -11.584   5.138  64.431  1.00  0.00     0.000 HD 
HETATM    3  C   UNL     1     -10.017   4.311  65.492  1.00  0.00    -0.225 C  
HETATM    4  H1  UNL     1     -11.562   3.457  64.388  1.00  0.00     0.000 HD 
ENDROOT
BRANCH   3   5
HETATM    5  C   UNL     1      -9.743   5.563  66.345  1.00  0.00    -0.163 C  
BRANCH   5   6
HETATM    6  N   UNL     1     -10.989   6.230  66.738  1.00  0.00    -0.664 NA 
HETATM    7  H   UNL     1     -11.797   5.819  66.271  1.00  0.00     0.000 HD 
BRANCH   6   8
HETATM    8  C   UNL     1     -11.154   6.236  68.198  1.00  0.00    -0.266 C  
BRANCH   8   9
HETATM    9  C   UNL     1     -10.121   7.170  68.859  1.00  0.00    -0.177 C  
BRANCH   9  10
HETATM   10  N   UNL     1     -10.601   7.682  70.154  1.00  0.00    -0.231 NA 
HETATM   11  H   UNL     1      -9.960   7.454  70.916  1.00  0.00     0.000 HD 
BRANCH  10  12
HETATM   12  C   UNL     1     -10.855   9.130  70.066  1.00  0.00    -0.234 C  
BRANCH  12  13
HETATM   13  C   UNL     1     -11.712   9.625  71.247  1.00  0.00    -0.382 C  
HETATM   14  N   UNL     1     -13.101   9.892  70.856  1.00  0.00    -0.557 NA 
HETATM   15  H1  UNL     1     -13.669  10.220  71.638  1.00  0.00     0.000 HD 
HETATM   16  H2  UNL     1     -13.522   9.076  70.413  1.00  0.00     0.000 HD 
ENDBRANCH  12  13
ENDBRANCH  10  12
ENDBRANCH   9  10
ENDBRANCH   8   9
ENDBRANCH   6   8
ENDBRANCH   5   6
ENDBRANCH   3   5
TORSDOF 7
ENDMDL
MODEL      125
REMARK 921   NORMALIZED FREE ENERGY PREDICTED BY IDOCK:   -2.51 KCAL/MOL
REMARK 922        TOTAL FREE ENERGY PREDICTED BY IDOCK:   -4.05 KCAL/MOL
REMARK 923 INTER-LIGAND FREE ENERGY PREDICTED BY IDOCK:   -3.89 KCAL/MOL
REMARK 924 INTRA-LIGAND FREE ENERGY PREDICTED BY IDOCK:   -0.16 KCAL/MOL
REMARK 927      BINDING AFFINITY PREDICTED BY RF-SCORE:    0.00 PKD
ROOT
HETATM    1  N   UNL     1     -11.056   8.723  69.302  1.00  0.00    -0.432 NA 
HETATM    2  H2  UNL     1     -11.999   9.012  69.042  1.00  0.00     0.000 HD 
HETATM    3  C   UNL     1     -10.335   8.177  68.148  1.00  0.00    -0.201 C  
HETATM    4  H1  UNL     1     -11.074   8.078  70.092  1.00  0.00     0.000 HD 
ENDROOT
BRANCH   3   5
HETATM    5  C   UNL     1     -10.308   9.150  66.955  1.00  0.00    -0.263 C  
BRANCH   5   6
HETATM    6  N   UNL     1      -9.774   8.508  65.749  1.00  0.00    -0.448 NA 
HETATM    7  H   UNL     1     -10.485   7.952  65.275  1.00  0.00     0.000 HD 
BRANCH   6   8
HETATM    8  C   UNL     1      -9.168   9.494  64.843  1.00  0.00    -0.223 C  
BRANCH   8   9
HETATM    9  C   UNL     1     -10.126  10.679  64.611  1.00  0.00    -0.349 C  
BRANCH   9  10
HETATM   10  N   UNL     1      -9.424  11.972  64.701  1.00  0.00    -0.442 NA 
HETATM   11  H   UNL     1      -8.627  12.019  64.064  1.00  0.00     0.000 HD 
BRANCH  10  12
HETATM   12  C   UNL     1     -10.369  13.080  64.481  1.00  0.00    -0.364 C  
BRANCH  12  13
HETATM   13  C   UNL     1     -11.751  12.562  64.041  1.00  0.00    -0.423 C  
HETATM   14  N   UNL     1     -12.824  12.993  64.945  1.00  0.00    -0.747 NA 
HETATM   15  H1  UNL     1     -13.739  12.650  64.654  1.00  0.00     0.000 HD 
HETATM   16  H2  UNL     1     -12.828  14.007  65.053  1.00  0.00     0.000 HD 
ENDBRANCH  12  13
ENDBRANCH  10  12
ENDBRANCH   9  10
ENDBRANCH   8   9
ENDBRANCH   6   8
ENDBRANCH   5   6
ENDBRANCH   3   5
TORSDOF 7
ENDMDL
MODEL      126
REMARK 921   NORMALIZED FREE ENERGY PREDICTED BY IDOCK:   -2.51 KCAL/MOL
REMARK 922        TOTAL FREE ENERGY PREDICTED BY IDOCK:   -4.05 KCAL/MOL
REMARK 923 INTER-LIGAND FREE ENERGY PREDICTED BY IDOCK:   -3.60 KCAL/MOL
REMARK 924 INTRA-LIGAND FREE ENERGY PREDICTED BY IDOCK:   -0.45 KCAL/MOL
REMARK 927      BINDING AFFINITY PREDICTED BY RF-SCORE:    0.00 PKD
ROOT
HETATM    1  N   UNL     1      -9.997  10.092  67.641  1.00  0.00    -0.169 NA 
HETATM    2  H2  UNL     1     -10.480   9.446  68.266  1.00  0.00     0.000 HD 
HETATM    3  C   UNL     1     -10.919  11.102  67.113  1.00  0.00    -0.291 C  
HETATM    4  H1  UNL     1      -9.506   9.587  66.902  1.00  0.00     0.000 HD 
ENDROOT
BRANCH   3   5
HETATM    5  C   UNL     1     -11.662  11.862  68.226  1.00  0.00    -0.321 C  
BRANCH   5   6
HETATM    6  N   UNL     1     -12.477  10.957  69.044  1.00  0.00    -0.694 NA 
HETATM    7  H   UNL     1     -12.352   9.984  68.764  1.00  0.00     0.000 HD 
BRANCH   6   8
HETATM    8  C   UNL     1     -12.210  11.145  70.477  1.00  0.00    -0.384 C  
BRANCH   8   9
HETATM    9  C   UNL     1     -11.828   9.807  71.139  1.00  0.00    -0.382 C  
BRANCH   9  10
HETATM   10  N   UNL     1     -11.586   8.753  70.137  1.00  0.00    -0.462 NA 
HETATM   11  H   UNL     1     -11.121   9.118  69.305  1.00  0.00     0.000 HD 
BRANCH  10  12
HETATM   12  C   UNL     1     -10.835   7.640  70.742  1.00  0.00    -0.239 C  
BRANCH  12  13
HETATM   13  C   UNL     1     -11.244   6.287  70.130  1.00  0.00    -0.403 C  
HETATM   14  N   UNL     1     -10.320   5.206  70.493  1.00  0.00    -0.259 NA 
HETATM   15  H1  UNL     1     -10.591   4.310  70.088  1.00  0.00     0.000 HD 
HETATM   16  H2  UNL     1     -10.217   5.136  71.505  1.00  0.00     0.000 HD 
ENDBRANCH  12  13
ENDBRANCH  10  12
ENDBRANCH   9  10
ENDBRANCH   8   9
ENDBRANCH   6   8
ENDBRANCH   5   6
ENDBRANCH   3   5
TORSDOF 7
ENDMDL
MODEL      127
REMARK 921   NORMALIZED FREE ENERGY PREDICTED BY IDOCK:   -2.51 KCAL/MOL
REMARK 922        TOTAL FREE ENERGY PREDICTED BY IDOCK:   -4.04 KCAL/MOL
REMARK 923 INTER-LIGAND FREE ENERGY PREDICTED BY IDOCK:   -3.63 KCAL/MOL
REMARK 924 INTRA-LIGAND FREE ENERGY PREDICTED BY IDOCK:   -0.41 KCAL/MOL
REMARK 927      BINDING AFFINITY PREDICTED BY RF-SCORE:    0.00 PKD
ROOT
HETATM    1  N   UNL     1      -8.141  13.008  68.688  1.00  0.00    -0.319 NA 
HETATM    2  H2  UNL     1      -8.770  12.390  69.202  1.00  0.00     0.000 HD 
HETATM    3  C   UNL     1      -8.013  12.585  67.290  1.00  0.00    -0.173 C  
HETATM    4  H1  UNL     1      -7.239  13.085  69.157  1.00  0.00     0.000 HD 
ENDROOT
BRANCH   3   5
HETATM    5  C   UNL     1      -9.375  12.468  66.582  1.00  0.00    -0.236 C  
BRANCH   5   6
HETATM    6  N   UNL     1      -9.756  13.729  65.935  1.00  0.00    -0.459 NA 
HETATM    7  H   UNL     1      -9.715  13.656  64.919  1.00  0.00     0.000 HD 
BRANCH   6   8
HETATM    8  C   UNL     1     -11.076  14.185  66.391  1.00  0.00    -0.320 C  
BRANCH   8   9
HETATM    9  C   UNL     1     -10.932  15.297  67.449  1.00  0.00    -0.321 C  
BRANCH   9  10
HETATM   10  N   UNL     1     -10.915  14.749  68.817  1.00  0.00    -0.248 NA 
HETATM   11  H   UNL     1      -9.989  14.411  69.081  1.00  0.00     0.000 HD 
BRANCH  10  12
HETATM   12  C   UNL     1     -11.429  15.746  69.770  1.00  0.00    -0.349 C  
BRANCH  12  13
HETATM   13  C   UNL     1     -12.364  15.101  70.811  1.00  0.00    -0.360 C  
HETATM   14  N   UNL     1     -13.766  15.485  70.619  1.00  0.00    -0.846 NA 
HETATM   15  H1  UNL     1     -14.385  15.058  71.308  1.00  0.00     0.000 HD 
HETATM   16  H2  UNL     1     -14.076  15.280  69.669  1.00  0.00     0.000 HD 
ENDBRANCH  12  13
ENDBRANCH  10  12
ENDBRANCH   9  10
ENDBRANCH   8   9
ENDBRANCH   6   8
ENDBRANCH   5   6
ENDBRANCH   3   5
TORSDOF 7
ENDMDL
MODEL      128
REMARK 921   NORMALIZED FREE ENERGY PREDICTED BY IDOCK:   -2.51 KCAL/MOL
REMARK 922        TOTAL FREE ENERGY PREDICTED BY IDOCK:   -4.04 KCAL/MOL
REMARK 923 INTER-LIGAND FREE ENERGY PREDICTED BY IDOCK:   -3.90 KCAL/MOL
REMARK 924 INTRA-LIGAND FREE ENERGY PREDICTED BY IDOCK:   -0.14 KCAL/MOL
REMARK 927      BINDING AFFINITY PREDICTED BY RF-SCORE:    0.00 PKD
ROOT
HETATM    1  N   UNL     1     -10.855   5.794  69.959  1.00  0.00    -0.335 NA 
HETATM    2  H2  UNL     1      -9.898   5.723  69.612  1.00  0.00     0.000 HD 
HETATM    3  C   UNL     1     -11.015   6.966  70.825  1.00  0.00    -0.259 C  
HETATM    4  H1  UNL     1     -11.145   4.929  70.415  1.00  0.00     0.000 HD 
ENDROOT
BRANCH   3   5
HETATM    5  C   UNL     1     -10.576   8.272  70.138  1.00  0.00    -0.233 C  
BRANCH   5   6
HETATM    6  N   UNL     1     -10.669   9.417  71.050  1.00  0.00    -0.311 NA 
HETATM    7  H   UNL     1      -9.962  10.121  70.840  1.00  0.00     0.000 HD 
BRANCH   6   8
HETATM    8  C   UNL     1     -12.021   9.994  71.047  1.00  0.00    -0.376 C  
BRANCH   8   9
HETATM    9  C   UNL     1     -12.065  11.272  70.188  1.00  0.00    -0.366 C  
BRANCH   9  10
HETATM   10  N   UNL     1     -12.396  10.973  68.783  1.00  0.00    -0.731 NA 
HETATM   11  H   UNL     1     -13.329  11.302  68.533  1.00  0.00     0.000 HD 
BRANCH  10  12
HETATM   12  C   UNL     1     -11.362  11.522  67.890  1.00  0.00    -0.303 C  
BRANCH  12  13
HETATM   13  C   UNL     1     -11.872  12.762  67.132  1.00  0.00    -0.350 C  
HETATM   14  N   UNL     1     -12.256  12.455  65.750  1.00  0.00    -0.638 NA 
HETATM   15  H1  UNL     1     -12.594  13.276  65.248  1.00  0.00     0.000 HD 
HETATM   16  H2  UNL     1     -12.938  11.698  65.717  1.00  0.00     0.000 HD 
ENDBRANCH  12  13
ENDBRANCH  10  12
ENDBRANCH   9  10
ENDBRANCH   8   9
ENDBRANCH   6   8
ENDBRANCH   5   6
ENDBRANCH   3   5
TORSDOF 7
ENDMDL
MODEL      129
REMARK 921   NORMALIZED FREE ENERGY PREDICTED BY IDOCK:   -2.51 KCAL/MOL
REMARK 922        TOTAL FREE ENERGY PREDICTED BY IDOCK:   -4.04 KCAL/MOL
REMARK 923 INTER-LIGAND FREE ENERGY PREDICTED BY IDOCK:   -3.82 KCAL/MOL
REMARK 924 INTRA-LIGAND FREE ENERGY PREDICTED BY IDOCK:   -0.22 KCAL/MOL
REMARK 927      BINDING AFFINITY PREDICTED BY RF-SCORE:    0.00 PKD
ROOT
HETATM    1  N   UNL     1      -8.016   4.186  74.116  1.00  0.00    -0.090 NA 
HETATM    2  H2  UNL     1      -8.659   3.525  73.679  1.00  0.00     0.000 HD 
HETATM    3  C   UNL     1      -8.422   5.569  73.852  1.00  0.00    -0.113 C  
HETATM    4  H1  UNL     1      -7.053   4.001  73.835  1.00  0.00     0.000 HD 
ENDROOT
BRANCH   3   5
HETATM    5  C   UNL     1      -9.875   5.849  74.276  1.00  0.00    -0.228 C  
BRANCH   5   6
HETATM    6  N   UNL     1     -10.459   6.950  73.502  1.00  0.00    -0.322 NA 
HETATM    7  H   UNL     1      -9.741   7.583  73.151  1.00  0.00     0.000 HD 
BRANCH   6   8
HETATM    8  C   UNL     1     -11.312   6.445  72.416  1.00  0.00    -0.287 C  
BRANCH   8   9
HETATM    9  C   UNL     1     -11.383   7.465  71.263  1.00  0.00    -0.265 C  
BRANCH   9  10
HETATM   10  N   UNL     1     -12.652   7.360  70.520  1.00  0.00    -0.514 NA 
HETATM   11  H   UNL     1     -12.624   6.615  69.822  1.00  0.00     0.000 HD 
BRANCH  10  12
HETATM   12  C   UNL     1     -13.776   7.193  71.456  1.00  0.00    -0.309 C  
BRANCH  12  13
HETATM   13  C   UNL     1     -14.399   8.550  71.835  1.00  0.00    -0.448 C  
HETATM   14  N   UNL     1     -14.149   8.910  73.235  1.00  0.00    -1.248 NA 
HETATM   15  H1  UNL     1     -14.562   9.808  73.486  1.00  0.00     0.000 HD 
HETATM   16  H2  UNL     1     -13.152   8.891  73.447  1.00  0.00     0.000 HD 
ENDBRANCH  12  13
ENDBRANCH  10  12
ENDBRANCH   9  10
ENDBRANCH   8   9
ENDBRANCH   6   8
ENDBRANCH   5   6
ENDBRANCH   3   5
TORSDOF 7
ENDMDL
MODEL      130
REMARK 921   NORMALIZED FREE ENERGY PREDICTED BY IDOCK:   -2.50 KCAL/MOL
REMARK 922        TOTAL FREE ENERGY PREDICTED BY IDOCK:   -4.03 KCAL/MOL
REMARK 923 INTER-LIGAND FREE ENERGY PREDICTED BY IDOCK:   -3.90 KCAL/MOL
REMARK 924 INTRA-LIGAND FREE ENERGY PREDICTED BY IDOCK:   -0.13 KCAL/MOL
REMARK 927      BINDING AFFINITY PREDICTED BY RF-SCORE:    0.00 PKD
ROOT
HETATM    1  N   UNL     1      -7.622  12.968  66.980  1.00  0.00    -0.388 NA 
HETATM    2  H2  UNL     1      -6.929  13.070  67.722  1.00  0.00     0.000 HD 
HETATM    3  C   UNL     1      -8.364  11.712  67.121  1.00  0.00    -0.164 C  
HETATM    4  H1  UNL     1      -7.191  13.067  66.061  1.00  0.00     0.000 HD 
ENDROOT
BRANCH   3   5
HETATM    5  C   UNL     1      -9.014  11.564  68.509  1.00  0.00    -0.146 C  
BRANCH   5   6
HETATM    6  N   UNL     1     -10.411  11.127  68.405  1.00  0.00    -0.178 NA 
HETATM    7  H   UNL     1     -10.831  10.994  69.324  1.00  0.00     0.000 HD 
BRANCH   6   8
HETATM    8  C   UNL     1     -11.199  12.053  67.580  1.00  0.00    -0.282 C  
BRANCH   8   9
HETATM    9  C   UNL     1     -11.381  13.403  68.301  1.00  0.00    -0.295 C  
BRANCH   9  10
HETATM   10  N   UNL     1     -12.187  14.343  67.502  1.00  0.00    -0.619 NA 
HETATM   11  H   UNL     1     -12.238  15.266  67.936  1.00  0.00     0.000 HD 
BRANCH  10  12
HETATM   12  C   UNL     1     -11.671  14.411  66.125  1.00  0.00    -0.378 C  
BRANCH  12  13
HETATM   13  C   UNL     1     -12.751  14.022  65.099  1.00  0.00    -0.389 C  
HETATM   14  N   UNL     1     -12.439  14.504  63.748  1.00  0.00    -1.065 NA 
HETATM   15  H1  UNL     1     -13.155  14.246  63.068  1.00  0.00     0.000 HD 
HETATM   16  H2  UNL     1     -11.517  14.187  63.449  1.00  0.00     0.000 HD 
ENDBRANCH  12  13
ENDBRANCH  10  12
ENDBRANCH   9  10
ENDBRANCH   8   9
ENDBRANCH   6   8
ENDBRANCH   5   6
ENDBRANCH   3   5
TORSDOF 7
ENDMDL
MODEL      131
REMARK 921   NORMALIZED FREE ENERGY PREDICTED BY IDOCK:   -2.50 KCAL/MOL
REMARK 922        TOTAL FREE ENERGY PREDICTED BY IDOCK:   -4.02 KCAL/MOL
REMARK 923 INTER-LIGAND FREE ENERGY PREDICTED BY IDOCK:   -3.81 KCAL/MOL
REMARK 924 INTRA-LIGAND FREE ENERGY PREDICTED BY IDOCK:   -0.22 KCAL/MOL
REMARK 927      BINDING AFFINITY PREDICTED BY RF-SCORE:    0.00 PKD
ROOT
HETATM    1  N   UNL     1      -8.797   9.156  68.507  1.00  0.00    -0.129 NA 
HETATM    2  H2  UNL     1      -8.671   9.209  67.496  1.00  0.00     0.000 HD 
HETATM    3  C   UNL     1      -9.778  10.143  68.968  1.00  0.00    -0.206 C  
HETATM    4  H1  UNL     1      -7.903   9.238  68.992  1.00  0.00     0.000 HD 
ENDROOT
BRANCH   3   5
HETATM    5  C   UNL     1     -11.127  10.021  68.236  1.00  0.00    -0.190 C  
BRANCH   5   6
HETATM    6  N   UNL     1     -12.056  11.081  68.640  1.00  0.00    -0.748 NA 
HETATM    7  H   UNL     1     -12.048  11.222  69.649  1.00  0.00     0.000 HD 
BRANCH   6   8
HETATM    8  C   UNL     1     -11.785  12.332  67.918  1.00  0.00    -0.347 C  
BRANCH   8   9
HETATM    9  C   UNL     1     -11.367  13.446  68.899  1.00  0.00    -0.287 C  
BRANCH   9  10
HETATM   10  N   UNL     1     -11.542  13.030  70.302  1.00  0.00    -0.529 NA 
HETATM   11  H   UNL     1     -10.656  13.010  70.807  1.00  0.00     0.000 HD 
BRANCH  10  12
HETATM   12  C   UNL     1     -12.535  13.891  70.967  1.00  0.00    -0.377 C  
BRANCH  12  13
HETATM   13  C   UNL     1     -11.856  15.017  71.768  1.00  0.00    -0.388 C  
HETATM   14  N   UNL     1     -11.980  16.324  71.112  1.00  0.00    -0.607 NA 
HETATM   15  H1  UNL     1     -11.531  17.070  71.643  1.00  0.00     0.000 HD 
HETATM   16  H2  UNL     1     -12.957  16.547  70.920  1.00  0.00     0.000 HD 
ENDBRANCH  12  13
ENDBRANCH  10  12
ENDBRANCH   9  10
ENDBRANCH   8   9
ENDBRANCH   6   8
ENDBRANCH   5   6
ENDBRANCH   3   5
TORSDOF 7
ENDMDL
MODEL      132
REMARK 921   NORMALIZED FREE ENERGY PREDICTED BY IDOCK:   -2.48 KCAL/MOL
REMARK 922        TOTAL FREE ENERGY PREDICTED BY IDOCK:   -4.00 KCAL/MOL
REMARK 923 INTER-LIGAND FREE ENERGY PREDICTED BY IDOCK:   -3.80 KCAL/MOL
REMARK 924 INTRA-LIGAND FREE ENERGY PREDICTED BY IDOCK:   -0.20 KCAL/MOL
REMARK 927      BINDING AFFINITY PREDICTED BY RF-SCORE:    0.00 PKD
ROOT
HETATM    1  N   UNL     1     -10.789  11.799  63.104  1.00  0.00    -0.681 NA 
HETATM    2  H2  UNL     1     -10.426  11.297  63.914  1.00  0.00     0.000 HD 
HETATM    3  C   UNL     1     -12.089  12.408  63.400  1.00  0.00    -0.524 C  
HETATM    4  H1  UNL     1     -10.820  11.195  62.282  1.00  0.00     0.000 HD 
ENDROOT
BRANCH   3   5
HETATM    5  C   UNL     1     -12.043  13.319  64.641  1.00  0.00    -0.408 C  
BRANCH   5   6
HETATM    6  N   UNL     1     -12.379  12.580  65.863  1.00  0.00    -0.603 NA 
HETATM    7  H   UNL     1     -12.763  11.660  65.651  1.00  0.00     0.000 HD 
BRANCH   6   8
HETATM    8  C   UNL     1     -11.221  12.487  66.764  1.00  0.00    -0.296 C  
BRANCH   8   9
HETATM    9  C   UNL     1     -11.205  11.127  67.489  1.00  0.00    -0.301 C  
BRANCH   9  10
HETATM   10  N   UNL     1      -9.931  10.415  67.283  1.00  0.00    -0.180 NA 
HETATM   11  H   UNL     1      -9.715   9.787  68.059  1.00  0.00     0.000 HD 
BRANCH  10  12
HETATM   12  C   UNL     1      -9.947   9.709  65.992  1.00  0.00    -0.274 C  
BRANCH  12  13
HETATM   13  C   UNL     1      -8.605   9.001  65.720  1.00  0.00    -0.160 C  
HETATM   14  N   UNL     1      -8.771   7.765  64.948  1.00  0.00    -0.374 NA 
HETATM   15  H1  UNL     1      -7.883   7.296  64.768  1.00  0.00     0.000 HD 
HETATM   16  H2  UNL     1      -9.278   7.939  64.080  1.00  0.00     0.000 HD 
ENDBRANCH  12  13
ENDBRANCH  10  12
ENDBRANCH   9  10
ENDBRANCH   8   9
ENDBRANCH   6   8
ENDBRANCH   5   6
ENDBRANCH   3   5
TORSDOF 7
ENDMDL
MODEL      133
REMARK 921   NORMALIZED FREE ENERGY PREDICTED BY IDOCK:   -2.47 KCAL/MOL
REMARK 922        TOTAL FREE ENERGY PREDICTED BY IDOCK:   -3.99 KCAL/MOL
REMARK 923 INTER-LIGAND FREE ENERGY PREDICTED BY IDOCK:   -3.77 KCAL/MOL
REMARK 924 INTRA-LIGAND FREE ENERGY PREDICTED BY IDOCK:   -0.21 KCAL/MOL
REMARK 927      BINDING AFFINITY PREDICTED BY RF-SCORE:    0.00 PKD
ROOT
HETATM    1  N   UNL     1      -6.001  11.200  65.477  1.00  0.00    -0.418 NA 
HETATM    2  H2  UNL     1      -6.561  11.130  64.627  1.00  0.00     0.000 HD 
HETATM    3  C   UNL     1      -6.854  11.298  66.665  1.00  0.00    -0.130 C  
HETATM    4  H1  UNL     1      -5.332  11.968  65.411  1.00  0.00     0.000 HD 
ENDROOT
BRANCH   3   5
HETATM    5  C   UNL     1      -7.864  10.140  66.762  1.00  0.00    -0.108 C  
BRANCH   5   6
HETATM    6  N   UNL     1      -9.215  10.629  67.056  1.00  0.00    -0.151 NA 
HETATM    7  H   UNL     1      -9.260  11.082  67.968  1.00  0.00     0.000 HD 
BRANCH   6   8
HETATM    8  C   UNL     1      -9.706  11.513  65.990  1.00  0.00    -0.226 C  
BRANCH   8   9
HETATM    9  C   UNL     1     -10.657  12.582  66.565  1.00  0.00    -0.242 C  
BRANCH   9  10
HETATM   10  N   UNL     1     -12.041  12.389  66.094  1.00  0.00    -0.641 NA 
HETATM   11  H   UNL     1     -12.691  12.256  66.869  1.00  0.00     0.000 HD 
BRANCH  10  12
HETATM   12  C   UNL     1     -12.442  13.507  65.225  1.00  0.00    -0.482 C  
BRANCH  12  13
HETATM   13  C   UNL     1     -12.118  13.217  63.748  1.00  0.00    -0.482 C  
HETATM   14  N   UNL     1     -12.663  11.932  63.297  1.00  0.00    -0.893 NA 
HETATM   15  H1  UNL     1     -12.448  11.739  62.319  1.00  0.00     0.000 HD 
HETATM   16  H2  UNL     1     -13.666  11.877  63.471  1.00  0.00     0.000 HD 
ENDBRANCH  12  13
ENDBRANCH  10  12
ENDBRANCH   9  10
ENDBRANCH   8   9
ENDBRANCH   6   8
ENDBRANCH   5   6
ENDBRANCH   3   5
TORSDOF 7
ENDMDL
MODEL      134
REMARK 921   NORMALIZED FREE ENERGY PREDICTED BY IDOCK:   -2.45 KCAL/MOL
REMARK 922        TOTAL FREE ENERGY PREDICTED BY IDOCK:   -3.96 KCAL/MOL
REMARK 923 INTER-LIGAND FREE ENERGY PREDICTED BY IDOCK:   -3.82 KCAL/MOL
REMARK 924 INTRA-LIGAND FREE ENERGY PREDICTED BY IDOCK:   -0.15 KCAL/MOL
REMARK 927      BINDING AFFINITY PREDICTED BY RF-SCORE:    0.00 PKD
ROOT
HETATM    1  N   UNL     1     -12.042   1.498  62.357  1.00  0.00    -0.341 NA 
HETATM    2  H2  UNL     1     -12.386   1.947  61.508  1.00  0.00     0.000 HD 
HETATM    3  C   UNL     1     -10.716   2.004  62.722  1.00  0.00    -0.165 C  
HETATM    4  H1  UNL     1     -12.061   0.482  62.267  1.00  0.00     0.000 HD 
ENDROOT
BRANCH   3   5
HETATM    5  C   UNL     1     -10.687   3.538  62.857  1.00  0.00    -0.190 C  
BRANCH   5   6
HETATM    6  N   UNL     1     -11.022   3.964  64.220  1.00  0.00    -0.654 NA 
HETATM    7  H   UNL     1     -11.793   3.418  64.604  1.00  0.00     0.000 HD 
BRANCH   6   8
HETATM    8  C   UNL     1      -9.844   3.924  65.097  1.00  0.00    -0.184 C  
BRANCH   8   9
HETATM    9  C   UNL     1     -10.067   4.796  66.348  1.00  0.00    -0.262 C  
BRANCH   9  10
HETATM   10  N   UNL     1     -11.155   5.768  66.147  1.00  0.00    -0.710 NA 
HETATM   11  H   UNL     1     -12.064   5.312  66.063  1.00  0.00     0.000 HD 
BRANCH  10  12
HETATM   12  C   UNL     1     -11.142   6.775  67.221  1.00  0.00    -0.324 C  
BRANCH  12  13
HETATM   13  C   UNL     1     -10.842   6.135  68.589  1.00  0.00    -0.332 C  
HETATM   14  N   UNL     1     -11.717   6.646  69.650  1.00  0.00    -0.657 NA 
HETATM   15  H1  UNL     1     -11.518   6.222  70.556  1.00  0.00     0.000 HD 
HETATM   16  H2  UNL     1     -12.700   6.536  69.401  1.00  0.00     0.000 HD 
ENDBRANCH  12  13
ENDBRANCH  10  12
ENDBRANCH   9  10
ENDBRANCH   8   9
ENDBRANCH   6   8
ENDBRANCH   5   6
ENDBRANCH   3   5
TORSDOF 7
ENDMDL
MODEL      135
REMARK 921   NORMALIZED FREE ENERGY PREDICTED BY IDOCK:   -2.43 KCAL/MOL
REMARK 922        TOTAL FREE ENERGY PREDICTED BY IDOCK:   -3.93 KCAL/MOL
REMARK 923 INTER-LIGAND FREE ENERGY PREDICTED BY IDOCK:   -3.76 KCAL/MOL
REMARK 924 INTRA-LIGAND FREE ENERGY PREDICTED BY IDOCK:   -0.17 KCAL/MOL
REMARK 927      BINDING AFFINITY PREDICTED BY RF-SCORE:    0.00 PKD
ROOT
HETATM    1  N   UNL     1     -11.259  12.371  68.399  1.00  0.00    -0.251 NA 
HETATM    2  H2  UNL     1     -11.718  12.611  69.278  1.00  0.00     0.000 HD 
HETATM    3  C   UNL     1     -11.800  13.162  67.290  1.00  0.00    -0.367 C  
HETATM    4  H1  UNL     1     -11.307  11.368  68.223  1.00  0.00     0.000 HD 
ENDROOT
BRANCH   3   5
HETATM    5  C   UNL     1     -11.730  14.677  67.555  1.00  0.00    -0.379 C  
BRANCH   5   6
HETATM    6  N   UNL     1     -11.434  14.963  68.964  1.00  0.00    -0.284 NA 
HETATM    7  H   UNL     1     -10.718  14.337  69.330  1.00  0.00     0.000 HD 
BRANCH   6   8
HETATM    8  C   UNL     1     -11.068  16.373  69.156  1.00  0.00    -0.303 C  
BRANCH   8   9
HETATM    9  C   UNL     1     -10.425  16.947  67.879  1.00  0.00    -0.344 C  
BRANCH   9  10
HETATM   10  N   UNL     1     -10.781  18.363  67.678  1.00  0.00    -0.409 NA 
HETATM   11  H   UNL     1     -11.737  18.561  67.977  1.00  0.00     0.000 HD 
BRANCH  10  12
HETATM   12  C   UNL     1      -9.803  19.233  68.351  1.00  0.00    -0.414 C  
BRANCH  12  13
HETATM   13  C   UNL     1      -8.994  20.063  67.336  1.00  0.00    -0.347 C  
HETATM   14  N   UNL     1      -9.781  20.414  66.148  1.00  0.00    -0.659 NA 
HETATM   15  H1  UNL     1      -9.246  20.963  65.476  1.00  0.00     0.000 HD 
HETATM   16  H2  UNL     1     -10.645  20.890  66.407  1.00  0.00     0.000 HD 
ENDBRANCH  12  13
ENDBRANCH  10  12
ENDBRANCH   9  10
ENDBRANCH   8   9
ENDBRANCH   6   8
ENDBRANCH   5   6
ENDBRANCH   3   5
TORSDOF 7
ENDMDL
MODEL      136
REMARK 921   NORMALIZED FREE ENERGY PREDICTED BY IDOCK:   -2.42 KCAL/MOL
REMARK 922        TOTAL FREE ENERGY PREDICTED BY IDOCK:   -3.92 KCAL/MOL
REMARK 923 INTER-LIGAND FREE ENERGY PREDICTED BY IDOCK:   -3.39 KCAL/MOL
REMARK 924 INTRA-LIGAND FREE ENERGY PREDICTED BY IDOCK:   -0.53 KCAL/MOL
REMARK 927      BINDING AFFINITY PREDICTED BY RF-SCORE:    0.00 PKD
ROOT
HETATM    1  N   UNL     1      -8.681  11.326  67.823  1.00  0.00    -0.131 NA 
HETATM    2  H2  UNL     1      -8.242  10.860  68.618  1.00  0.00     0.000 HD 
HETATM    3  C   UNL     1      -9.589  10.418  67.115  1.00  0.00    -0.164 C  
HETATM    4  H1  UNL     1      -7.979  11.735  67.206  1.00  0.00     0.000 HD 
ENDROOT
BRANCH   3   5
HETATM    5  C   UNL     1     -10.647   9.799  68.046  1.00  0.00    -0.243 C  
BRANCH   5   6
HETATM    6  N   UNL     1     -11.791  10.699  68.235  1.00  0.00    -0.786 NA 
HETATM    7  H   UNL     1     -12.676  10.217  68.079  1.00  0.00     0.000 HD 
BRANCH   6   8
HETATM    8  C   UNL     1     -11.752  11.342  69.555  1.00  0.00    -0.345 C  
BRANCH   8   9
HETATM    9  C   UNL     1     -11.646  12.873  69.412  1.00  0.00    -0.302 C  
BRANCH   9  10
HETATM   10  N   UNL     1     -11.848  13.304  68.017  1.00  0.00    -0.357 NA 
HETATM   11  H   UNL     1     -12.800  13.637  67.856  1.00  0.00     0.000 HD 
BRANCH  10  12
HETATM   12  C   UNL     1     -10.842  14.313  67.646  1.00  0.00    -0.268 C  
BRANCH  12  13
HETATM   13  C   UNL     1     -10.697  14.428  66.117  1.00  0.00    -0.304 C  
HETATM   14  N   UNL     1      -9.680  13.515  65.582  1.00  0.00    -0.488 NA 
HETATM   15  H1  UNL     1      -9.584  13.591  64.570  1.00  0.00     0.000 HD 
HETATM   16  H2  UNL     1      -9.867  12.553  65.862  1.00  0.00     0.000 HD 
ENDBRANCH  12  13
ENDBRANCH  10  12
ENDBRANCH   9  10
ENDBRANCH   8   9
ENDBRANCH   6   8
ENDBRANCH   5   6
ENDBRANCH   3   5
TORSDOF 7
ENDMDL
MODEL      137
REMARK 921   NORMALIZED FREE ENERGY PREDICTED BY IDOCK:   -2.42 KCAL/MOL
REMARK 922        TOTAL FREE ENERGY PREDICTED BY IDOCK:   -3.92 KCAL/MOL
REMARK 923 INTER-LIGAND FREE ENERGY PREDICTED BY IDOCK:   -3.73 KCAL/MOL
REMARK 924 INTRA-LIGAND FREE ENERGY PREDICTED BY IDOCK:   -0.18 KCAL/MOL
REMARK 927      BINDING AFFINITY PREDICTED BY RF-SCORE:    0.00 PKD
ROOT
HETATM    1  N   UNL     1     -14.248   8.845  73.321  1.00  0.00    -1.237 NA 
HETATM    2  H2  UNL     1     -14.005   9.639  73.914  1.00  0.00     0.000 HD 
HETATM    3  C   UNL     1     -13.637   8.970  71.995  1.00  0.00    -0.445 C  
HETATM    4  H1  UNL     1     -15.259   8.719  73.275  1.00  0.00     0.000 HD 
ENDROOT
BRANCH   3   5
HETATM    5  C   UNL     1     -12.111   9.161  72.065  1.00  0.00    -0.361 C  
BRANCH   5   6
HETATM    6  N   UNL     1     -11.443   7.970  72.601  1.00  0.00    -0.405 NA 
HETATM    7  H   UNL     1     -11.728   7.782  73.562  1.00  0.00     0.000 HD 
BRANCH   6   8
HETATM    8  C   UNL     1     -11.660   6.802  71.736  1.00  0.00    -0.297 C  
BRANCH   8   9
HETATM    9  C   UNL     1     -11.399   5.495  72.512  1.00  0.00    -0.265 C  
BRANCH   9  10
HETATM   10  N   UNL     1     -10.108   4.889  72.138  1.00  0.00    -0.186 NA 
HETATM   11  H   UNL     1      -9.318   5.465  72.430  1.00  0.00     0.000 HD 
BRANCH  10  12
HETATM   12  C   UNL     1     -10.017   3.519  72.671  1.00  0.00    -0.160 C  
BRANCH  12  13
HETATM   13  C   UNL     1     -11.052   3.279  73.787  1.00  0.00    -0.197 C  
HETATM   14  N   UNL     1     -11.825   2.049  73.578  1.00  0.00    -0.180 NA 
HETATM   15  H1  UNL     1     -12.510   1.890  74.316  1.00  0.00     0.000 HD 
HETATM   16  H2  UNL     1     -11.210   1.243  73.467  1.00  0.00     0.000 HD 
ENDBRANCH  12  13
ENDBRANCH  10  12
ENDBRANCH   9  10
ENDBRANCH   8   9
ENDBRANCH   6   8
ENDBRANCH   5   6
ENDBRANCH   3   5
TORSDOF 7
ENDMDL
MODEL      138
REMARK 921   NORMALIZED FREE ENERGY PREDICTED BY IDOCK:   -2.42 KCAL/MOL
REMARK 922        TOTAL FREE ENERGY PREDICTED BY IDOCK:   -3.91 KCAL/MOL
REMARK 923 INTER-LIGAND FREE ENERGY PREDICTED BY IDOCK:   -3.18 KCAL/MOL
REMARK 924 INTRA-LIGAND FREE ENERGY PREDICTED BY IDOCK:   -0.73 KCAL/MOL
REMARK 927      BINDING AFFINITY PREDICTED BY RF-SCORE:    0.00 PKD
ROOT
HETATM    1  N   UNL     1     -11.296   9.852  69.270  1.00  0.00    -0.432 NA 
HETATM    2  H2  UNL     1     -11.864  10.193  68.494  1.00  0.00     0.000 HD 
HETATM    3  C   UNL     1     -11.628  10.552  70.514  1.00  0.00    -0.350 C  
HETATM    4  H1  UNL     1     -10.302   9.902  69.046  1.00  0.00     0.000 HD 
ENDROOT
BRANCH   3   5
HETATM    5  C   UNL     1     -13.128  10.478  70.852  1.00  0.00    -0.306 C  
BRANCH   5   6
HETATM    6  N   UNL     1     -13.588   9.088  70.951  1.00  0.00    -0.537 NA 
HETATM    7  H   UNL     1     -13.476   8.592  70.068  1.00  0.00     0.000 HD 
BRANCH   6   8
HETATM    8  C   UNL     1     -12.921   8.383  72.055  1.00  0.00    -0.358 C  
BRANCH   8   9
HETATM    9  C   UNL     1     -12.534   6.953  71.631  1.00  0.00    -0.375 C  
BRANCH   9  10
HETATM   10  N   UNL     1     -11.398   6.951  70.693  1.00  0.00    -0.301 NA 
HETATM   11  H   UNL     1     -11.483   7.686  69.990  1.00  0.00     0.000 HD 
BRANCH  10  12
HETATM   12  C   UNL     1     -10.128   7.043  71.433  1.00  0.00    -0.189 C  
BRANCH  12  13
HETATM   13  C   UNL     1      -8.968   7.465  70.511  1.00  0.00    -0.156 C  
HETATM   14  N   UNL     1      -8.568   8.862  70.718  1.00  0.00    -0.180 NA 
HETATM   15  H1  UNL     1      -7.800   9.141  70.107  1.00  0.00     0.000 HD 
HETATM   16  H2  UNL     1      -8.343   9.038  71.697  1.00  0.00     0.000 HD 
ENDBRANCH  12  13
ENDBRANCH  10  12
ENDBRANCH   9  10
ENDBRANCH   8   9
ENDBRANCH   6   8
ENDBRANCH   5   6
ENDBRANCH   3   5
TORSDOF 7
ENDMDL
MODEL      139
REMARK 921   NORMALIZED FREE ENERGY PREDICTED BY IDOCK:   -2.42 KCAL/MOL
REMARK 922        TOTAL FREE ENERGY PREDICTED BY IDOCK:   -3.91 KCAL/MOL
REMARK 923 INTER-LIGAND FREE ENERGY PREDICTED BY IDOCK:   -3.43 KCAL/MOL
REMARK 924 INTRA-LIGAND FREE ENERGY PREDICTED BY IDOCK:   -0.48 KCAL/MOL
REMARK 927      BINDING AFFINITY PREDICTED BY RF-SCORE:    0.00 PKD
ROOT
HETATM    1  N   UNL     1     -11.061  15.636  70.607  1.00  0.00    -0.338 NA 
HETATM    2  H2  UNL     1     -11.321  15.786  69.632  1.00  0.00     0.000 HD 
HETATM    3  C   UNL     1     -12.054  14.806  71.296  1.00  0.00    -0.341 C  
HETATM    4  H1  UNL     1     -10.896  16.523  71.083  1.00  0.00     0.000 HD 
ENDROOT
BRANCH   3   5
HETATM    5  C   UNL     1     -12.304  13.467  70.578  1.00  0.00    -0.342 C  
BRANCH   5   6
HETATM    6  N   UNL     1     -11.261  13.187  69.585  1.00  0.00    -0.474 NA 
HETATM    7  H   UNL     1     -10.547  12.562  69.958  1.00  0.00     0.000 HD 
BRANCH   6   8
HETATM    8  C   UNL     1     -11.837  12.664  68.338  1.00  0.00    -0.301 C  
BRANCH   8   9
HETATM    9  C   UNL     1     -11.579  13.635  67.170  1.00  0.00    -0.361 C  
BRANCH   9  10
HETATM   10  N   UNL     1     -10.602  14.677  67.534  1.00  0.00    -0.255 NA 
HETATM   11  H   UNL     1      -9.641  14.369  67.377  1.00  0.00     0.000 HD 
BRANCH  10  12
HETATM   12  C   UNL     1     -10.903  15.928  66.818  1.00  0.00    -0.228 C  
BRANCH  12  13
HETATM   13  C   UNL     1      -9.859  17.018  67.126  1.00  0.00    -0.269 C  
HETATM   14  N   UNL     1      -9.111  17.429  65.932  1.00  0.00    -0.523 NA 
HETATM   15  H1  UNL     1      -8.420  18.150  66.135  1.00  0.00     0.000 HD 
HETATM   16  H2  UNL     1      -9.742  17.723  65.187  1.00  0.00     0.000 HD 
ENDBRANCH  12  13
ENDBRANCH  10  12
ENDBRANCH   9  10
ENDBRANCH   8   9
ENDBRANCH   6   8
ENDBRANCH   5   6
ENDBRANCH   3   5
TORSDOF 7
ENDMDL
MODEL      140
REMARK 921   NORMALIZED FREE ENERGY PREDICTED BY IDOCK:   -2.40 KCAL/MOL
REMARK 922        TOTAL FREE ENERGY PREDICTED BY IDOCK:   -3.89 KCAL/MOL
REMARK 923 INTER-LIGAND FREE ENERGY PREDICTED BY IDOCK:   -3.76 KCAL/MOL
REMARK 924 INTRA-LIGAND FREE ENERGY PREDICTED BY IDOCK:   -0.13 KCAL/MOL
REMARK 927      BINDING AFFINITY PREDICTED BY RF-SCORE:    0.00 PKD
ROOT
HETATM    1  N   UNL     1     -14.330   8.868  72.886  1.00  0.00    -1.124 NA 
HETATM    2  H2  UNL     1     -14.767   9.786  72.810  1.00  0.00     0.000 HD 
HETATM    3  C   UNL     1     -13.510   8.574  71.707  1.00  0.00    -0.371 C  
HETATM    4  H1  UNL     1     -15.026   8.145  73.068  1.00  0.00     0.000 HD 
ENDROOT
BRANCH   3   5
HETATM    5  C   UNL     1     -12.459   9.666  71.433  1.00  0.00    -0.373 C  
BRANCH   5   6
HETATM    6  N   UNL     1     -12.069   9.693  70.018  1.00  0.00    -0.454 NA 
HETATM    7  H   UNL     1     -12.001  10.648  69.667  1.00  0.00     0.000 HD 
BRANCH   6   8
HETATM    8  C   UNL     1     -10.825   8.945  69.793  1.00  0.00    -0.200 C  
BRANCH   8   9
HETATM    9  C   UNL     1      -9.946   9.654  68.744  1.00  0.00    -0.173 C  
BRANCH   9  10
HETATM   10  N   UNL     1      -9.195  10.777  69.331  1.00  0.00    -0.410 NA 
HETATM   11  H   UNL     1      -8.743  10.515  70.209  1.00  0.00     0.000 HD 
BRANCH  10  12
HETATM   12  C   UNL     1      -8.231  11.310  68.354  1.00  0.00    -0.149 C  
BRANCH  12  13
HETATM   13  C   UNL     1      -8.591  10.885  66.918  1.00  0.00    -0.136 C  
HETATM   14  N   UNL     1      -7.556  11.257  65.948  1.00  0.00    -0.366 NA 
HETATM   15  H1  UNL     1      -7.794  10.976  64.997  1.00  0.00     0.000 HD 
HETATM   16  H2  UNL     1      -6.645  10.890  66.223  1.00  0.00     0.000 HD 
ENDBRANCH  12  13
ENDBRANCH  10  12
ENDBRANCH   9  10
ENDBRANCH   8   9
ENDBRANCH   6   8
ENDBRANCH   5   6
ENDBRANCH   3   5
TORSDOF 7
ENDMDL
MODEL      141
REMARK 921   NORMALIZED FREE ENERGY PREDICTED BY IDOCK:   -2.39 KCAL/MOL
REMARK 922        TOTAL FREE ENERGY PREDICTED BY IDOCK:   -3.87 KCAL/MOL
REMARK 923 INTER-LIGAND FREE ENERGY PREDICTED BY IDOCK:   -3.69 KCAL/MOL
REMARK 924 INTRA-LIGAND FREE ENERGY PREDICTED BY IDOCK:   -0.18 KCAL/MOL
REMARK 927      BINDING AFFINITY PREDICTED BY RF-SCORE:    0.00 PKD
ROOT
HETATM    1  N   UNL     1      -6.828  13.820  69.759  1.00  0.00    -0.342 NA 
HETATM    2  H2  UNL     1      -7.608  14.403  70.063  1.00  0.00     0.000 HD 
HETATM    3  C   UNL     1      -7.036  13.331  68.393  1.00  0.00    -0.105 C  
HETATM    4  H1  UNL     1      -6.655  13.064  70.423  1.00  0.00     0.000 HD 
ENDROOT
BRANCH   3   5
HETATM    5  C   UNL     1      -7.297  14.470  67.392  1.00  0.00    -0.157 C  
BRANCH   5   6
HETATM    6  N   UNL     1      -8.716  14.840  67.356  1.00  0.00    -0.186 NA 
HETATM    7  H   UNL     1      -9.025  15.226  68.248  1.00  0.00     0.000 HD 
BRANCH   6   8
HETATM    8  C   UNL     1      -9.001  15.758  66.245  1.00  0.00    -0.345 C  
BRANCH   8   9
HETATM    9  C   UNL     1     -10.517  15.838  65.980  1.00  0.00    -0.338 C  
BRANCH   9  10
HETATM   10  N   UNL     1     -10.834  15.609  64.559  1.00  0.00    -0.768 NA 
HETATM   11  H   UNL     1     -10.002  15.656  63.970  1.00  0.00     0.000 HD 
BRANCH  10  12
HETATM   12  C   UNL     1     -11.552  14.334  64.397  1.00  0.00    -0.344 C  
BRANCH  12  13
HETATM   13  C   UNL     1     -12.290  13.935  65.689  1.00  0.00    -0.482 C  
HETATM   14  N   UNL     1     -12.226  12.491  65.947  1.00  0.00    -0.624 NA 
HETATM   15  H1  UNL     1     -12.715  12.227  66.802  1.00  0.00     0.000 HD 
HETATM   16  H2  UNL     1     -11.261  12.163  65.958  1.00  0.00     0.000 HD 
ENDBRANCH  12  13
ENDBRANCH  10  12
ENDBRANCH   9  10
ENDBRANCH   8   9
ENDBRANCH   6   8
ENDBRANCH   5   6
ENDBRANCH   3   5
TORSDOF 7
ENDMDL
MODEL      142
REMARK 921   NORMALIZED FREE ENERGY PREDICTED BY IDOCK:   -2.38 KCAL/MOL
REMARK 922        TOTAL FREE ENERGY PREDICTED BY IDOCK:   -3.86 KCAL/MOL
REMARK 923 INTER-LIGAND FREE ENERGY PREDICTED BY IDOCK:   -3.30 KCAL/MOL
REMARK 924 INTRA-LIGAND FREE ENERGY PREDICTED BY IDOCK:   -0.55 KCAL/MOL
REMARK 927      BINDING AFFINITY PREDICTED BY RF-SCORE:    0.00 PKD
ROOT
HETATM    1  N   UNL     1      -7.875  12.941  68.768  1.00  0.00    -0.311 NA 
HETATM    2  H2  UNL     1      -8.578  12.335  69.191  1.00  0.00     0.000 HD 
HETATM    3  C   UNL     1      -7.739  12.669  67.334  1.00  0.00    -0.161 C  
HETATM    4  H1  UNL     1      -6.987  12.874  69.265  1.00  0.00     0.000 HD 
ENDROOT
BRANCH   3   5
HETATM    5  C   UNL     1      -9.080  12.770  66.585  1.00  0.00    -0.187 C  
BRANCH   5   6
HETATM    6  N   UNL     1      -9.354  14.146  66.155  1.00  0.00    -0.494 NA 
HETATM    7  H   UNL     1      -9.312  14.236  65.140  1.00  0.00     0.000 HD 
BRANCH   6   8
HETATM    8  C   UNL     1     -10.637  14.626  66.687  1.00  0.00    -0.289 C  
BRANCH   8   9
HETATM    9  C   UNL     1     -10.433  15.334  68.041  1.00  0.00    -0.248 C  
BRANCH   9  10
HETATM   10  N   UNL     1     -10.528  14.390  69.169  1.00  0.00    -0.342 NA 
HETATM   11  H   UNL     1     -10.302  14.836  70.059  1.00  0.00     0.000 HD 
BRANCH  10  12
HETATM   12  C   UNL     1     -11.858  13.758  69.192  1.00  0.00    -0.354 C  
BRANCH  12  13
HETATM   13  C   UNL     1     -11.762  12.254  69.509  1.00  0.00    -0.332 C  
HETATM   14  N   UNL     1     -12.103  11.416  68.353  1.00  0.00    -0.585 NA 
HETATM   15  H1  UNL     1     -12.039  10.420  68.563  1.00  0.00     0.000 HD 
HETATM   16  H2  UNL     1     -11.533  11.658  67.543  1.00  0.00     0.000 HD 
ENDBRANCH  12  13
ENDBRANCH  10  12
ENDBRANCH   9  10
ENDBRANCH   8   9
ENDBRANCH   6   8
ENDBRANCH   5   6
ENDBRANCH   3   5
TORSDOF 7
ENDMDL
MODEL      143
REMARK 921   NORMALIZED FREE ENERGY PREDICTED BY IDOCK:   -2.38 KCAL/MOL
REMARK 922        TOTAL FREE ENERGY PREDICTED BY IDOCK:   -3.85 KCAL/MOL
REMARK 923 INTER-LIGAND FREE ENERGY PREDICTED BY IDOCK:   -3.60 KCAL/MOL
REMARK 924 INTRA-LIGAND FREE ENERGY PREDICTED BY IDOCK:   -0.26 KCAL/MOL
REMARK 927      BINDING AFFINITY PREDICTED BY RF-SCORE:    0.00 PKD
ROOT
HETATM    1  N   UNL     1      -7.501  12.889  66.907  1.00  0.00    -0.364 NA 
HETATM    2  H2  UNL     1      -8.232  12.244  67.204  1.00  0.00     0.000 HD 
HETATM    3  C   UNL     1      -7.815  14.264  67.308  1.00  0.00    -0.147 C  
HETATM    4  H1  UNL     1      -7.324  12.806  65.906  1.00  0.00     0.000 HD 
ENDROOT
BRANCH   3   5
HETATM    5  C   UNL     1      -8.084  14.390  68.819  1.00  0.00    -0.127 C  
BRANCH   5   6
HETATM    6  N   UNL     1      -9.513  14.267  69.123  1.00  0.00    -0.405 NA 
HETATM    7  H   UNL     1      -9.682  14.252  70.129  1.00  0.00     0.000 HD 
BRANCH   6   8
HETATM    8  C   UNL     1     -10.293  15.322  68.461  1.00  0.00    -0.231 C  
BRANCH   8   9
HETATM    9  C   UNL     1     -11.706  14.816  68.112  1.00  0.00    -0.325 C  
BRANCH   9  10
HETATM   10  N   UNL     1     -11.714  13.368  67.836  1.00  0.00    -0.341 NA 
HETATM   11  H   UNL     1     -12.598  12.934  68.105  1.00  0.00     0.000 HD 
BRANCH  10  12
HETATM   12  C   UNL     1     -11.385  13.119  66.423  1.00  0.00    -0.315 C  
BRANCH  12  13
HETATM   13  C   UNL     1     -12.509  13.605  65.489  1.00  0.00    -0.503 C  
HETATM   14  N   UNL     1     -13.068  12.521  64.673  1.00  0.00    -0.837 NA 
HETATM   15  H1  UNL     1     -13.812  12.843  64.055  1.00  0.00     0.000 HD 
HETATM   16  H2  UNL     1     -13.384  11.747  65.258  1.00  0.00     0.000 HD 
ENDBRANCH  12  13
ENDBRANCH  10  12
ENDBRANCH   9  10
ENDBRANCH   8   9
ENDBRANCH   6   8
ENDBRANCH   5   6
ENDBRANCH   3   5
TORSDOF 7
ENDMDL
MODEL      144
REMARK 921   NORMALIZED FREE ENERGY PREDICTED BY IDOCK:   -2.37 KCAL/MOL
REMARK 922        TOTAL FREE ENERGY PREDICTED BY IDOCK:   -3.84 KCAL/MOL
REMARK 923 INTER-LIGAND FREE ENERGY PREDICTED BY IDOCK:   -3.60 KCAL/MOL
REMARK 924 INTRA-LIGAND FREE ENERGY PREDICTED BY IDOCK:   -0.25 KCAL/MOL
REMARK 927      BINDING AFFINITY PREDICTED BY RF-SCORE:    0.00 PKD
ROOT
HETATM    1  N   UNL     1     -12.256  13.878  67.794  1.00  0.00    -0.489 NA 
HETATM    2  H2  UNL     1     -12.154  14.670  68.428  1.00  0.00     0.000 HD 
HETATM    3  C   UNL     1     -12.136  14.302  66.396  1.00  0.00    -0.419 C  
HETATM    4  H1  UNL     1     -13.123  13.372  67.976  1.00  0.00     0.000 HD 
ENDROOT
BRANCH   3   5
HETATM    5  C   UNL     1     -10.827  15.065  66.121  1.00  0.00    -0.329 C  
BRANCH   5   6
HETATM    6  N   UNL     1     -10.254  15.612  67.356  1.00  0.00    -0.259 NA 
HETATM    7  H   UNL     1      -9.247  15.461  67.400  1.00  0.00     0.000 HD 
BRANCH   6   8
HETATM    8  C   UNL     1     -10.595  17.032  67.520  1.00  0.00    -0.310 C  
BRANCH   8   9
HETATM    9  C   UNL     1     -10.306  17.813  66.223  1.00  0.00    -0.358 C  
BRANCH   9  10
HETATM   10  N   UNL     1      -8.872  18.119  66.079  1.00  0.00    -0.508 NA 
HETATM   11  H   UNL     1      -8.542  17.962  65.126  1.00  0.00     0.000 HD 
BRANCH  10  12
HETATM   12  C   UNL     1      -8.596  19.491  66.537  1.00  0.00    -0.348 C  
BRANCH  12  13
HETATM   13  C   UNL     1      -7.618  19.502  67.727  1.00  0.00    -0.272 C  
HETATM   14  N   UNL     1      -8.305  19.371  69.017  1.00  0.00    -0.305 NA 
HETATM   15  H1  UNL     1      -7.658  19.378  69.805  1.00  0.00     0.000 HD 
HETATM   16  H2  UNL     1      -8.897  18.540  69.035  1.00  0.00     0.000 HD 
ENDBRANCH  12  13
ENDBRANCH  10  12
ENDBRANCH   9  10
ENDBRANCH   8   9
ENDBRANCH   6   8
ENDBRANCH   5   6
ENDBRANCH   3   5
TORSDOF 7
ENDMDL
MODEL      145
REMARK 921   NORMALIZED FREE ENERGY PREDICTED BY IDOCK:   -2.36 KCAL/MOL
REMARK 922        TOTAL FREE ENERGY PREDICTED BY IDOCK:   -3.84 KCAL/MOL
REMARK 923 INTER-LIGAND FREE ENERGY PREDICTED BY IDOCK:   -3.68 KCAL/MOL
REMARK 924 INTRA-LIGAND FREE ENERGY PREDICTED BY IDOCK:   -0.16 KCAL/MOL
REMARK 927      BINDING AFFINITY PREDICTED BY RF-SCORE:    0.00 PKD
ROOT
HETATM    1  N   UNL     1      -9.014  11.500  65.568  1.00  0.00    -0.392 NA 
HETATM    2  H2  UNL     1     -10.012  11.657  65.423  1.00  0.00     0.000 HD 
HETATM    3  C   UNL     1      -8.562  12.108  66.822  1.00  0.00    -0.163 C  
HETATM    4  H1  UNL     1      -8.473  11.815  64.763  1.00  0.00     0.000 HD 
ENDROOT
BRANCH   3   5
HETATM    5  C   UNL     1      -9.380  11.633  68.037  1.00  0.00    -0.178 C  
BRANCH   5   6
HETATM    6  N   UNL     1     -10.718  11.180  67.641  1.00  0.00    -0.214 NA 
HETATM    7  H   UNL     1     -10.851  10.188  67.838  1.00  0.00     0.000 HD 
BRANCH   6   8
HETATM    8  C   UNL     1     -11.765  11.999  68.265  1.00  0.00    -0.334 C  
BRANCH   8   9
HETATM    9  C   UNL     1     -11.672  11.924  69.801  1.00  0.00    -0.331 C  
BRANCH   9  10
HETATM   10  N   UNL     1     -11.839  13.249  70.423  1.00  0.00    -0.536 NA 
HETATM   11  H   UNL     1     -12.069  13.967  69.735  1.00  0.00     0.000 HD 
BRANCH  10  12
HETATM   12  C   UNL     1     -12.838  13.182  71.502  1.00  0.00    -0.307 C  
BRANCH  12  13
HETATM   13  C   UNL     1     -13.336  14.586  71.897  1.00  0.00    -0.365 C  
HETATM   14  N   UNL     1     -13.803  15.359  70.741  1.00  0.00    -0.860 NA 
HETATM   15  H1  UNL     1     -14.132  16.289  71.002  1.00  0.00     0.000 HD 
HETATM   16  H2  UNL     1     -14.516  14.849  70.221  1.00  0.00     0.000 HD 
ENDBRANCH  12  13
ENDBRANCH  10  12
ENDBRANCH   9  10
ENDBRANCH   8   9
ENDBRANCH   6   8
ENDBRANCH   5   6
ENDBRANCH   3   5
TORSDOF 7
ENDMDL
MODEL      146
REMARK 921   NORMALIZED FREE ENERGY PREDICTED BY IDOCK:   -2.36 KCAL/MOL
REMARK 922        TOTAL FREE ENERGY PREDICTED BY IDOCK:   -3.83 KCAL/MOL
REMARK 923 INTER-LIGAND FREE ENERGY PREDICTED BY IDOCK:   -3.74 KCAL/MOL
REMARK 924 INTRA-LIGAND FREE ENERGY PREDICTED BY IDOCK:   -0.09 KCAL/MOL
REMARK 927      BINDING AFFINITY PREDICTED BY RF-SCORE:    0.00 PKD
ROOT
HETATM    1  N   UNL     1      -6.294  17.596  68.499  1.00  0.00    -0.179 NA 
HETATM    2  H2  UNL     1      -6.233  16.870  67.785  1.00  0.00     0.000 HD 
HETATM    3  C   UNL     1      -7.514  18.393  68.338  1.00  0.00    -0.286 C  
HETATM    4  H1  UNL     1      -5.451  18.170  68.511  1.00  0.00     0.000 HD 
ENDROOT
BRANCH   3   5
HETATM    5  C   UNL     1      -8.786  17.526  68.319  1.00  0.00    -0.274 C  
BRANCH   5   6
HETATM    6  N   UNL     1      -8.801  16.616  67.168  1.00  0.00    -0.188 NA 
HETATM    7  H   UNL     1      -8.836  15.641  67.463  1.00  0.00     0.000 HD 
BRANCH   6   8
HETATM    8  C   UNL     1      -9.897  16.941  66.245  1.00  0.00    -0.302 C  
BRANCH   8   9
HETATM    9  C   UNL     1     -10.830  15.728  66.061  1.00  0.00    -0.255 C  
BRANCH   9  10
HETATM   10  N   UNL     1     -11.114  15.471  64.638  1.00  0.00    -0.656 NA 
HETATM   11  H   UNL     1     -10.276  15.192  64.126  1.00  0.00     0.000 HD 
BRANCH  10  12
HETATM   12  C   UNL     1     -12.194  14.479  64.506  1.00  0.00    -0.465 C  
BRANCH  12  13
HETATM   13  C   UNL     1     -11.719  13.226  63.746  1.00  0.00    -0.421 C  
HETATM   14  N   UNL     1     -10.262  13.060  63.796  1.00  0.00    -0.716 NA 
HETATM   15  H1  UNL     1      -9.948  12.231  63.293  1.00  0.00     0.000 HD 
HETATM   16  H2  UNL     1      -9.926  13.055  64.759  1.00  0.00     0.000 HD 
ENDBRANCH  12  13
ENDBRANCH  10  12
ENDBRANCH   9  10
ENDBRANCH   8   9
ENDBRANCH   6   8
ENDBRANCH   5   6
ENDBRANCH   3   5
TORSDOF 7
ENDMDL
MODEL      147
REMARK 921   NORMALIZED FREE ENERGY PREDICTED BY IDOCK:   -2.36 KCAL/MOL
REMARK 922        TOTAL FREE ENERGY PREDICTED BY IDOCK:   -3.83 KCAL/MOL
REMARK 923 INTER-LIGAND FREE ENERGY PREDICTED BY IDOCK:   -3.54 KCAL/MOL
REMARK 924 INTRA-LIGAND FREE ENERGY PREDICTED BY IDOCK:   -0.29 KCAL/MOL
REMARK 927      BINDING AFFINITY PREDICTED BY RF-SCORE:    0.00 PKD
ROOT
HETATM    1  N   UNL     1      -8.777  13.576  68.640  1.00  0.00    -0.353 NA 
HETATM    2  H2  UNL     1      -9.109  13.189  69.524  1.00  0.00     0.000 HD 
HETATM    3  C   UNL     1      -9.663  14.643  68.165  1.00  0.00    -0.220 C  
HETATM    4  H1  UNL     1      -8.644  12.841  67.946  1.00  0.00     0.000 HD 
ENDROOT
BRANCH   3   5
HETATM    5  C   UNL     1      -9.866  15.752  69.213  1.00  0.00    -0.265 C  
BRANCH   5   6
HETATM    6  N   UNL     1     -10.435  15.220  70.456  1.00  0.00    -0.504 NA 
HETATM    7  H   UNL     1      -9.919  15.545  71.274  1.00  0.00     0.000 HD 
BRANCH   6   8
HETATM    8  C   UNL     1     -11.867  15.530  70.564  1.00  0.00    -0.356 C  
BRANCH   8   9
HETATM    9  C   UNL     1     -12.716  14.262  70.346  1.00  0.00    -0.295 C  
BRANCH   9  10
HETATM   10  N   UNL     1     -12.046  13.061  70.876  1.00  0.00    -0.465 NA 
HETATM   11  H   UNL     1     -12.519  12.695  71.704  1.00  0.00     0.000 HD 
BRANCH  10  12
HETATM   12  C   UNL     1     -11.919  12.043  69.821  1.00  0.00    -0.300 C  
BRANCH  12  13
HETATM   13  C   UNL     1     -12.074  10.619  70.389  1.00  0.00    -0.341 C  
HETATM   14  N   UNL     1     -11.449   9.604  69.534  1.00  0.00    -0.444 NA 
HETATM   15  H1  UNL     1     -11.552   8.662  69.910  1.00  0.00     0.000 HD 
HETATM   16  H2  UNL     1     -10.470   9.825  69.357  1.00  0.00     0.000 HD 
ENDBRANCH  12  13
ENDBRANCH  10  12
ENDBRANCH   9  10
ENDBRANCH   8   9
ENDBRANCH   6   8
ENDBRANCH   5   6
ENDBRANCH   3   5
TORSDOF 7
ENDMDL
MODEL      148
REMARK 921   NORMALIZED FREE ENERGY PREDICTED BY IDOCK:   -2.35 KCAL/MOL
REMARK 922        TOTAL FREE ENERGY PREDICTED BY IDOCK:   -3.82 KCAL/MOL
REMARK 923 INTER-LIGAND FREE ENERGY PREDICTED BY IDOCK:   -3.65 KCAL/MOL
REMARK 924 INTRA-LIGAND FREE ENERGY PREDICTED BY IDOCK:   -0.17 KCAL/MOL
REMARK 927      BINDING AFFINITY PREDICTED BY RF-SCORE:    0.00 PKD
ROOT
HETATM    1  N   UNL     1      -6.974  14.750  70.250  1.00  0.00    -0.298 NA 
HETATM    2  H2  UNL     1      -7.251  13.901  69.757  1.00  0.00     0.000 HD 
HETATM    3  C   UNL     1      -7.127  15.931  69.396  1.00  0.00    -0.215 C  
HETATM    4  H1  UNL     1      -6.031  14.662  70.630  1.00  0.00     0.000 HD 
ENDROOT
BRANCH   3   5
HETATM    5  C   UNL     1      -8.549  16.064  68.822  1.00  0.00    -0.223 C  
BRANCH   5   6
HETATM    6  N   UNL     1      -9.363  14.880  69.123  1.00  0.00    -0.320 NA 
HETATM    7  H   UNL     1      -9.981  15.042  69.917  1.00  0.00     0.000 HD 
BRANCH   6   8
HETATM    8  C   UNL     1     -10.112  14.434  67.940  1.00  0.00    -0.228 C  
BRANCH   8   9
HETATM    9  C   UNL     1      -9.426  14.917  66.647  1.00  0.00    -0.265 C  
BRANCH   9  10
HETATM   10  N   UNL     1      -9.930  14.201  65.462  1.00  0.00    -0.475 NA 
HETATM   11  H   UNL     1     -10.181  13.235  65.679  1.00  0.00     0.000 HD 
BRANCH  10  12
HETATM   12  C   UNL     1     -11.053  14.940  64.861  1.00  0.00    -0.414 C  
BRANCH  12  13
HETATM   13  C   UNL     1     -12.175  13.987  64.406  1.00  0.00    -0.426 C  
HETATM   14  N   UNL     1     -11.814  13.232  63.201  1.00  0.00    -0.788 NA 
HETATM   15  H1  UNL     1     -12.557  12.601  62.900  1.00  0.00     0.000 HD 
HETATM   16  H2  UNL     1     -10.936  12.730  63.331  1.00  0.00     0.000 HD 
ENDBRANCH  12  13
ENDBRANCH  10  12
ENDBRANCH   9  10
ENDBRANCH   8   9
ENDBRANCH   6   8
ENDBRANCH   5   6
ENDBRANCH   3   5
TORSDOF 7
ENDMDL
MODEL      149
REMARK 921   NORMALIZED FREE ENERGY PREDICTED BY IDOCK:   -2.35 KCAL/MOL
REMARK 922        TOTAL FREE ENERGY PREDICTED BY IDOCK:   -3.82 KCAL/MOL
REMARK 923 INTER-LIGAND FREE ENERGY PREDICTED BY IDOCK:   -3.63 KCAL/MOL
REMARK 924 INTRA-LIGAND FREE ENERGY PREDICTED BY IDOCK:   -0.19 KCAL/MOL
REMARK 927      BINDING AFFINITY PREDICTED BY RF-SCORE:    0.00 PKD
ROOT
HETATM    1  N   UNL     1      -8.625  11.893  66.128  1.00  0.00    -0.390 NA 
HETATM    2  H2  UNL     1      -8.591  10.910  65.858  1.00  0.00     0.000 HD 
HETATM    3  C   UNL     1      -9.982  12.285  66.521  1.00  0.00    -0.220 C  
HETATM    4  H1  UNL     1      -8.245  12.488  65.391  1.00  0.00     0.000 HD 
ENDROOT
BRANCH   3   5
HETATM    5  C   UNL     1     -10.556  11.387  67.632  1.00  0.00    -0.202 C  
BRANCH   5   6
HETATM    6  N   UNL     1      -9.767  11.484  68.864  1.00  0.00    -0.393 NA 
HETATM    7  H   UNL     1     -10.251  12.027  69.578  1.00  0.00     0.000 HD 
BRANCH   6   8
HETATM    8  C   UNL     1      -9.390  10.153  69.363  1.00  0.00    -0.219 C  
BRANCH   8   9
HETATM    9  C   UNL     1     -10.645   9.327  69.707  1.00  0.00    -0.231 C  
BRANCH   9  10
HETATM   10  N   UNL     1     -11.030   9.485  71.121  1.00  0.00    -0.344 NA 
HETATM   11  H   UNL     1     -10.273   9.879  71.680  1.00  0.00     0.000 HD 
BRANCH  10  12
HETATM   12  C   UNL     1     -12.264  10.281  71.226  1.00  0.00    -0.395 C  
BRANCH  12  13
HETATM   13  C   UNL     1     -13.470   9.403  71.608  1.00  0.00    -0.394 C  
HETATM   14  N   UNL     1     -13.297   8.748  72.909  1.00  0.00    -0.837 NA 
HETATM   15  H1  UNL     1     -14.095   8.167  73.162  1.00  0.00     0.000 HD 
HETATM   16  H2  UNL     1     -13.093   9.431  73.639  1.00  0.00     0.000 HD 
ENDBRANCH  12  13
ENDBRANCH  10  12
ENDBRANCH   9  10
ENDBRANCH   8   9
ENDBRANCH   6   8
ENDBRANCH   5   6
ENDBRANCH   3   5
TORSDOF 7
ENDMDL
MODEL      150
REMARK 921   NORMALIZED FREE ENERGY PREDICTED BY IDOCK:   -2.34 KCAL/MOL
REMARK 922        TOTAL FREE ENERGY PREDICTED BY IDOCK:   -3.80 KCAL/MOL
REMARK 923 INTER-LIGAND FREE ENERGY PREDICTED BY IDOCK:   -3.55 KCAL/MOL
REMARK 924 INTRA-LIGAND FREE ENERGY PREDICTED BY IDOCK:   -0.25 KCAL/MOL
REMARK 927      BINDING AFFINITY PREDICTED BY RF-SCORE:    0.00 PKD
ROOT
HETATM    1  N   UNL     1      -9.764  13.575  68.763  1.00  0.00    -0.411 NA 
HETATM    2  H2  UNL     1     -10.004  12.703  68.291  1.00  0.00     0.000 HD 
HETATM    3  C   UNL     1     -10.914  14.483  68.811  1.00  0.00    -0.250 C  
HETATM    4  H1  UNL     1      -8.942  14.007  68.341  1.00  0.00     0.000 HD 
ENDROOT
BRANCH   3   5
HETATM    5  C   UNL     1     -12.154  13.831  69.448  1.00  0.00    -0.328 C  
BRANCH   5   6
HETATM    6  N   UNL     1     -11.808  13.093  70.668  1.00  0.00    -0.522 NA 
HETATM    7  H   UNL     1     -11.966  13.656  71.504  1.00  0.00     0.000 HD 
BRANCH   6   8
HETATM    8  C   UNL     1     -12.522  11.811  70.738  1.00  0.00    -0.312 C  
BRANCH   8   9
HETATM    9  C   UNL     1     -11.869  10.773  69.804  1.00  0.00    -0.335 C  
BRANCH   9  10
HETATM   10  N   UNL     1     -12.113   9.395  70.267  1.00  0.00    -0.465 NA 
HETATM   11  H   UNL     1     -11.642   8.707  69.678  1.00  0.00     0.000 HD 
BRANCH  10  12
HETATM   12  C   UNL     1     -11.733   9.260  71.683  1.00  0.00    -0.392 C  
BRANCH  12  13
HETATM   13  C   UNL     1     -10.281   8.769  71.832  1.00  0.00    -0.345 C  
HETATM   14  N   UNL     1     -10.042   7.505  71.126  1.00  0.00    -0.189 NA 
HETATM   15  H1  UNL     1      -9.080   7.180  71.225  1.00  0.00     0.000 HD 
HETATM   16  H2  UNL     1     -10.306   7.578  70.144  1.00  0.00     0.000 HD 
ENDBRANCH  12  13
ENDBRANCH  10  12
ENDBRANCH   9  10
ENDBRANCH   8   9
ENDBRANCH   6   8
ENDBRANCH   5   6
ENDBRANCH   3   5
TORSDOF 7
ENDMDL
MODEL      151
REMARK 921   NORMALIZED FREE ENERGY PREDICTED BY IDOCK:   -2.33 KCAL/MOL
REMARK 922        TOTAL FREE ENERGY PREDICTED BY IDOCK:   -3.79 KCAL/MOL
REMARK 923 INTER-LIGAND FREE ENERGY PREDICTED BY IDOCK:   -3.65 KCAL/MOL
REMARK 924 INTRA-LIGAND FREE ENERGY PREDICTED BY IDOCK:   -0.14 KCAL/MOL
REMARK 927      BINDING AFFINITY PREDICTED BY RF-SCORE:    0.00 PKD
ROOT
HETATM    1  N   UNL     1     -11.230   9.853  68.204  1.00  0.00    -0.523 NA 
HETATM    2  H2  UNL     1     -12.124  10.301  68.404  1.00  0.00     0.000 HD 
HETATM    3  C   UNL     1     -10.778  10.159  66.844  1.00  0.00    -0.161 C  
HETATM    4  H1  UNL     1     -11.275   8.849  68.384  1.00  0.00     0.000 HD 
ENDROOT
BRANCH   3   5
HETATM    5  C   UNL     1     -10.711  11.673  66.572  1.00  0.00    -0.272 C  
BRANCH   5   6
HETATM    6  N   UNL     1     -12.038  12.228  66.282  1.00  0.00    -0.620 NA 
HETATM    7  H   UNL     1     -12.770  11.727  66.785  1.00  0.00     0.000 HD 
BRANCH   6   8
HETATM    8  C   UNL     1     -12.084  13.671  66.556  1.00  0.00    -0.423 C  
BRANCH   8   9
HETATM    9  C   UNL     1     -10.798  14.130  67.271  1.00  0.00    -0.285 C  
BRANCH   9  10
HETATM   10  N   UNL     1     -10.428  15.506  66.894  1.00  0.00    -0.295 NA 
HETATM   11  H   UNL     1     -10.700  15.725  65.935  1.00  0.00     0.000 HD 
BRANCH  10  12
HETATM   12  C   UNL     1     -10.991  16.466  67.858  1.00  0.00    -0.298 C  
BRANCH  12  13
HETATM   13  C   UNL     1     -10.521  17.903  67.562  1.00  0.00    -0.390 C  
HETATM   14  N   UNL     1      -9.948  18.558  68.743  1.00  0.00    -0.385 NA 
HETATM   15  H1  UNL     1      -9.636  19.510  68.547  1.00  0.00     0.000 HD 
HETATM   16  H2  UNL     1      -9.194  18.000  69.143  1.00  0.00     0.000 HD 
ENDBRANCH  12  13
ENDBRANCH  10  12
ENDBRANCH   9  10
ENDBRANCH   8   9
ENDBRANCH   6   8
ENDBRANCH   5   6
ENDBRANCH   3   5
TORSDOF 7
ENDMDL
MODEL      152
REMARK 921   NORMALIZED FREE ENERGY PREDICTED BY IDOCK:   -2.32 KCAL/MOL
REMARK 922        TOTAL FREE ENERGY PREDICTED BY IDOCK:   -3.78 KCAL/MOL
REMARK 923 INTER-LIGAND FREE ENERGY PREDICTED BY IDOCK:   -3.60 KCAL/MOL
REMARK 924 INTRA-LIGAND FREE ENERGY PREDICTED BY IDOCK:   -0.18 KCAL/MOL
REMARK 927      BINDING AFFINITY PREDICTED BY RF-SCORE:    0.00 PKD
ROOT
HETATM    1  N   UNL     1     -14.261   8.844  73.238  1.00  0.00    -1.237 NA 
HETATM    2  H2  UNL     1     -15.122   9.209  72.831  1.00  0.00     0.000 HD 
HETATM    3  C   UNL     1     -13.179   8.821  72.251  1.00  0.00    -0.412 C  
HETATM    4  H1  UNL     1     -14.417   7.932  73.668  1.00  0.00     0.000 HD 
ENDROOT
BRANCH   3   5
HETATM    5  C   UNL     1     -12.944  10.198  71.602  1.00  0.00    -0.456 C  
BRANCH   5   6
HETATM    6  N   UNL     1     -11.692  10.225  70.837  1.00  0.00    -0.360 NA 
HETATM    7  H   UNL     1     -11.283  11.159  70.821  1.00  0.00     0.000 HD 
BRANCH   6   8
HETATM    8  C   UNL     1     -10.738   9.227  71.340  1.00  0.00    -0.362 C  
BRANCH   8   9
HETATM    9  C   UNL     1     -10.084   8.463  70.172  1.00  0.00    -0.191 C  
BRANCH   9  10
HETATM   10  N   UNL     1      -9.038   7.538  70.643  1.00  0.00    -0.155 NA 
HETATM   11  H   UNL     1      -9.005   7.488  71.662  1.00  0.00     0.000 HD 
BRANCH  10  12
HETATM   12  C   UNL     1      -9.221   6.210  70.034  1.00  0.00    -0.151 C  
BRANCH  12  13
HETATM   13  C   UNL     1      -9.112   5.088  71.084  1.00  0.00    -0.142 C  
HETATM   14  N   UNL     1      -8.979   5.610  72.448  1.00  0.00    -0.135 NA 
HETATM   15  H1  UNL     1      -8.907   4.867  73.144  1.00  0.00     0.000 HD 
HETATM   16  H2  UNL     1      -9.741   6.251  72.673  1.00  0.00     0.000 HD 
ENDBRANCH  12  13
ENDBRANCH  10  12
ENDBRANCH   9  10
ENDBRANCH   8   9
ENDBRANCH   6   8
ENDBRANCH   5   6
ENDBRANCH   3   5
TORSDOF 7
ENDMDL
MODEL      153
REMARK 921   NORMALIZED FREE ENERGY PREDICTED BY IDOCK:   -2.32 KCAL/MOL
REMARK 922        TOTAL FREE ENERGY PREDICTED BY IDOCK:   -3.77 KCAL/MOL
REMARK 923 INTER-LIGAND FREE ENERGY PREDICTED BY IDOCK:   -3.61 KCAL/MOL
REMARK 924 INTRA-LIGAND FREE ENERGY PREDICTED BY IDOCK:   -0.17 KCAL/MOL
REMARK 927      BINDING AFFINITY PREDICTED BY RF-SCORE:    0.00 PKD
ROOT
HETATM    1  N   UNL     1      -7.895   6.000  71.477  1.00  0.00    -0.104 NA 
HETATM    2  H2  UNL     1      -8.151   6.941  71.178  1.00  0.00     0.000 HD 
HETATM    3  C   UNL     1      -8.754   5.542  72.573  1.00  0.00    -0.124 C  
HETATM    4  H1  UNL     1      -6.903   5.946  71.708  1.00  0.00     0.000 HD 
ENDROOT
BRANCH   3   5
HETATM    5  C   UNL     1     -10.251   5.624  72.224  1.00  0.00    -0.199 C  
BRANCH   5   6
HETATM    6  N   UNL     1     -10.993   6.409  73.218  1.00  0.00    -0.427 NA 
HETATM    7  H   UNL     1     -10.638   6.251  74.160  1.00  0.00     0.000 HD 
BRANCH   6   8
HETATM    8  C   UNL     1     -10.996   7.838  72.875  1.00  0.00    -0.407 C  
BRANCH   8   9
HETATM    9  C   UNL     1     -12.308   8.223  72.162  1.00  0.00    -0.360 C  
BRANCH   9  10
HETATM   10  N   UNL     1     -12.075   8.592  70.755  1.00  0.00    -0.483 NA 
HETATM   11  H   UNL     1     -12.949   8.740  70.250  1.00  0.00     0.000 HD 
BRANCH  10  12
HETATM   12  C   UNL     1     -11.189   9.765  70.677  1.00  0.00    -0.334 C  
BRANCH  12  13
HETATM   13  C   UNL     1     -11.859  10.928  69.921  1.00  0.00    -0.349 C  
HETATM   14  N   UNL     1     -12.040  10.638  68.494  1.00  0.00    -0.819 NA 
HETATM   15  H1  UNL     1     -12.484  11.408  67.994  1.00  0.00     0.000 HD 
HETATM   16  H2  UNL     1     -12.553   9.767  68.358  1.00  0.00     0.000 HD 
ENDBRANCH  12  13
ENDBRANCH  10  12
ENDBRANCH   9  10
ENDBRANCH   8   9
ENDBRANCH   6   8
ENDBRANCH   5   6
ENDBRANCH   3   5
TORSDOF 7
ENDMDL
MODEL      154
REMARK 921   NORMALIZED FREE ENERGY PREDICTED BY IDOCK:   -2.30 KCAL/MOL
REMARK 922        TOTAL FREE ENERGY PREDICTED BY IDOCK:   -3.74 KCAL/MOL
REMARK 923 INTER-LIGAND FREE ENERGY PREDICTED BY IDOCK:   -3.22 KCAL/MOL
REMARK 924 INTRA-LIGAND FREE ENERGY PREDICTED BY IDOCK:   -0.52 KCAL/MOL
REMARK 927      BINDING AFFINITY PREDICTED BY RF-SCORE:    0.00 PKD
ROOT
HETATM    1  N   UNL     1     -11.200  11.731  67.308  1.00  0.00    -0.286 NA 
HETATM    2  H2  UNL     1     -11.688  11.818  68.199  1.00  0.00     0.000 HD 
HETATM    3  C   UNL     1     -11.872  12.505  66.261  1.00  0.00    -0.390 C  
HETATM    4  H1  UNL     1     -11.076  10.752  67.052  1.00  0.00     0.000 HD 
ENDROOT
BRANCH   3   5
HETATM    5  C   UNL     1     -12.060  13.983  66.648  1.00  0.00    -0.456 C  
BRANCH   5   6
HETATM    6  N   UNL     1     -12.383  14.130  68.071  1.00  0.00    -0.540 NA 
HETATM    7  H   UNL     1     -12.224  13.262  68.583  1.00  0.00     0.000 HD 
BRANCH   6   8
HETATM    8  C   UNL     1     -11.650  15.253  68.672  1.00  0.00    -0.354 C  
BRANCH   8   9
HETATM    9  C   UNL     1     -10.424  15.622  67.814  1.00  0.00    -0.273 C  
BRANCH   9  10
HETATM   10  N   UNL     1      -9.363  16.249  68.622  1.00  0.00    -0.210 NA 
HETATM   11  H   UNL     1      -9.724  17.004  69.207  1.00  0.00     0.000 HD 
BRANCH  10  12
HETATM   12  C   UNL     1      -8.658  15.229  69.415  1.00  0.00    -0.226 C  
BRANCH  12  13
HETATM   13  C   UNL     1      -8.190  14.054  68.535  1.00  0.00    -0.136 C  
HETATM   14  N   UNL     1      -8.821  12.785  68.913  1.00  0.00    -0.349 NA 
HETATM   15  H1  UNL     1      -8.512  12.008  68.330  1.00  0.00     0.000 HD 
HETATM   16  H2  UNL     1      -9.838  12.865  68.910  1.00  0.00     0.000 HD 
ENDBRANCH  12  13
ENDBRANCH  10  12
ENDBRANCH   9  10
ENDBRANCH   8   9
ENDBRANCH   6   8
ENDBRANCH   5   6
ENDBRANCH   3   5
TORSDOF 7
ENDMDL
MODEL      155
REMARK 921   NORMALIZED FREE ENERGY PREDICTED BY IDOCK:   -2.29 KCAL/MOL
REMARK 922        TOTAL FREE ENERGY PREDICTED BY IDOCK:   -3.73 KCAL/MOL
REMARK 923 INTER-LIGAND FREE ENERGY PREDICTED BY IDOCK:   -3.57 KCAL/MOL
REMARK 924 INTRA-LIGAND FREE ENERGY PREDICTED BY IDOCK:   -0.16 KCAL/MOL
REMARK 927      BINDING AFFINITY PREDICTED BY RF-SCORE:    0.00 PKD
ROOT
HETATM    1  N   UNL     1     -10.171  13.094  64.278  1.00  0.00    -0.597 NA 
HETATM    2  H2  UNL     1      -9.212  12.989  63.945  1.00  0.00     0.000 HD 
HETATM    3  C   UNL     1     -10.463  12.141  65.352  1.00  0.00    -0.270 C  
HETATM    4  H1  UNL     1     -10.836  13.029  63.507  1.00  0.00     0.000 HD 
ENDROOT
BRANCH   3   5
HETATM    5  C   UNL     1      -9.459  12.238  66.516  1.00  0.00    -0.236 C  
BRANCH   5   6
HETATM    6  N   UNL     1      -8.694  13.489  66.463  1.00  0.00    -0.446 NA 
HETATM    7  H   UNL     1      -8.593  13.826  65.506  1.00  0.00     0.000 HD 
BRANCH   6   8
HETATM    8  C   UNL     1      -9.286  14.513  67.336  1.00  0.00    -0.200 C  
BRANCH   8   9
HETATM    9  C   UNL     1      -8.639  15.888  67.076  1.00  0.00    -0.216 C  
BRANCH   9  10
HETATM   10  N   UNL     1      -9.110  16.481  65.812  1.00  0.00    -0.482 NA 
HETATM   11  H   UNL     1      -9.250  15.775  65.088  1.00  0.00     0.000 HD 
BRANCH  10  12
HETATM   12  C   UNL     1     -10.327  17.276  66.047  1.00  0.00    -0.305 C  
BRANCH  12  13
HETATM   13  C   UNL     1     -10.203  18.135  67.319  1.00  0.00    -0.367 C  
HETATM   14  N   UNL     1     -10.972  19.381  67.231  1.00  0.00    -0.451 NA 
HETATM   15  H1  UNL     1     -10.890  19.950  68.073  1.00  0.00     0.000 HD 
HETATM   16  H2  UNL     1     -11.950  19.194  67.008  1.00  0.00     0.000 HD 
ENDBRANCH  12  13
ENDBRANCH  10  12
ENDBRANCH   9  10
ENDBRANCH   8   9
ENDBRANCH   6   8
ENDBRANCH   5   6
ENDBRANCH   3   5
TORSDOF 7
ENDMDL
MODEL      156
REMARK 921   NORMALIZED FREE ENERGY PREDICTED BY IDOCK:   -2.29 KCAL/MOL
REMARK 922        TOTAL FREE ENERGY PREDICTED BY IDOCK:   -3.73 KCAL/MOL
REMARK 923 INTER-LIGAND FREE ENERGY PREDICTED BY IDOCK:   -3.54 KCAL/MOL
REMARK 924 INTRA-LIGAND FREE ENERGY PREDICTED BY IDOCK:   -0.19 KCAL/MOL
REMARK 927      BINDING AFFINITY PREDICTED BY RF-SCORE:    0.00 PKD
ROOT
HETATM    1  N   UNL     1      -9.472  10.141  70.101  1.00  0.00    -0.387 NA 
HETATM    2  H2  UNL     1      -9.448   9.220  70.540  1.00  0.00     0.000 HD 
HETATM    3  C   UNL     1      -8.839  10.113  68.780  1.00  0.00    -0.146 C  
HETATM    4  H1  UNL     1      -9.066  10.849  70.714  1.00  0.00     0.000 HD 
ENDROOT
BRANCH   3   5
HETATM    5  C   UNL     1      -9.451   9.044  67.856  1.00  0.00    -0.141 C  
BRANCH   5   6
HETATM    6  N   UNL     1     -10.069   9.648  66.670  1.00  0.00    -0.230 NA 
HETATM    7  H   UNL     1     -11.032   9.335  66.549  1.00  0.00     0.000 HD 
BRANCH   6   8
HETATM    8  C   UNL     1      -9.981  11.114  66.711  1.00  0.00    -0.208 C  
BRANCH   8   9
HETATM    9  C   UNL     1     -11.345  11.751  66.381  1.00  0.00    -0.297 C  
BRANCH   9  10
HETATM   10  N   UNL     1     -11.482  13.089  66.982  1.00  0.00    -0.315 NA 
HETATM   11  H   UNL     1     -10.574  13.505  67.196  1.00  0.00     0.000 HD 
BRANCH  10  12
HETATM   12  C   UNL     1     -12.294  13.957  66.113  1.00  0.00    -0.465 C  
BRANCH  12  13
HETATM   13  C   UNL     1     -12.784  13.202  64.863  1.00  0.00    -0.356 C  
HETATM   14  N   UNL     1     -12.531  13.946  63.624  1.00  0.00    -0.994 NA 
HETATM   15  H1  UNL     1     -12.856  13.446  62.797  1.00  0.00     0.000 HD 
HETATM   16  H2  UNL     1     -11.546  14.196  63.540  1.00  0.00     0.000 HD 
ENDBRANCH  12  13
ENDBRANCH  10  12
ENDBRANCH   9  10
ENDBRANCH   8   9
ENDBRANCH   6   8
ENDBRANCH   5   6
ENDBRANCH   3   5
TORSDOF 7
ENDMDL
MODEL      157
REMARK 921   NORMALIZED FREE ENERGY PREDICTED BY IDOCK:   -2.28 KCAL/MOL
REMARK 922        TOTAL FREE ENERGY PREDICTED BY IDOCK:   -3.72 KCAL/MOL
REMARK 923 INTER-LIGAND FREE ENERGY PREDICTED BY IDOCK:   -3.60 KCAL/MOL
REMARK 924 INTRA-LIGAND FREE ENERGY PREDICTED BY IDOCK:   -0.12 KCAL/MOL
REMARK 927      BINDING AFFINITY PREDICTED BY RF-SCORE:    0.00 PKD
ROOT
HETATM    1  N   UNL     1     -14.154  15.350  70.797  1.00  0.00    -0.852 NA 
HETATM    2  H2  UNL     1     -14.643  14.990  69.978  1.00  0.00     0.000 HD 
HETATM    3  C   UNL     1     -13.039  14.475  71.171  1.00  0.00    -0.359 C  
HETATM    4  H1  UNL     1     -14.801  15.509  71.569  1.00  0.00     0.000 HD 
ENDROOT
BRANCH   3   5
HETATM    5  C   UNL     1     -12.062  14.234  70.006  1.00  0.00    -0.340 C  
BRANCH   5   6
HETATM    6  N   UNL     1     -11.362  12.952  70.148  1.00  0.00    -0.477 NA 
HETATM    7  H   UNL     1     -11.489  12.557  71.079  1.00  0.00     0.000 HD 
BRANCH   6   8
HETATM    8  C   UNL     1     -11.765  12.005  69.100  1.00  0.00    -0.330 C  
BRANCH   8   9
HETATM    9  C   UNL     1     -10.925  10.715  69.180  1.00  0.00    -0.247 C  
BRANCH   9  10
HETATM   10  N   UNL     1     -11.263   9.776  68.095  1.00  0.00    -0.522 NA 
HETATM   11  H   UNL     1     -11.012  10.147  67.178  1.00  0.00     0.000 HD 
BRANCH  10  12
HETATM   12  C   UNL     1     -10.642   8.465  68.346  1.00  0.00    -0.105 C  
BRANCH  12  13
HETATM   13  C   UNL     1      -9.935   8.429  69.714  1.00  0.00    -0.191 C  
HETATM   14  N   UNL     1      -9.899   7.080  70.291  1.00  0.00    -0.176 NA 
HETATM   15  H1  UNL     1      -9.430   7.057  71.196  1.00  0.00     0.000 HD 
HETATM   16  H2  UNL     1      -9.479   6.414  69.642  1.00  0.00     0.000 HD 
ENDBRANCH  12  13
ENDBRANCH  10  12
ENDBRANCH   9  10
ENDBRANCH   8   9
ENDBRANCH   6   8
ENDBRANCH   5   6
ENDBRANCH   3   5
TORSDOF 7
ENDMDL
MODEL      158
REMARK 921   NORMALIZED FREE ENERGY PREDICTED BY IDOCK:   -2.28 KCAL/MOL
REMARK 922        TOTAL FREE ENERGY PREDICTED BY IDOCK:   -3.71 KCAL/MOL
REMARK 923 INTER-LIGAND FREE ENERGY PREDICTED BY IDOCK:   -3.51 KCAL/MOL
REMARK 924 INTRA-LIGAND FREE ENERGY PREDICTED BY IDOCK:   -0.21 KCAL/MOL
REMARK 927      BINDING AFFINITY PREDICTED BY RF-SCORE:    0.00 PKD
ROOT
HETATM    1  N   UNL     1     -11.998  11.828  67.164  1.00  0.00    -0.595 NA 
HETATM    2  H2  UNL     1     -11.949  10.857  66.853  1.00  0.00     0.000 HD 
HETATM    3  C   UNL     1     -11.710  11.939  68.596  1.00  0.00    -0.323 C  
HETATM    4  H1  UNL     1     -12.893  12.248  66.912  1.00  0.00     0.000 HD 
ENDROOT
BRANCH   3   5
HETATM    5  C   UNL     1     -10.360  11.304  68.977  1.00  0.00    -0.166 C  
BRANCH   5   6
HETATM    6  N   UNL     1     -10.479  10.466  70.175  1.00  0.00    -0.445 NA 
HETATM    7  H   UNL     1      -9.798  10.731  70.887  1.00  0.00     0.000 HD 
BRANCH   6   8
HETATM    8  C   UNL     1     -11.849  10.485  70.706  1.00  0.00    -0.365 C  
BRANCH   8   9
HETATM    9  C   UNL     1     -12.110   9.243  71.581  1.00  0.00    -0.379 C  
BRANCH   9  10
HETATM   10  N   UNL     1     -11.857   7.993  70.842  1.00  0.00    -0.400 NA 
HETATM   11  H   UNL     1     -11.577   8.171  69.876  1.00  0.00     0.000 HD 
BRANCH  10  12
HETATM   12  C   UNL     1     -10.868   7.171  71.558  1.00  0.00    -0.225 C  
BRANCH  12  13
HETATM   13  C   UNL     1     -11.218   7.043  73.053  1.00  0.00    -0.206 C  
HETATM   14  N   UNL     1     -10.098   7.419  73.924  1.00  0.00    -0.403 NA 
HETATM   15  H1  UNL     1     -10.330   7.335  74.914  1.00  0.00     0.000 HD 
HETATM   16  H2  UNL     1      -9.760   8.356  73.704  1.00  0.00     0.000 HD 
ENDBRANCH  12  13
ENDBRANCH  10  12
ENDBRANCH   9  10
ENDBRANCH   8   9
ENDBRANCH   6   8
ENDBRANCH   5   6
ENDBRANCH   3   5
TORSDOF 7
ENDMDL
MODEL      159
REMARK 921   NORMALIZED FREE ENERGY PREDICTED BY IDOCK:   -2.27 KCAL/MOL
REMARK 922        TOTAL FREE ENERGY PREDICTED BY IDOCK:   -3.71 KCAL/MOL
REMARK 923 INTER-LIGAND FREE ENERGY PREDICTED BY IDOCK:   -3.56 KCAL/MOL
REMARK 924 INTRA-LIGAND FREE ENERGY PREDICTED BY IDOCK:   -0.15 KCAL/MOL
REMARK 927      BINDING AFFINITY PREDICTED BY RF-SCORE:    0.00 PKD
ROOT
HETATM    1  N   UNL     1     -10.132  10.203  64.132  1.00  0.00    -0.463 NA 
HETATM    2  H2  UNL     1     -11.065   9.797  64.210  1.00  0.00     0.000 HD 
HETATM    3  C   UNL     1     -10.129  11.344  63.212  1.00  0.00    -0.387 C  
HETATM    4  H1  UNL     1      -9.445   9.494  63.877  1.00  0.00     0.000 HD 
ENDROOT
BRANCH   3   5
HETATM    5  C   UNL     1     -11.168  12.414  63.595  1.00  0.00    -0.474 C  
BRANCH   5   6
HETATM    6  N   UNL     1     -10.530  13.593  64.191  1.00  0.00    -0.619 NA 
HETATM    7  H   UNL     1     -10.832  14.453  63.733  1.00  0.00     0.000 HD 
BRANCH   6   8
HETATM    8  C   UNL     1     -10.755  13.646  65.642  1.00  0.00    -0.283 C  
BRANCH   8   9
HETATM    9  C   UNL     1     -11.236  15.048  66.066  1.00  0.00    -0.310 C  
BRANCH   9  10
HETATM   10  N   UNL     1     -10.116  15.900  66.502  1.00  0.00    -0.270 NA 
HETATM   11  H   UNL     1     -10.302  16.890  66.336  1.00  0.00     0.000 HD 
BRANCH  10  12
HETATM   12  C   UNL     1      -9.791  15.630  67.913  1.00  0.00    -0.217 C  
BRANCH  12  13
HETATM   13  C   UNL     1      -8.318  15.213  68.083  1.00  0.00    -0.147 C  
HETATM   14  N   UNL     1      -7.973  14.933  69.481  1.00  0.00    -0.383 NA 
HETATM   15  H1  UNL     1      -6.998  14.657  69.594  1.00  0.00     0.000 HD 
HETATM   16  H2  UNL     1      -8.601  14.237  69.882  1.00  0.00     0.000 HD 
ENDBRANCH  12  13
ENDBRANCH  10  12
ENDBRANCH   9  10
ENDBRANCH   8   9
ENDBRANCH   6   8
ENDBRANCH   5   6
ENDBRANCH   3   5
TORSDOF 7
ENDMDL
MODEL      160
REMARK 921   NORMALIZED FREE ENERGY PREDICTED BY IDOCK:   -2.26 KCAL/MOL
REMARK 922        TOTAL FREE ENERGY PREDICTED BY IDOCK:   -3.69 KCAL/MOL
REMARK 923 INTER-LIGAND FREE ENERGY PREDICTED BY IDOCK:   -3.19 KCAL/MOL
REMARK 924 INTRA-LIGAND FREE ENERGY PREDICTED BY IDOCK:   -0.51 KCAL/MOL
REMARK 927      BINDING AFFINITY PREDICTED BY RF-SCORE:    0.00 PKD
ROOT
HETATM    1  N   UNL     1     -11.280   7.408  73.226  1.00  0.00    -0.596 NA 
HETATM    2  H2  UNL     1     -10.447   7.103  72.724  1.00  0.00     0.000 HD 
HETATM    3  C   UNL     1     -12.266   7.987  72.308  1.00  0.00    -0.318 C  
HETATM    4  H1  UNL     1     -11.037   8.042  73.988  1.00  0.00     0.000 HD 
ENDROOT
BRANCH   3   5
HETATM    5  C   UNL     1     -12.632   7.032  71.157  1.00  0.00    -0.339 C  
BRANCH   5   6
HETATM    6  N   UNL     1     -11.515   6.142  70.821  1.00  0.00    -0.304 NA 
HETATM    7  H   UNL     1     -11.669   5.198  71.174  1.00  0.00     0.000 HD 
BRANCH   6   8
HETATM    8  C   UNL     1     -11.252   6.140  69.375  1.00  0.00    -0.396 C  
BRANCH   8   9
HETATM    9  C   UNL     1     -10.092   7.096  69.032  1.00  0.00    -0.183 C  
BRANCH   9  10
HETATM   10  N   UNL     1     -10.576   8.459  68.748  1.00  0.00    -0.365 NA 
HETATM   11  H   UNL     1     -11.546   8.588  69.042  1.00  0.00     0.000 HD 
BRANCH  10  12
HETATM   12  C   UNL     1      -9.680   9.455  69.359  1.00  0.00    -0.177 C  
BRANCH  12  13
HETATM   13  C   UNL     1      -8.627   8.785  70.263  1.00  0.00    -0.152 C  
HETATM   14  N   UNL     1      -8.873   9.035  71.688  1.00  0.00    -0.357 NA 
HETATM   15  H1  UNL     1      -8.176   8.592  72.286  1.00  0.00     0.000 HD 
HETATM   16  H2  UNL     1      -9.817   8.754  71.952  1.00  0.00     0.000 HD 
ENDBRANCH  12  13
ENDBRANCH  10  12
ENDBRANCH   9  10
ENDBRANCH   8   9
ENDBRANCH   6   8
ENDBRANCH   5   6
ENDBRANCH   3   5
TORSDOF 7
ENDMDL
MODEL      161
REMARK 921   NORMALIZED FREE ENERGY PREDICTED BY IDOCK:   -2.26 KCAL/MOL
REMARK 922        TOTAL FREE ENERGY PREDICTED BY IDOCK:   -3.69 KCAL/MOL
REMARK 923 INTER-LIGAND FREE ENERGY PREDICTED BY IDOCK:   -3.59 KCAL/MOL
REMARK 924 INTRA-LIGAND FREE ENERGY PREDICTED BY IDOCK:   -0.10 KCAL/MOL
REMARK 927      BINDING AFFINITY PREDICTED BY RF-SCORE:    0.00 PKD
ROOT
HETATM    1  N   UNL     1      -7.893  18.246  67.701  1.00  0.00    -0.227 NA 
HETATM    2  H2  UNL     1      -7.919  17.712  66.833  1.00  0.00     0.000 HD 
HETATM    3  C   UNL     1      -9.187  18.200  68.388  1.00  0.00    -0.306 C  
HETATM    4  H1  UNL     1      -7.572  19.200  67.535  1.00  0.00     0.000 HD 
ENDROOT
BRANCH   3   5
HETATM    5  C   UNL     1      -9.671  16.760  68.638  1.00  0.00    -0.259 C  
BRANCH   5   6
HETATM    6  N   UNL     1     -11.091  16.726  69.006  1.00  0.00    -0.243 NA 
HETATM    7  H   UNL     1     -11.609  17.489  68.572  1.00  0.00     0.000 HD 
BRANCH   6   8
HETATM    8  C   UNL     1     -11.691  15.421  68.695  1.00  0.00    -0.354 C  
BRANCH   8   9
HETATM    9  C   UNL     1     -12.227  14.750  69.975  1.00  0.00    -0.333 C  
BRANCH   9  10
HETATM   10  N   UNL     1     -11.564  13.459  70.232  1.00  0.00    -0.526 NA 
HETATM   11  H   UNL     1     -11.911  13.015  71.083  1.00  0.00     0.000 HD 
BRANCH  10  12
HETATM   12  C   UNL     1     -11.696  12.579  69.059  1.00  0.00    -0.318 C  
BRANCH  12  13
HETATM   13  C   UNL     1     -11.945  11.117  69.477  1.00  0.00    -0.355 C  
HETATM   14  N   UNL     1     -11.778  10.180  68.360  1.00  0.00    -0.667 NA 
HETATM   15  H1  UNL     1     -11.943   9.212  68.637  1.00  0.00     0.000 HD 
HETATM   16  H2  UNL     1     -10.862  10.287  67.925  1.00  0.00     0.000 HD 
ENDBRANCH  12  13
ENDBRANCH  10  12
ENDBRANCH   9  10
ENDBRANCH   8   9
ENDBRANCH   6   8
ENDBRANCH   5   6
ENDBRANCH   3   5
TORSDOF 7
ENDMDL
MODEL      162
REMARK 921   NORMALIZED FREE ENERGY PREDICTED BY IDOCK:   -2.25 KCAL/MOL
REMARK 922        TOTAL FREE ENERGY PREDICTED BY IDOCK:   -3.67 KCAL/MOL
REMARK 923 INTER-LIGAND FREE ENERGY PREDICTED BY IDOCK:   -3.49 KCAL/MOL
REMARK 924 INTRA-LIGAND FREE ENERGY PREDICTED BY IDOCK:   -0.18 KCAL/MOL
REMARK 927      BINDING AFFINITY PREDICTED BY RF-SCORE:    0.00 PKD
ROOT
HETATM    1  N   UNL     1      -9.075   7.033  65.590  1.00  0.00    -0.378 NA 
HETATM    2  H2  UNL     1     -10.038   7.095  65.257  1.00  0.00     0.000 HD 
HETATM    3  C   UNL     1      -8.230   8.044  64.950  1.00  0.00    -0.134 C  
HETATM    4  H1  UNL     1      -8.709   6.087  65.475  1.00  0.00     0.000 HD 
ENDROOT
BRANCH   3   5
HETATM    5  C   UNL     1      -8.783   9.471  65.122  1.00  0.00    -0.172 C  
BRANCH   5   6
HETATM    6  N   UNL     1     -10.149   9.457  65.658  1.00  0.00    -0.360 NA 
HETATM    7  H   UNL     1     -10.373   8.560  66.088  1.00  0.00     0.000 HD 
BRANCH   6   8
HETATM    8  C   UNL     1     -10.368  10.572  66.589  1.00  0.00    -0.237 C  
BRANCH   8   9
HETATM    9  C   UNL     1     -10.872  10.053  67.950  1.00  0.00    -0.271 C  
BRANCH   9  10
HETATM   10  N   UNL     1     -12.086  10.764  68.389  1.00  0.00    -0.827 NA 
HETATM   11  H   UNL     1     -12.931  10.218  68.215  1.00  0.00     0.000 HD 
BRANCH  10  12
HETATM   12  C   UNL     1     -11.964  11.153  69.803  1.00  0.00    -0.357 C  
BRANCH  12  13
HETATM   13  C   UNL     1     -12.028  12.683  69.974  1.00  0.00    -0.306 C  
HETATM   14  N   UNL     1     -10.807  13.349  69.507  1.00  0.00    -0.449 NA 
HETATM   15  H1  UNL     1     -10.849  14.362  69.620  1.00  0.00     0.000 HD 
HETATM   16  H2  UNL     1     -10.596  13.095  68.542  1.00  0.00     0.000 HD 
ENDBRANCH  12  13
ENDBRANCH  10  12
ENDBRANCH   9  10
ENDBRANCH   8   9
ENDBRANCH   6   8
ENDBRANCH   5   6
ENDBRANCH   3   5
TORSDOF 7
ENDMDL
MODEL      163
REMARK 921   NORMALIZED FREE ENERGY PREDICTED BY IDOCK:   -2.24 KCAL/MOL
REMARK 922        TOTAL FREE ENERGY PREDICTED BY IDOCK:   -3.66 KCAL/MOL
REMARK 923 INTER-LIGAND FREE ENERGY PREDICTED BY IDOCK:   -3.49 KCAL/MOL
REMARK 924 INTRA-LIGAND FREE ENERGY PREDICTED BY IDOCK:   -0.17 KCAL/MOL
REMARK 927      BINDING AFFINITY PREDICTED BY RF-SCORE:    0.00 PKD
ROOT
HETATM    1  N   UNL     1      -6.555  10.687  64.925  1.00  0.00    -0.357 NA 
HETATM    2  H2  UNL     1      -6.837  11.660  64.806  1.00  0.00     0.000 HD 
HETATM    3  C   UNL     1      -7.720   9.798  64.934  1.00  0.00    -0.127 C  
HETATM    4  H1  UNL     1      -5.970  10.574  65.753  1.00  0.00     0.000 HD 
ENDROOT
BRANCH   3   5
HETATM    5  C   UNL     1      -8.604   9.970  63.685  1.00  0.00    -0.202 C  
BRANCH   5   6
HETATM    6  N   UNL     1      -9.991  10.281  64.046  1.00  0.00    -0.427 NA 
HETATM    7  H   UNL     1     -10.553   9.434  64.137  1.00  0.00     0.000 HD 
BRANCH   6   8
HETATM    8  C   UNL     1     -10.055  11.104  65.261  1.00  0.00    -0.276 C  
BRANCH   8   9
HETATM    9  C   UNL     1     -10.712  12.466  64.961  1.00  0.00    -0.294 C  
BRANCH   9  10
HETATM   10  N   UNL     1      -9.872  13.588  65.416  1.00  0.00    -0.518 NA 
HETATM   11  H   UNL     1      -9.816  14.330  64.717  1.00  0.00     0.000 HD 
BRANCH  10  12
HETATM   12  C   UNL     1     -10.354  14.090  66.713  1.00  0.00    -0.271 C  
BRANCH  12  13
HETATM   13  C   UNL     1     -11.888  14.230  66.729  1.00  0.00    -0.426 C  
HETATM   14  N   UNL     1     -12.401  14.623  68.046  1.00  0.00    -0.589 NA 
HETATM   15  H1  UNL     1     -13.417  14.715  68.057  1.00  0.00     0.000 HD 
HETATM   16  H2  UNL     1     -11.951  15.476  68.376  1.00  0.00     0.000 HD 
ENDBRANCH  12  13
ENDBRANCH  10  12
ENDBRANCH   9  10
ENDBRANCH   8   9
ENDBRANCH   6   8
ENDBRANCH   5   6
ENDBRANCH   3   5
TORSDOF 7
ENDMDL
MODEL      164
REMARK 921   NORMALIZED FREE ENERGY PREDICTED BY IDOCK:   -2.23 KCAL/MOL
REMARK 922        TOTAL FREE ENERGY PREDICTED BY IDOCK:   -3.65 KCAL/MOL
REMARK 923 INTER-LIGAND FREE ENERGY PREDICTED BY IDOCK:   -3.46 KCAL/MOL
REMARK 924 INTRA-LIGAND FREE ENERGY PREDICTED BY IDOCK:   -0.20 KCAL/MOL
REMARK 927      BINDING AFFINITY PREDICTED BY RF-SCORE:    0.00 PKD
ROOT
HETATM    1  N   UNL     1      -7.938  13.686  69.040  1.00  0.00    -0.337 NA 
HETATM    2  H2  UNL     1      -8.461  13.273  69.812  1.00  0.00     0.000 HD 
HETATM    3  C   UNL     1      -8.754  13.751  67.825  1.00  0.00    -0.182 C  
HETATM    4  H1  UNL     1      -7.056  13.195  68.893  1.00  0.00     0.000 HD 
ENDROOT
BRANCH   3   5
HETATM    5  C   UNL     1     -10.086  14.491  68.048  1.00  0.00    -0.226 C  
BRANCH   5   6
HETATM    6  N   UNL     1     -10.459  15.292  66.876  1.00  0.00    -0.283 NA 
HETATM    7  H   UNL     1     -11.315  14.945  66.443  1.00  0.00     0.000 HD 
BRANCH   6   8
HETATM    8  C   UNL     1     -10.565  16.717  67.217  1.00  0.00    -0.275 C  
BRANCH   8   9
HETATM    9  C   UNL     1     -10.616  16.909  68.746  1.00  0.00    -0.355 C  
BRANCH   9  10
HETATM   10  N   UNL     1     -10.398  18.316  69.125  1.00  0.00    -0.419 NA 
HETATM   11  H   UNL     1     -10.079  18.405  70.091  1.00  0.00     0.000 HD 
BRANCH  10  12
HETATM   12  C   UNL     1      -9.474  18.961  68.178  1.00  0.00    -0.332 C  
BRANCH  12  13
HETATM   13  C   UNL     1     -10.029  20.308  67.678  1.00  0.00    -0.410 C  
HETATM   14  N   UNL     1      -9.528  20.660  66.345  1.00  0.00    -0.638 NA 
HETATM   15  H1  UNL     1      -9.896  21.552  66.014  1.00  0.00     0.000 HD 
HETATM   16  H2  UNL     1      -9.713  19.914  65.674  1.00  0.00     0.000 HD 
ENDBRANCH  12  13
ENDBRANCH  10  12
ENDBRANCH   9  10
ENDBRANCH   8   9
ENDBRANCH   6   8
ENDBRANCH   5   6
ENDBRANCH   3   5
TORSDOF 7
ENDMDL
MODEL      165
REMARK 921   NORMALIZED FREE ENERGY PREDICTED BY IDOCK:   -2.22 KCAL/MOL
REMARK 922        TOTAL FREE ENERGY PREDICTED BY IDOCK:   -3.64 KCAL/MOL
REMARK 923 INTER-LIGAND FREE ENERGY PREDICTED BY IDOCK:   -3.07 KCAL/MOL
REMARK 924 INTRA-LIGAND FREE ENERGY PREDICTED BY IDOCK:   -0.57 KCAL/MOL
REMARK 927      BINDING AFFINITY PREDICTED BY RF-SCORE:    0.00 PKD
ROOT
HETATM    1  N   UNL     1      -8.160  15.344  67.930  1.00  0.00    -0.135 NA 
HETATM    2  H2  UNL     1      -8.437  16.044  68.618  1.00  0.00     0.000 HD 
HETATM    3  C   UNL     1      -8.141  15.911  66.578  1.00  0.00    -0.235 C  
HETATM    4  H1  UNL     1      -8.748  14.512  67.996  1.00  0.00     0.000 HD 
ENDROOT
BRANCH   3   5
HETATM    5  C   UNL     1      -7.255  17.166  66.478  1.00  0.00    -0.273 C  
BRANCH   5   6
HETATM    6  N   UNL     1      -7.880  18.201  65.648  1.00  0.00    -0.472 NA 
HETATM    7  H   UNL     1      -8.559  17.802  65.000  1.00  0.00     0.000 HD 
BRANCH   6   8
HETATM    8  C   UNL     1      -8.479  19.258  66.474  1.00  0.00    -0.325 C  
BRANCH   8   9
HETATM    9  C   UNL     1      -9.991  19.376  66.194  1.00  0.00    -0.425 C  
BRANCH   9  10
HETATM   10  N   UNL     1     -10.789  19.139  67.410  1.00  0.00    -0.481 NA 
HETATM   11  H   UNL     1     -11.357  18.294  67.335  1.00  0.00     0.000 HD 
BRANCH  10  12
HETATM   12  C   UNL     1      -9.916  19.111  68.595  1.00  0.00    -0.419 C  
BRANCH  12  13
HETATM   13  C   UNL     1     -10.132  17.832  69.424  1.00  0.00    -0.019 C  
HETATM   14  N   UNL     1     -10.969  16.848  68.728  1.00  0.00    -0.282 NA 
HETATM   15  H1  UNL     1     -11.112  16.001  69.277  1.00  0.00     0.000 HD 
HETATM   16  H2  UNL     1     -10.589  16.630  67.807  1.00  0.00     0.000 HD 
ENDBRANCH  12  13
ENDBRANCH  10  12
ENDBRANCH   9  10
ENDBRANCH   8   9
ENDBRANCH   6   8
ENDBRANCH   5   6
ENDBRANCH   3   5
TORSDOF 7
ENDMDL
MODEL      166
REMARK 921   NORMALIZED FREE ENERGY PREDICTED BY IDOCK:   -2.22 KCAL/MOL
REMARK 922        TOTAL FREE ENERGY PREDICTED BY IDOCK:   -3.64 KCAL/MOL
REMARK 923 INTER-LIGAND FREE ENERGY PREDICTED BY IDOCK:   -3.19 KCAL/MOL
REMARK 924 INTRA-LIGAND FREE ENERGY PREDICTED BY IDOCK:   -0.45 KCAL/MOL
REMARK 927      BINDING AFFINITY PREDICTED BY RF-SCORE:    0.00 PKD
ROOT
HETATM    1  N   UNL     1     -12.271  15.197  68.954  1.00  0.00    -0.600 NA 
HETATM    2  H2  UNL     1     -11.990  15.186  67.974  1.00  0.00     0.000 HD 
HETATM    3  C   UNL     1     -11.215  14.653  69.812  1.00  0.00    -0.259 C  
HETATM    4  H1  UNL     1     -13.164  14.721  69.084  1.00  0.00     0.000 HD 
ENDROOT
BRANCH   3   5
HETATM    5  C   UNL     1      -9.867  15.371  69.615  1.00  0.00    -0.258 C  
BRANCH   5   6
HETATM    6  N   UNL     1     -10.018  16.584  68.805  1.00  0.00    -0.243 NA 
HETATM    7  H   UNL     1     -10.262  17.390  69.379  1.00  0.00     0.000 HD 
BRANCH   6   8
HETATM    8  C   UNL     1      -8.815  16.841  68.000  1.00  0.00    -0.216 C  
BRANCH   8   9
HETATM    9  C   UNL     1      -8.596  15.711  66.974  1.00  0.00    -0.224 C  
BRANCH   9  10
HETATM   10  N   UNL     1      -9.535  15.813  65.843  1.00  0.00    -0.347 NA 
HETATM   11  H   UNL     1      -9.048  15.932  64.953  1.00  0.00     0.000 HD 
BRANCH  10  12
HETATM   12  C   UNL     1     -10.437  14.649  65.825  1.00  0.00    -0.325 C  
BRANCH  12  13
HETATM   13  C   UNL     1      -9.770  13.410  66.451  1.00  0.00    -0.277 C  
HETATM   14  N   UNL     1      -9.519  12.352  65.465  1.00  0.00    -0.439 NA 
HETATM   15  H1  UNL     1      -9.078  11.531  65.880  1.00  0.00     0.000 HD 
HETATM   16  H2  UNL     1      -8.974  12.704  64.679  1.00  0.00     0.000 HD 
ENDBRANCH  12  13
ENDBRANCH  10  12
ENDBRANCH   9  10
ENDBRANCH   8   9
ENDBRANCH   6   8
ENDBRANCH   5   6
ENDBRANCH   3   5
TORSDOF 7
ENDMDL
MODEL      167
REMARK 921   NORMALIZED FREE ENERGY PREDICTED BY IDOCK:   -2.22 KCAL/MOL
REMARK 922        TOTAL FREE ENERGY PREDICTED BY IDOCK:   -3.64 KCAL/MOL
REMARK 923 INTER-LIGAND FREE ENERGY PREDICTED BY IDOCK:   -3.52 KCAL/MOL
REMARK 924 INTRA-LIGAND FREE ENERGY PREDICTED BY IDOCK:   -0.11 KCAL/MOL
REMARK 927      BINDING AFFINITY PREDICTED BY RF-SCORE:    0.00 PKD
ROOT
HETATM    1  N   UNL     1     -14.215   8.904  73.219  1.00  0.00    -1.237 NA 
HETATM    2  H2  UNL     1     -15.048   9.051  72.650  1.00  0.00     0.000 HD 
HETATM    3  C   UNL     1     -12.996   9.063  72.421  1.00  0.00    -0.405 C  
HETATM    4  H1  UNL     1     -14.254   8.004  73.698  1.00  0.00     0.000 HD 
ENDROOT
BRANCH   3   5
HETATM    5  C   UNL     1     -12.938  10.421  71.698  1.00  0.00    -0.475 C  
BRANCH   5   6
HETATM    6  N   UNL     1     -11.714  10.554  70.900  1.00  0.00    -0.347 NA 
HETATM    7  H   UNL     1     -11.256  11.450  71.064  1.00  0.00     0.000 HD 
BRANCH   6   8
HETATM    8  C   UNL     1     -10.799   9.429  71.137  1.00  0.00    -0.357 C  
BRANCH   8   9
HETATM    9  C   UNL     1      -9.707   9.378  70.049  1.00  0.00    -0.224 C  
BRANCH   9  10
HETATM   10  N   UNL     1      -8.940   8.121  70.106  1.00  0.00    -0.145 NA 
HETATM   11  H   UNL     1      -9.338   7.461  70.776  1.00  0.00     0.000 HD 
BRANCH  10  12
HETATM   12  C   UNL     1      -8.822   7.536  68.761  1.00  0.00    -0.131 C  
BRANCH  12  13
HETATM   13  C   UNL     1      -7.582   8.072  68.020  1.00  0.00    -0.112 C  
HETATM   14  N   UNL     1      -7.421   7.472  66.690  1.00  0.00    -0.090 NA 
HETATM   15  H1  UNL     1      -6.600   7.826  66.200  1.00  0.00     0.000 HD 
HETATM   16  H2  UNL     1      -8.265   7.591  66.130  1.00  0.00     0.000 HD 
ENDBRANCH  12  13
ENDBRANCH  10  12
ENDBRANCH   9  10
ENDBRANCH   8   9
ENDBRANCH   6   8
ENDBRANCH   5   6
ENDBRANCH   3   5
TORSDOF 7
ENDMDL
MODEL      168
REMARK 921   NORMALIZED FREE ENERGY PREDICTED BY IDOCK:   -2.22 KCAL/MOL
REMARK 922        TOTAL FREE ENERGY PREDICTED BY IDOCK:   -3.63 KCAL/MOL
REMARK 923 INTER-LIGAND FREE ENERGY PREDICTED BY IDOCK:   -3.48 KCAL/MOL
REMARK 924 INTRA-LIGAND FREE ENERGY PREDICTED BY IDOCK:   -0.15 KCAL/MOL
REMARK 927      BINDING AFFINITY PREDICTED BY RF-SCORE:    0.00 PKD
ROOT
HETATM    1  N   UNL     1      -8.814   8.323  72.812  1.00  0.00    -0.228 NA 
HETATM    2  H2  UNL     1      -8.922   9.272  73.169  1.00  0.00     0.000 HD 
HETATM    3  C   UNL     1      -9.811   7.422  73.396  1.00  0.00    -0.294 C  
HETATM    4  H1  UNL     1      -7.859   7.988  72.945  1.00  0.00     0.000 HD 
ENDROOT
BRANCH   3   5
HETATM    5  C   UNL     1     -11.252   7.928  73.196  1.00  0.00    -0.145 C  
BRANCH   5   6
HETATM    6  N   UNL     1     -12.011   7.048  72.301  1.00  0.00    -0.446 NA 
HETATM    7  H   UNL     1     -12.587   6.388  72.824  1.00  0.00     0.000 HD 
BRANCH   6   8
HETATM    8  C   UNL     1     -12.814   7.824  71.345  1.00  0.00    -0.298 C  
BRANCH   8   9
HETATM    9  C   UNL     1     -13.060   9.251  71.873  1.00  0.00    -0.415 C  
BRANCH   9  10
HETATM   10  N   UNL     1     -13.232  10.216  70.774  1.00  0.00    -0.558 NA 
HETATM   11  H   UNL     1     -14.217  10.403  70.581  1.00  0.00     0.000 HD 
BRANCH  10  12
HETATM   12  C   UNL     1     -12.484  11.452  71.060  1.00  0.00    -0.383 C  
BRANCH  12  13
HETATM   13  C   UNL     1     -13.259  12.367  72.027  1.00  0.00    -0.409 C  
HETATM   14  N   UNL     1     -13.500  13.701  71.463  1.00  0.00    -0.300 NA 
HETATM   15  H1  UNL     1     -14.012  14.307  72.103  1.00  0.00     0.000 HD 
HETATM   16  H2  UNL     1     -13.969  13.638  70.560  1.00  0.00     0.000 HD 
ENDBRANCH  12  13
ENDBRANCH  10  12
ENDBRANCH   9  10
ENDBRANCH   8   9
ENDBRANCH   6   8
ENDBRANCH   5   6
ENDBRANCH   3   5
TORSDOF 7
ENDMDL
MODEL      169
REMARK 921   NORMALIZED FREE ENERGY PREDICTED BY IDOCK:   -2.21 KCAL/MOL
REMARK 922        TOTAL FREE ENERGY PREDICTED BY IDOCK:   -3.62 KCAL/MOL
REMARK 923 INTER-LIGAND FREE ENERGY PREDICTED BY IDOCK:   -3.10 KCAL/MOL
REMARK 924 INTRA-LIGAND FREE ENERGY PREDICTED BY IDOCK:   -0.52 KCAL/MOL
REMARK 927      BINDING AFFINITY PREDICTED BY RF-SCORE:    0.00 PKD
ROOT
HETATM    1  N   UNL     1      -7.078  14.387  70.156  1.00  0.00    -0.398 NA 
HETATM    2  H2  UNL     1      -7.497  13.503  69.868  1.00  0.00     0.000 HD 
HETATM    3  C   UNL     1      -7.248  15.413  69.123  1.00  0.00    -0.171 C  
HETATM    4  H1  UNL     1      -6.102  14.260  70.424  1.00  0.00     0.000 HD 
ENDROOT
BRANCH   3   5
HETATM    5  C   UNL     1      -8.721  15.604  68.717  1.00  0.00    -0.197 C  
BRANCH   5   6
HETATM    6  N   UNL     1      -9.109  17.018  68.751  1.00  0.00    -0.267 NA 
HETATM    7  H   UNL     1      -8.373  17.618  68.379  1.00  0.00     0.000 HD 
BRANCH   6   8
HETATM    8  C   UNL     1     -10.385  17.238  68.057  1.00  0.00    -0.353 C  
BRANCH   8   9
HETATM    9  C   UNL     1     -10.436  18.653  67.447  1.00  0.00    -0.423 C  
BRANCH   9  10
HETATM   10  N   UNL     1      -9.800  18.695  66.118  1.00  0.00    -0.489 NA 
HETATM   11  H   UNL     1     -10.469  18.930  65.383  1.00  0.00     0.000 HD 
BRANCH  10  12
HETATM   12  C   UNL     1      -8.653  19.618  66.133  1.00  0.00    -0.333 C  
BRANCH  12  13
HETATM   13  C   UNL     1      -7.316  18.855  66.102  1.00  0.00    -0.266 C  
HETATM   14  N   UNL     1      -6.797  18.580  67.447  1.00  0.00    -0.202 NA 
HETATM   15  H1  UNL     1      -5.911  18.075  67.426  1.00  0.00     0.000 HD 
HETATM   16  H2  UNL     1      -7.488  18.089  68.014  1.00  0.00     0.000 HD 
ENDBRANCH  12  13
ENDBRANCH  10  12
ENDBRANCH   9  10
ENDBRANCH   8   9
ENDBRANCH   6   8
ENDBRANCH   5   6
ENDBRANCH   3   5
TORSDOF 7
ENDMDL
MODEL      170
REMARK 921   NORMALIZED FREE ENERGY PREDICTED BY IDOCK:   -2.21 KCAL/MOL
REMARK 922        TOTAL FREE ENERGY PREDICTED BY IDOCK:   -3.62 KCAL/MOL
REMARK 923 INTER-LIGAND FREE ENERGY PREDICTED BY IDOCK:   -3.47 KCAL/MOL
REMARK 924 INTRA-LIGAND FREE ENERGY PREDICTED BY IDOCK:   -0.15 KCAL/MOL
REMARK 927      BINDING AFFINITY PREDICTED BY RF-SCORE:    0.00 PKD
ROOT
HETATM    1  N   UNL     1     -12.417   8.380  70.741  1.00  0.00    -0.489 NA 
HETATM    2  H2  UNL     1     -11.471   8.200  71.078  1.00  0.00     0.000 HD 
HETATM    3  C   UNL     1     -12.979   9.582  71.365  1.00  0.00    -0.368 C  
HETATM    4  H1  UNL     1     -13.012   7.561  70.865  1.00  0.00     0.000 HD 
ENDROOT
BRANCH   3   5
HETATM    5  C   UNL     1     -12.081  10.818  71.179  1.00  0.00    -0.309 C  
BRANCH   5   6
HETATM    6  N   UNL     1     -12.263  11.421  69.853  1.00  0.00    -0.293 NA 
HETATM    7  H   UNL     1     -13.145  11.135  69.430  1.00  0.00     0.000 HD 
BRANCH   6   8
HETATM    8  C   UNL     1     -12.142  12.884  69.912  1.00  0.00    -0.265 C  
BRANCH   8   9
HETATM    9  C   UNL     1     -11.335  13.411  68.709  1.00  0.00    -0.292 C  
BRANCH   9  10
HETATM   10  N   UNL     1      -9.991  12.808  68.648  1.00  0.00    -0.391 NA 
HETATM   11  H   UNL     1     -10.031  11.788  68.643  1.00  0.00     0.000 HD 
BRANCH  10  12
HETATM   12  C   UNL     1      -9.249  13.336  67.491  1.00  0.00    -0.213 C  
BRANCH  12  13
HETATM   13  C   UNL     1      -9.825  12.807  66.164  1.00  0.00    -0.267 C  
HETATM   14  N   UNL     1      -9.972  13.865  65.157  1.00  0.00    -0.583 NA 
HETATM   15  H1  UNL     1     -10.353  13.515  64.278  1.00  0.00     0.000 HD 
HETATM   16  H2  UNL     1      -9.089  14.353  65.006  1.00  0.00     0.000 HD 
ENDBRANCH  12  13
ENDBRANCH  10  12
ENDBRANCH   9  10
ENDBRANCH   8   9
ENDBRANCH   6   8
ENDBRANCH   5   6
ENDBRANCH   3   5
TORSDOF 7
ENDMDL
MODEL      171
REMARK 921   NORMALIZED FREE ENERGY PREDICTED BY IDOCK:   -2.20 KCAL/MOL
REMARK 922        TOTAL FREE ENERGY PREDICTED BY IDOCK:   -3.60 KCAL/MOL
REMARK 923 INTER-LIGAND FREE ENERGY PREDICTED BY IDOCK:   -3.34 KCAL/MOL
REMARK 924 INTRA-LIGAND FREE ENERGY PREDICTED BY IDOCK:   -0.27 KCAL/MOL
REMARK 927      BINDING AFFINITY PREDICTED BY RF-SCORE:    0.00 PKD
ROOT
HETATM    1  N   UNL     1     -12.526   7.104  70.708  1.00  0.00    -0.591 NA 
HETATM    2  H2  UNL     1     -11.638   6.611  70.796  1.00  0.00     0.000 HD 
HETATM    3  C   UNL     1     -12.465   8.419  71.353  1.00  0.00    -0.288 C  
HETATM    4  H1  UNL     1     -13.298   6.534  71.056  1.00  0.00     0.000 HD 
ENDROOT
BRANCH   3   5
HETATM    5  C   UNL     1     -11.300   9.279  70.829  1.00  0.00    -0.287 C  
BRANCH   5   6
HETATM    6  N   UNL     1     -11.695  10.058  69.650  1.00  0.00    -0.453 NA 
HETATM    7  H   UNL     1     -12.165  10.924  69.914  1.00  0.00     0.000 HD 
BRANCH   6   8
HETATM    8  C   UNL     1     -10.546  10.314  68.771  1.00  0.00    -0.209 C  
BRANCH   8   9
HETATM    9  C   UNL     1     -10.726   9.597  67.418  1.00  0.00    -0.241 C  
BRANCH   9  10
HETATM   10  N   UNL     1      -9.516   8.848  67.034  1.00  0.00    -0.157 NA 
HETATM   11  H   UNL     1      -8.662   9.357  67.268  1.00  0.00     0.000 HD 
BRANCH  10  12
HETATM   12  C   UNL     1      -9.537   7.505  67.636  1.00  0.00    -0.143 C  
BRANCH  12  13
HETATM   13  C   UNL     1     -10.856   6.771  67.328  1.00  0.00    -0.373 C  
HETATM   14  N   UNL     1     -10.710   5.785  66.251  1.00  0.00    -0.596 NA 
HETATM   15  H1  UNL     1     -11.583   5.299  66.047  1.00  0.00     0.000 HD 
HETATM   16  H2  UNL     1      -9.960   5.125  66.456  1.00  0.00     0.000 HD 
ENDBRANCH  12  13
ENDBRANCH  10  12
ENDBRANCH   9  10
ENDBRANCH   8   9
ENDBRANCH   6   8
ENDBRANCH   5   6
ENDBRANCH   3   5
TORSDOF 7
ENDMDL
MODEL      172
REMARK 921   NORMALIZED FREE ENERGY PREDICTED BY IDOCK:   -2.20 KCAL/MOL
REMARK 922        TOTAL FREE ENERGY PREDICTED BY IDOCK:   -3.60 KCAL/MOL
REMARK 923 INTER-LIGAND FREE ENERGY PREDICTED BY IDOCK:   -3.14 KCAL/MOL
REMARK 924 INTRA-LIGAND FREE ENERGY PREDICTED BY IDOCK:   -0.47 KCAL/MOL
REMARK 927      BINDING AFFINITY PREDICTED BY RF-SCORE:    0.00 PKD
ROOT
HETATM    1  N   UNL     1      -9.100   6.547  69.377  1.00  0.00    -0.141 NA 
HETATM    2  H2  UNL     1      -9.775   7.228  69.725  1.00  0.00     0.000 HD 
HETATM    3  C   UNL     1      -7.726   6.995  69.620  1.00  0.00    -0.110 C  
HETATM    4  H1  UNL     1      -9.272   6.330  68.395  1.00  0.00     0.000 HD 
ENDROOT
BRANCH   3   5
HETATM    5  C   UNL     1      -7.466   7.324  71.101  1.00  0.00    -0.079 C  
BRANCH   5   6
HETATM    6  N   UNL     1      -8.342   8.402  71.574  1.00  0.00    -0.140 NA 
HETATM    7  H   UNL     1      -8.990   8.704  70.848  1.00  0.00     0.000 HD 
BRANCH   6   8
HETATM    8  C   UNL     1      -9.051   8.013  72.801  1.00  0.00    -0.238 C  
BRANCH   8   9
HETATM    9  C   UNL     1     -10.570   8.214  72.638  1.00  0.00    -0.344 C  
BRANCH   9  10
HETATM   10  N   UNL     1     -11.158   7.209  71.735  1.00  0.00    -0.233 NA 
HETATM   11  H   UNL     1     -10.920   6.257  72.016  1.00  0.00     0.000 HD 
BRANCH  10  12
HETATM   12  C   UNL     1     -12.614   7.405  71.636  1.00  0.00    -0.358 C  
BRANCH  12  13
HETATM   13  C   UNL     1     -13.002   8.876  71.877  1.00  0.00    -0.382 C  
HETATM   14  N   UNL     1     -14.077   9.016  72.866  1.00  0.00    -1.110 NA 
HETATM   15  H1  UNL     1     -14.334   9.990  73.026  1.00  0.00     0.000 HD 
HETATM   16  H2  UNL     1     -13.835   8.552  73.741  1.00  0.00     0.000 HD 
ENDBRANCH  12  13
ENDBRANCH  10  12
ENDBRANCH   9  10
ENDBRANCH   8   9
ENDBRANCH   6   8
ENDBRANCH   5   6
ENDBRANCH   3   5
TORSDOF 7
ENDMDL
MODEL      173
REMARK 921   NORMALIZED FREE ENERGY PREDICTED BY IDOCK:   -2.19 KCAL/MOL
REMARK 922        TOTAL FREE ENERGY PREDICTED BY IDOCK:   -3.59 KCAL/MOL
REMARK 923 INTER-LIGAND FREE ENERGY PREDICTED BY IDOCK:   -3.43 KCAL/MOL
REMARK 924 INTRA-LIGAND FREE ENERGY PREDICTED BY IDOCK:   -0.17 KCAL/MOL
REMARK 927      BINDING AFFINITY PREDICTED BY RF-SCORE:    0.00 PKD
ROOT
HETATM    1  N   UNL     1      -9.329  10.857  69.205  1.00  0.00    -0.378 NA 
HETATM    2  H2  UNL     1      -9.723  11.199  70.081  1.00  0.00     0.000 HD 
HETATM    3  C   UNL     1     -10.001  11.463  68.052  1.00  0.00    -0.182 C  
HETATM    4  H1  UNL     1      -9.340   9.837  69.172  1.00  0.00     0.000 HD 
ENDROOT
BRANCH   3   5
HETATM    5  C   UNL     1      -9.985  13.002  68.102  1.00  0.00    -0.231 C  
BRANCH   5   6
HETATM    6  N   UNL     1     -11.107  13.576  67.351  1.00  0.00    -0.275 NA 
HETATM    7  H   UNL     1     -12.002  13.219  67.683  1.00  0.00     0.000 HD 
BRANCH   6   8
HETATM    8  C   UNL     1     -11.069  15.045  67.375  1.00  0.00    -0.324 C  
BRANCH   8   9
HETATM    9  C   UNL     1     -11.556  15.579  68.736  1.00  0.00    -0.378 C  
BRANCH   9  10
HETATM   10  N   UNL     1     -10.804  16.776  69.152  1.00  0.00    -0.316 NA 
HETATM   11  H   UNL     1     -10.170  16.578  69.927  1.00  0.00     0.000 HD 
BRANCH  10  12
HETATM   12  C   UNL     1     -10.098  17.359  67.999  1.00  0.00    -0.326 C  
BRANCH  12  13
HETATM   13  C   UNL     1     -10.522  18.820  67.759  1.00  0.00    -0.420 C  
HETATM   14  N   UNL     1     -10.245  19.680  68.915  1.00  0.00    -0.599 NA 
HETATM   15  H1  UNL     1     -10.526  20.648  68.756  1.00  0.00     0.000 HD 
HETATM   16  H2  UNL     1      -9.265  19.622  69.189  1.00  0.00     0.000 HD 
ENDBRANCH  12  13
ENDBRANCH  10  12
ENDBRANCH   9  10
ENDBRANCH   8   9
ENDBRANCH   6   8
ENDBRANCH   5   6
ENDBRANCH   3   5
TORSDOF 7
ENDMDL
MODEL      174
REMARK 921   NORMALIZED FREE ENERGY PREDICTED BY IDOCK:   -2.18 KCAL/MOL
REMARK 922        TOTAL FREE ENERGY PREDICTED BY IDOCK:   -3.57 KCAL/MOL
REMARK 923 INTER-LIGAND FREE ENERGY PREDICTED BY IDOCK:   -3.40 KCAL/MOL
REMARK 924 INTRA-LIGAND FREE ENERGY PREDICTED BY IDOCK:   -0.17 KCAL/MOL
REMARK 927      BINDING AFFINITY PREDICTED BY RF-SCORE:    0.00 PKD
ROOT
HETATM    1  N   UNL     1     -11.251  11.799  63.705  1.00  0.00    -0.410 NA 
HETATM    2  H2  UNL     1     -10.447  11.184  63.832  1.00  0.00     0.000 HD 
HETATM    3  C   UNL     1     -11.698  12.353  64.987  1.00  0.00    -0.371 C  
HETATM    4  H1  UNL     1     -12.001  11.323  63.203  1.00  0.00     0.000 HD 
ENDROOT
BRANCH   3   5
HETATM    5  C   UNL     1     -10.567  13.071  65.745  1.00  0.00    -0.277 C  
BRANCH   5   6
HETATM    6  N   UNL     1      -9.935  14.104  64.917  1.00  0.00    -0.578 NA 
HETATM    7  H   UNL     1     -10.289  14.086  63.962  1.00  0.00     0.000 HD 
BRANCH   6   8
HETATM    8  C   UNL     1     -10.080  15.435  65.522  1.00  0.00    -0.373 C  
BRANCH   8   9
HETATM    9  C   UNL     1      -9.945  15.354  67.055  1.00  0.00    -0.238 C  
BRANCH   9  10
HETATM   10  N   UNL     1      -9.308  16.561  67.611  1.00  0.00    -0.212 NA 
HETATM   11  H   UNL     1      -9.015  16.426  68.580  1.00  0.00     0.000 HD 
BRANCH  10  12
HETATM   12  C   UNL     1      -8.190  16.986  66.753  1.00  0.00    -0.238 C  
BRANCH  12  13
HETATM   13  C   UNL     1      -8.279  18.486  66.413  1.00  0.00    -0.268 C  
HETATM   14  N   UNL     1      -7.325  18.882  65.371  1.00  0.00    -0.440 NA 
HETATM   15  H1  UNL     1      -7.384  19.875  65.146  1.00  0.00     0.000 HD 
HETATM   16  H2  UNL     1      -7.435  18.308  64.535  1.00  0.00     0.000 HD 
ENDBRANCH  12  13
ENDBRANCH  10  12
ENDBRANCH   9  10
ENDBRANCH   8   9
ENDBRANCH   6   8
ENDBRANCH   5   6
ENDBRANCH   3   5
TORSDOF 7
ENDMDL
MODEL      175
REMARK 921   NORMALIZED FREE ENERGY PREDICTED BY IDOCK:   -2.17 KCAL/MOL
REMARK 922        TOTAL FREE ENERGY PREDICTED BY IDOCK:   -3.57 KCAL/MOL
REMARK 923 INTER-LIGAND FREE ENERGY PREDICTED BY IDOCK:   -3.41 KCAL/MOL
REMARK 924 INTRA-LIGAND FREE ENERGY PREDICTED BY IDOCK:   -0.16 KCAL/MOL
REMARK 927      BINDING AFFINITY PREDICTED BY RF-SCORE:    0.00 PKD
ROOT
HETATM    1  N   UNL     1      -7.448  19.611  68.832  1.00  0.00    -0.347 NA 
HETATM    2  H2  UNL     1      -7.546  20.493  69.334  1.00  0.00     0.000 HD 
HETATM    3  C   UNL     1      -8.758  19.041  68.506  1.00  0.00    -0.357 C  
HETATM    4  H1  UNL     1      -6.856  18.960  69.349  1.00  0.00     0.000 HD 
ENDROOT
BRANCH   3   5
HETATM    5  C   UNL     1      -9.651  20.023  67.727  1.00  0.00    -0.384 C  
BRANCH   5   6
HETATM    6  N   UNL     1     -10.813  19.346  67.141  1.00  0.00    -0.488 NA 
HETATM    7  H   UNL     1     -11.602  19.982  67.032  1.00  0.00     0.000 HD 
BRANCH   6   8
HETATM    8  C   UNL     1     -10.466  18.694  65.871  1.00  0.00    -0.356 C  
BRANCH   8   9
HETATM    9  C   UNL     1     -10.777  17.185  65.931  1.00  0.00    -0.132 C  
BRANCH   9  10
HETATM   10  N   UNL     1      -9.562  16.371  65.752  1.00  0.00    -0.500 NA 
HETATM   11  H   UNL     1      -8.910  16.485  66.529  1.00  0.00     0.000 HD 
BRANCH  10  12
HETATM   12  C   UNL     1      -9.923  14.960  65.539  1.00  0.00    -0.358 C  
BRANCH  12  13
HETATM   13  C   UNL     1      -9.263  14.045  66.588  1.00  0.00    -0.244 C  
HETATM   14  N   UNL     1     -10.209  13.086  67.169  1.00  0.00    -0.241 NA 
HETATM   15  H1  UNL     1      -9.772  12.480  67.863  1.00  0.00     0.000 HD 
HETATM   16  H2  UNL     1     -10.670  12.539  66.442  1.00  0.00     0.000 HD 
ENDBRANCH  12  13
ENDBRANCH  10  12
ENDBRANCH   9  10
ENDBRANCH   8   9
ENDBRANCH   6   8
ENDBRANCH   5   6
ENDBRANCH   3   5
TORSDOF 7
ENDMDL
MODEL      176
REMARK 921   NORMALIZED FREE ENERGY PREDICTED BY IDOCK:   -2.17 KCAL/MOL
REMARK 922        TOTAL FREE ENERGY PREDICTED BY IDOCK:   -3.56 KCAL/MOL
REMARK 923 INTER-LIGAND FREE ENERGY PREDICTED BY IDOCK:   -3.20 KCAL/MOL
REMARK 924 INTRA-LIGAND FREE ENERGY PREDICTED BY IDOCK:   -0.36 KCAL/MOL
REMARK 927      BINDING AFFINITY PREDICTED BY RF-SCORE:    0.00 PKD
ROOT
HETATM    1  N   UNL     1     -10.636  19.185  66.137  1.00  0.00    -0.452 NA 
HETATM    2  H2  UNL     1     -10.604  18.306  65.621  1.00  0.00     0.000 HD 
HETATM    3  C   UNL     1     -10.769  18.948  67.577  1.00  0.00    -0.434 C  
HETATM    4  H1  UNL     1     -11.367  19.797  65.773  1.00  0.00     0.000 HD 
ENDROOT
BRANCH   3   5
HETATM    5  C   UNL     1      -9.667  18.024  68.127  1.00  0.00    -0.322 C  
BRANCH   5   6
HETATM    6  N   UNL     1     -10.060  16.612  68.050  1.00  0.00    -0.253 NA 
HETATM    7  H   UNL     1      -9.792  16.198  67.157  1.00  0.00     0.000 HD 
BRANCH   6   8
HETATM    8  C   UNL     1      -9.524  15.846  69.183  1.00  0.00    -0.260 C  
BRANCH   8   9
HETATM    9  C   UNL     1      -9.650  14.332  68.924  1.00  0.00    -0.084 C  
BRANCH   9  10
HETATM   10  N   UNL     1     -10.982  13.825  69.298  1.00  0.00    -0.393 NA 
HETATM   11  H   UNL     1     -11.634  14.583  69.504  1.00  0.00     0.000 HD 
BRANCH  10  12
HETATM   12  C   UNL     1     -11.496  12.926  68.251  1.00  0.00    -0.311 C  
BRANCH  12  13
HETATM   13  C   UNL     1     -11.500  13.612  66.872  1.00  0.00    -0.345 C  
HETATM   14  N   UNL     1     -12.377  14.788  66.835  1.00  0.00    -0.341 NA 
HETATM   15  H1  UNL     1     -12.380  15.242  65.922  1.00  0.00     0.000 HD 
HETATM   16  H2  UNL     1     -12.137  15.449  67.574  1.00  0.00     0.000 HD 
ENDBRANCH  12  13
ENDBRANCH  10  12
ENDBRANCH   9  10
ENDBRANCH   8   9
ENDBRANCH   6   8
ENDBRANCH   5   6
ENDBRANCH   3   5
TORSDOF 7
ENDMDL
MODEL      177
REMARK 921   NORMALIZED FREE ENERGY PREDICTED BY IDOCK:   -2.16 KCAL/MOL
REMARK 922        TOTAL FREE ENERGY PREDICTED BY IDOCK:   -3.55 KCAL/MOL
REMARK 923 INTER-LIGAND FREE ENERGY PREDICTED BY IDOCK:   -2.49 KCAL/MOL
REMARK 924 INTRA-LIGAND FREE ENERGY PREDICTED BY IDOCK:   -1.06 KCAL/MOL
REMARK 927      BINDING AFFINITY PREDICTED BY RF-SCORE:    0.00 PKD
ROOT
HETATM    1  N   UNL     1      -9.042   7.484  67.055  1.00  0.00    -0.130 NA 
HETATM    2  H2  UNL     1      -9.927   7.225  66.619  1.00  0.00     0.000 HD 
HETATM    3  C   UNL     1      -8.690   8.873  66.749  1.00  0.00    -0.119 C  
HETATM    4  H1  UNL     1      -8.303   6.828  66.801  1.00  0.00     0.000 HD 
ENDROOT
BRANCH   3   5
HETATM    5  C   UNL     1      -9.806   9.862  67.132  1.00  0.00    -0.186 C  
BRANCH   5   6
HETATM    6  N   UNL     1     -10.551   9.403  68.309  1.00  0.00    -0.299 NA 
HETATM    7  H   UNL     1     -10.507   8.389  68.408  1.00  0.00     0.000 HD 
BRANCH   6   8
HETATM    8  C   UNL     1     -10.096  10.084  69.529  1.00  0.00    -0.227 C  
BRANCH   8   9
HETATM    9  C   UNL     1      -9.894   9.072  70.674  1.00  0.00    -0.230 C  
BRANCH   9  10
HETATM   10  N   UNL     1      -9.288   7.818  70.191  1.00  0.00    -0.154 NA 
HETATM   11  H   UNL     1      -8.280   7.796  70.351  1.00  0.00     0.000 HD 
BRANCH  10  12
HETATM   12  C   UNL     1      -9.966   6.660  70.797  1.00  0.00    -0.184 C  
BRANCH  12  13
HETATM   13  C   UNL     1     -11.346   6.417  70.156  1.00  0.00    -0.420 C  
HETATM   14  N   UNL     1     -11.283   6.383  68.690  1.00  0.00    -0.539 NA 
HETATM   15  H1  UNL     1     -12.197   6.222  68.266  1.00  0.00     0.000 HD 
HETATM   16  H2  UNL     1     -10.602   5.696  68.367  1.00  0.00     0.000 HD 
ENDBRANCH  12  13
ENDBRANCH  10  12
ENDBRANCH   9  10
ENDBRANCH   8   9
ENDBRANCH   6   8
ENDBRANCH   5   6
ENDBRANCH   3   5
TORSDOF 7
ENDMDL
MODEL      178
REMARK 921   NORMALIZED FREE ENERGY PREDICTED BY IDOCK:   -2.15 KCAL/MOL
REMARK 922        TOTAL FREE ENERGY PREDICTED BY IDOCK:   -3.54 KCAL/MOL
REMARK 923 INTER-LIGAND FREE ENERGY PREDICTED BY IDOCK:   -3.33 KCAL/MOL
REMARK 924 INTRA-LIGAND FREE ENERGY PREDICTED BY IDOCK:   -0.21 KCAL/MOL
REMARK 927      BINDING AFFINITY PREDICTED BY RF-SCORE:    0.00 PKD
ROOT
HETATM    1  N   UNL     1      -9.718   3.698  67.059  1.00  0.00    -0.344 NA 
HETATM    2  H2  UNL     1     -10.114   3.924  67.972  1.00  0.00     0.000 HD 
HETATM    3  C   UNL     1     -10.310   4.528  66.007  1.00  0.00    -0.243 C  
HETATM    4  H1  UNL     1      -9.798   2.701  66.862  1.00  0.00     0.000 HD 
ENDROOT
BRANCH   3   5
HETATM    5  C   UNL     1     -10.190   6.034  66.305  1.00  0.00     0.010 C  
BRANCH   5   6
HETATM    6  N   UNL     1     -11.300   6.508  67.139  1.00  0.00    -0.771 NA 
HETATM    7  H   UNL     1     -11.958   5.757  67.349  1.00  0.00     0.000 HD 
BRANCH   6   8
HETATM    8  C   UNL     1     -10.809   7.153  68.365  1.00  0.00    -0.097 C  
BRANCH   8   9
HETATM    9  C   UNL     1     -11.225   6.343  69.609  1.00  0.00    -0.418 C  
BRANCH   9  10
HETATM   10  N   UNL     1     -11.956   7.176  70.581  1.00  0.00    -0.506 NA 
HETATM   11  H   UNL     1     -12.901   6.827  70.747  1.00  0.00     0.000 HD 
BRANCH  10  12
HETATM   12  C   UNL     1     -11.186   7.293  71.830  1.00  0.00    -0.247 C  
BRANCH  12  13
HETATM   13  C   UNL     1     -10.687   8.734  72.051  1.00  0.00    -0.347 C  
HETATM   14  N   UNL     1      -9.223   8.816  72.112  1.00  0.00    -0.371 NA 
HETATM   15  H1  UNL     1      -8.893   9.770  72.259  1.00  0.00     0.000 HD 
HETATM   16  H2  UNL     1      -8.797   8.402  71.284  1.00  0.00     0.000 HD 
ENDBRANCH  12  13
ENDBRANCH  10  12
ENDBRANCH   9  10
ENDBRANCH   8   9
ENDBRANCH   6   8
ENDBRANCH   5   6
ENDBRANCH   3   5
TORSDOF 7
ENDMDL
MODEL      179
REMARK 921   NORMALIZED FREE ENERGY PREDICTED BY IDOCK:   -2.15 KCAL/MOL
REMARK 922        TOTAL FREE ENERGY PREDICTED BY IDOCK:   -3.54 KCAL/MOL
REMARK 923 INTER-LIGAND FREE ENERGY PREDICTED BY IDOCK:   -3.07 KCAL/MOL
REMARK 924 INTRA-LIGAND FREE ENERGY PREDICTED BY IDOCK:   -0.46 KCAL/MOL
REMARK 927      BINDING AFFINITY PREDICTED BY RF-SCORE:    0.00 PKD
ROOT
HETATM    1  N   UNL     1      -9.081   3.843  71.639  1.00  0.00    -0.110 NA 
HETATM    2  H2  UNL     1      -9.955   4.016  71.142  1.00  0.00     0.000 HD 
HETATM    3  C   UNL     1      -9.024   4.606  72.889  1.00  0.00    -0.118 C  
HETATM    4  H1  UNL     1      -8.276   4.019  71.037  1.00  0.00     0.000 HD 
ENDROOT
BRANCH   3   5
HETATM    5  C   UNL     1     -10.239   4.340  73.797  1.00  0.00    -0.168 C  
BRANCH   5   6
HETATM    6  N   UNL     1     -11.150   5.490  73.827  1.00  0.00    -0.410 NA 
HETATM    7  H   UNL     1     -11.812   5.423  74.600  1.00  0.00     0.000 HD 
BRANCH   6   8
HETATM    8  C   UNL     1     -10.407   6.758  73.862  1.00  0.00    -0.368 C  
BRANCH   8   9
HETATM    9  C   UNL     1     -10.942   7.731  72.793  1.00  0.00    -0.388 C  
BRANCH   9  10
HETATM   10  N   UNL     1     -12.370   7.500  72.512  1.00  0.00    -0.534 NA 
HETATM   11  H   UNL     1     -12.933   8.332  72.690  1.00  0.00     0.000 HD 
BRANCH  10  12
HETATM   12  C   UNL     1     -12.544   7.002  71.138  1.00  0.00    -0.339 C  
BRANCH  12  13
HETATM   13  C   UNL     1     -11.208   6.992  70.369  1.00  0.00    -0.299 C  
HETATM   14  N   UNL     1     -10.901   5.676  69.798  1.00  0.00    -0.339 NA 
HETATM   15  H1  UNL     1     -10.017   5.669  69.289  1.00  0.00     0.000 HD 
HETATM   16  H2  UNL     1     -11.666   5.343  69.211  1.00  0.00     0.000 HD 
ENDBRANCH  12  13
ENDBRANCH  10  12
ENDBRANCH   9  10
ENDBRANCH   8   9
ENDBRANCH   6   8
ENDBRANCH   5   6
ENDBRANCH   3   5
TORSDOF 7
ENDMDL
MODEL      180
REMARK 921   NORMALIZED FREE ENERGY PREDICTED BY IDOCK:   -2.13 KCAL/MOL
REMARK 922        TOTAL FREE ENERGY PREDICTED BY IDOCK:   -3.51 KCAL/MOL
REMARK 923 INTER-LIGAND FREE ENERGY PREDICTED BY IDOCK:   -2.97 KCAL/MOL
REMARK 924 INTRA-LIGAND FREE ENERGY PREDICTED BY IDOCK:   -0.54 KCAL/MOL
REMARK 927      BINDING AFFINITY PREDICTED BY RF-SCORE:    0.00 PKD
ROOT
HETATM    1  N   UNL     1      -6.944  19.475  67.895  1.00  0.00    -0.247 NA 
HETATM    2  H2  UNL     1      -6.792  20.251  67.251  1.00  0.00     0.000 HD 
HETATM    3  C   UNL     1      -8.293  19.521  68.466  1.00  0.00    -0.337 C  
HETATM    4  H1  UNL     1      -6.218  19.445  68.611  1.00  0.00     0.000 HD 
ENDROOT
BRANCH   3   5
HETATM    5  C   UNL     1      -9.390  19.568  67.386  1.00  0.00    -0.319 C  
BRANCH   5   6
HETATM    6  N   UNL     1     -10.593  18.843  67.810  1.00  0.00    -0.417 NA 
HETATM    7  H   UNL     1     -11.148  18.539  67.010  1.00  0.00     0.000 HD 
BRANCH   6   8
HETATM    8  C   UNL     1     -10.254  17.716  68.691  1.00  0.00    -0.377 C  
BRANCH   8   9
HETATM    9  C   UNL     1     -11.012  16.444  68.262  1.00  0.00    -0.355 C  
BRANCH   9  10
HETATM   10  N   UNL     1     -10.122  15.270  68.215  1.00  0.00    -0.223 NA 
HETATM   11  H   UNL     1     -10.391  14.617  67.479  1.00  0.00     0.000 HD 
BRANCH  10  12
HETATM   12  C   UNL     1      -8.720  15.701  68.082  1.00  0.00    -0.168 C  
BRANCH  12  13
HETATM   13  C   UNL     1      -8.293  15.781  66.605  1.00  0.00    -0.284 C  
HETATM   14  N   UNL     1      -7.247  16.785  66.378  1.00  0.00    -0.240 NA 
HETATM   15  H1  UNL     1      -6.964  16.839  65.400  1.00  0.00     0.000 HD 
HETATM   16  H2  UNL     1      -6.443  16.621  66.985  1.00  0.00     0.000 HD 
ENDBRANCH  12  13
ENDBRANCH  10  12
ENDBRANCH   9  10
ENDBRANCH   8   9
ENDBRANCH   6   8
ENDBRANCH   5   6
ENDBRANCH   3   5
TORSDOF 7
ENDMDL
MODEL      181
REMARK 921   NORMALIZED FREE ENERGY PREDICTED BY IDOCK:   -2.13 KCAL/MOL
REMARK 922        TOTAL FREE ENERGY PREDICTED BY IDOCK:   -3.50 KCAL/MOL
REMARK 923 INTER-LIGAND FREE ENERGY PREDICTED BY IDOCK:   -3.40 KCAL/MOL
REMARK 924 INTRA-LIGAND FREE ENERGY PREDICTED BY IDOCK:   -0.11 KCAL/MOL
REMARK 927      BINDING AFFINITY PREDICTED BY RF-SCORE:    0.00 PKD
ROOT
HETATM    1  N   UNL     1      -7.353   5.909  68.331  1.00  0.00    -0.083 NA 
HETATM    2  H2  UNL     1      -7.433   5.700  69.326  1.00  0.00     0.000 HD 
HETATM    3  C   UNL     1      -8.229   7.022  67.953  1.00  0.00    -0.115 C  
HETATM    4  H1  UNL     1      -7.517   5.074  67.767  1.00  0.00     0.000 HD 
ENDROOT
BRANCH   3   5
HETATM    5  C   UNL     1      -7.983   8.281  68.804  1.00  0.00    -0.114 C  
BRANCH   5   6
HETATM    6  N   UNL     1      -9.228   9.018  69.047  1.00  0.00    -0.139 NA 
HETATM    7  H   UNL     1      -9.909   8.858  68.305  1.00  0.00     0.000 HD 
BRANCH   6   8
HETATM    8  C   UNL     1      -9.787   8.700  70.369  1.00  0.00    -0.183 C  
BRANCH   8   9
HETATM    9  C   UNL     1     -10.756   9.806  70.829  1.00  0.00    -0.323 C  
BRANCH   9  10
HETATM   10  N   UNL     1     -12.107   9.613  70.273  1.00  0.00    -0.470 NA 
HETATM   11  H   UNL     1     -12.220   8.687  69.858  1.00  0.00     0.000 HD 
BRANCH  10  12
HETATM   12  C   UNL     1     -13.124   9.881  71.304  1.00  0.00    -0.400 C  
BRANCH  12  13
HETATM   13  C   UNL     1     -13.566   8.585  72.010  1.00  0.00    -0.392 C  
HETATM   14  N   UNL     1     -14.346   8.847  73.224  1.00  0.00    -1.177 NA 
HETATM   15  H1  UNL     1     -14.639   7.989  73.692  1.00  0.00     0.000 HD 
HETATM   16  H2  UNL     1     -15.146   9.448  73.025  1.00  0.00     0.000 HD 
ENDBRANCH  12  13
ENDBRANCH  10  12
ENDBRANCH   9  10
ENDBRANCH   8   9
ENDBRANCH   6   8
ENDBRANCH   5   6
ENDBRANCH   3   5
TORSDOF 7
ENDMDL
MODEL      182
REMARK 921   NORMALIZED FREE ENERGY PREDICTED BY IDOCK:   -2.12 KCAL/MOL
REMARK 922        TOTAL FREE ENERGY PREDICTED BY IDOCK:   -3.49 KCAL/MOL
REMARK 923 INTER-LIGAND FREE ENERGY PREDICTED BY IDOCK:   -2.94 KCAL/MOL
REMARK 924 INTRA-LIGAND FREE ENERGY PREDICTED BY IDOCK:   -0.55 KCAL/MOL
REMARK 927      BINDING AFFINITY PREDICTED BY RF-SCORE:    0.00 PKD
ROOT
HETATM    1  N   UNL     1      -9.819   9.389  71.025  1.00  0.00    -0.277 NA 
HETATM    2  H2  UNL     1     -10.653   9.945  71.213  1.00  0.00     0.000 HD 
HETATM    3  C   UNL     1      -9.360   8.703  72.236  1.00  0.00    -0.252 C  
HETATM    4  H1  UNL     1      -9.088   9.957  70.598  1.00  0.00     0.000 HD 
ENDROOT
BRANCH   3   5
HETATM    5  C   UNL     1     -10.464   7.845  72.883  1.00  0.00    -0.355 C  
BRANCH   5   6
HETATM    6  N   UNL     1     -10.199   6.412  72.714  1.00  0.00    -0.181 NA 
HETATM    7  H   UNL     1      -9.934   5.974  73.596  1.00  0.00     0.000 HD 
BRANCH   6   8
HETATM    8  C   UNL     1     -11.342   5.728  72.094  1.00  0.00    -0.258 C  
BRANCH   8   9
HETATM    9  C   UNL     1     -12.254   6.738  71.370  1.00  0.00    -0.363 C  
BRANCH   9  10
HETATM   10  N   UNL     1     -11.794   6.998  69.994  1.00  0.00    -0.600 NA 
HETATM   11  H   UNL     1     -11.324   7.900  69.913  1.00  0.00     0.000 HD 
BRANCH  10  12
HETATM   12  C   UNL     1     -10.945   5.891  69.525  1.00  0.00    -0.368 C  
BRANCH  12  13
HETATM   13  C   UNL     1      -9.594   6.404  68.991  1.00  0.00    -0.131 C  
HETATM   14  N   UNL     1      -9.697   7.746  68.407  1.00  0.00    -0.156 NA 
HETATM   15  H1  UNL     1      -8.803   8.086  68.053  1.00  0.00     0.000 HD 
HETATM   16  H2  UNL     1     -10.105   8.405  69.069  1.00  0.00     0.000 HD 
ENDBRANCH  12  13
ENDBRANCH  10  12
ENDBRANCH   9  10
ENDBRANCH   8   9
ENDBRANCH   6   8
ENDBRANCH   5   6
ENDBRANCH   3   5
TORSDOF 7
ENDMDL
MODEL      183
REMARK 921   NORMALIZED FREE ENERGY PREDICTED BY IDOCK:   -2.11 KCAL/MOL
REMARK 922        TOTAL FREE ENERGY PREDICTED BY IDOCK:   -3.48 KCAL/MOL
REMARK 923 INTER-LIGAND FREE ENERGY PREDICTED BY IDOCK:   -2.97 KCAL/MOL
REMARK 924 INTRA-LIGAND FREE ENERGY PREDICTED BY IDOCK:   -0.51 KCAL/MOL
REMARK 927      BINDING AFFINITY PREDICTED BY RF-SCORE:    0.00 PKD
ROOT
HETATM    1  N   UNL     1      -8.374  12.870  67.688  1.00  0.00    -0.163 NA 
HETATM    2  H2  UNL     1      -8.710  13.591  68.326  1.00  0.00     0.000 HD 
HETATM    3  C   UNL     1      -8.909  11.554  68.049  1.00  0.00    -0.158 C  
HETATM    4  H1  UNL     1      -7.355  12.875  67.632  1.00  0.00     0.000 HD 
ENDROOT
BRANCH   3   5
HETATM    5  C   UNL     1     -10.446  11.545  68.134  1.00  0.00    -0.193 C  
BRANCH   5   6
HETATM    6  N   UNL     1     -11.056  11.287  66.825  1.00  0.00    -0.278 NA 
HETATM    7  H   UNL     1     -11.762  10.554  66.878  1.00  0.00     0.000 HD 
BRANCH   6   8
HETATM    8  C   UNL     1     -11.600  12.519  66.237  1.00  0.00    -0.394 C  
BRANCH   8   9
HETATM    9  C   UNL     1     -10.799  12.924  64.984  1.00  0.00    -0.299 C  
BRANCH   9  10
HETATM   10  N   UNL     1      -9.974  14.120  65.229  1.00  0.00    -0.552 NA 
HETATM   11  H   UNL     1      -9.508  14.442  64.379  1.00  0.00     0.000 HD 
BRANCH  10  12
HETATM   12  C   UNL     1     -10.787  15.181  65.846  1.00  0.00    -0.339 C  
BRANCH  12  13
HETATM   13  C   UNL     1     -10.008  15.914  66.955  1.00  0.00    -0.249 C  
HETATM   14  N   UNL     1     -10.892  16.648  67.868  1.00  0.00    -0.344 NA 
HETATM   15  H1  UNL     1     -10.376  17.134  68.602  1.00  0.00     0.000 HD 
HETATM   16  H2  UNL     1     -11.603  16.034  68.263  1.00  0.00     0.000 HD 
ENDBRANCH  12  13
ENDBRANCH  10  12
ENDBRANCH   9  10
ENDBRANCH   8   9
ENDBRANCH   6   8
ENDBRANCH   5   6
ENDBRANCH   3   5
TORSDOF 7
ENDMDL
MODEL      184
REMARK 921   NORMALIZED FREE ENERGY PREDICTED BY IDOCK:   -2.11 KCAL/MOL
REMARK 922        TOTAL FREE ENERGY PREDICTED BY IDOCK:   -3.48 KCAL/MOL
REMARK 923 INTER-LIGAND FREE ENERGY PREDICTED BY IDOCK:   -3.16 KCAL/MOL
REMARK 924 INTRA-LIGAND FREE ENERGY PREDICTED BY IDOCK:   -0.31 KCAL/MOL
REMARK 927      BINDING AFFINITY PREDICTED BY RF-SCORE:    0.00 PKD
ROOT
HETATM    1  N   UNL     1      -9.331  14.456  65.820  1.00  0.00    -0.530 NA 
HETATM    2  H2  UNL     1      -8.582  14.259  65.156  1.00  0.00     0.000 HD 
HETATM    3  C   UNL     1      -9.017  13.912  67.144  1.00  0.00    -0.235 C  
HETATM    4  H1  UNL     1     -10.230  14.128  65.466  1.00  0.00     0.000 HD 
ENDROOT
BRANCH   3   5
HETATM    5  C   UNL     1      -7.660  14.405  67.678  1.00  0.00    -0.179 C  
BRANCH   5   6
HETATM    6  N   UNL     1      -7.033  15.358  66.755  1.00  0.00    -0.227 NA 
HETATM    7  H   UNL     1      -7.587  15.478  65.908  1.00  0.00     0.000 HD 
BRANCH   6   8
HETATM    8  C   UNL     1      -6.769  16.644  67.414  1.00  0.00    -0.169 C  
BRANCH   8   9
HETATM    9  C   UNL     1      -7.844  17.681  67.033  1.00  0.00    -0.215 C  
BRANCH   9  10
HETATM   10  N   UNL     1      -8.803  17.900  68.131  1.00  0.00    -0.258 NA 
HETATM   11  H   UNL     1      -8.596  18.752  68.653  1.00  0.00     0.000 HD 
BRANCH  10  12
HETATM   12  C   UNL     1     -10.180  17.894  67.611  1.00  0.00    -0.365 C  
BRANCH  12  13
HETATM   13  C   UNL     1     -10.703  19.325  67.384  1.00  0.00    -0.486 C  
HETATM   14  N   UNL     1     -10.580  19.751  65.986  1.00  0.00    -0.500 NA 
HETATM   15  H1  UNL     1     -10.926  20.698  65.836  1.00  0.00     0.000 HD 
HETATM   16  H2  UNL     1     -11.037  19.089  65.358  1.00  0.00     0.000 HD 
ENDBRANCH  12  13
ENDBRANCH  10  12
ENDBRANCH   9  10
ENDBRANCH   8   9
ENDBRANCH   6   8
ENDBRANCH   5   6
ENDBRANCH   3   5
TORSDOF 7
ENDMDL
MODEL      185
REMARK 921   NORMALIZED FREE ENERGY PREDICTED BY IDOCK:   -2.11 KCAL/MOL
REMARK 922        TOTAL FREE ENERGY PREDICTED BY IDOCK:   -3.48 KCAL/MOL
REMARK 923 INTER-LIGAND FREE ENERGY PREDICTED BY IDOCK:   -3.33 KCAL/MOL
REMARK 924 INTRA-LIGAND FREE ENERGY PREDICTED BY IDOCK:   -0.15 KCAL/MOL
REMARK 927      BINDING AFFINITY PREDICTED BY RF-SCORE:    0.00 PKD
ROOT
HETATM    1  N   UNL     1     -12.410  14.357  63.731  1.00  0.00    -1.079 NA 
HETATM    2  H2  UNL     1     -11.398  14.444  63.628  1.00  0.00     0.000 HD 
HETATM    3  C   UNL     1     -12.758  13.184  64.538  1.00  0.00    -0.203 C  
HETATM    4  H1  UNL     1     -12.872  14.358  62.822  1.00  0.00     0.000 HD 
ENDROOT
BRANCH   3   5
HETATM    5  C   UNL     1     -12.059  13.182  65.910  1.00  0.00    -0.444 C  
BRANCH   5   6
HETATM    6  N   UNL     1     -11.461  14.488  66.210  1.00  0.00    -0.353 NA 
HETATM    7  H   UNL     1     -12.151  15.236  66.159  1.00  0.00     0.000 HD 
BRANCH   6   8
HETATM    8  C   UNL     1     -10.776  14.474  67.510  1.00  0.00    -0.276 C  
BRANCH   8   9
HETATM    9  C   UNL     1      -9.795  15.658  67.620  1.00  0.00    -0.227 C  
BRANCH   9  10
HETATM   10  N   UNL     1      -8.519  15.252  68.237  1.00  0.00    -0.150 NA 
HETATM   11  H   UNL     1      -8.360  15.723  69.128  1.00  0.00     0.000 HD 
BRANCH  10  12
HETATM   12  C   UNL     1      -8.463  13.787  68.372  1.00  0.00    -0.154 C  
BRANCH  12  13
HETATM   13  C   UNL     1      -7.020  13.297  68.598  1.00  0.00    -0.101 C  
HETATM   14  N   UNL     1      -6.952  12.173  69.538  1.00  0.00    -0.337 NA 
HETATM   15  H1  UNL     1      -5.997  11.849  69.688  1.00  0.00     0.000 HD 
HETATM   16  H2  UNL     1      -7.558  11.408  69.241  1.00  0.00     0.000 HD 
ENDBRANCH  12  13
ENDBRANCH  10  12
ENDBRANCH   9  10
ENDBRANCH   8   9
ENDBRANCH   6   8
ENDBRANCH   5   6
ENDBRANCH   3   5
TORSDOF 7
ENDMDL
MODEL      186
REMARK 921   NORMALIZED FREE ENERGY PREDICTED BY IDOCK:   -2.09 KCAL/MOL
REMARK 922        TOTAL FREE ENERGY PREDICTED BY IDOCK:   -3.45 KCAL/MOL
REMARK 923 INTER-LIGAND FREE ENERGY PREDICTED BY IDOCK:   -3.33 KCAL/MOL
REMARK 924 INTRA-LIGAND FREE ENERGY PREDICTED BY IDOCK:   -0.12 KCAL/MOL
REMARK 927      BINDING AFFINITY PREDICTED BY RF-SCORE:    0.00 PKD
ROOT
HETATM    1  N   UNL     1     -11.163  12.436  67.230  1.00  0.00    -0.284 NA 
HETATM    2  H2  UNL     1     -11.031  13.197  67.896  1.00  0.00     0.000 HD 
HETATM    3  C   UNL     1     -12.278  12.718  66.322  1.00  0.00    -0.219 C  
HETATM    4  H1  UNL     1     -11.266  11.542  67.710  1.00  0.00     0.000 HD 
ENDROOT
BRANCH   3   5
HETATM    5  C   UNL     1     -12.122  14.068  65.597  1.00  0.00    -0.417 C  
BRANCH   5   6
HETATM    6  N   UNL     1     -11.276  14.993  66.359  1.00  0.00    -0.335 NA 
HETATM    7  H   UNL     1     -10.560  14.496  66.889  1.00  0.00     0.000 HD 
BRANCH   6   8
HETATM    8  C   UNL     1     -10.687  16.019  65.488  1.00  0.00    -0.361 C  
BRANCH   8   9
HETATM    9  C   UNL     1      -9.833  17.005  66.309  1.00  0.00    -0.294 C  
BRANCH   9  10
HETATM   10  N   UNL     1     -10.632  18.146  66.791  1.00  0.00    -0.333 NA 
HETATM   11  H   UNL     1     -11.589  18.118  66.437  1.00  0.00     0.000 HD 
BRANCH  10  12
HETATM   12  C   UNL     1     -10.590  18.211  68.261  1.00  0.00    -0.249 C  
BRANCH  12  13
HETATM   13  C   UNL     1      -9.875  19.485  68.749  1.00  0.00    -0.451 C  
HETATM   14  N   UNL     1     -10.317  19.897  70.086  1.00  0.00    -0.386 NA 
HETATM   15  H1  UNL     1      -9.844  20.741  70.409  1.00  0.00     0.000 HD 
HETATM   16  H2  UNL     1     -10.213  19.137  70.758  1.00  0.00     0.000 HD 
ENDBRANCH  12  13
ENDBRANCH  10  12
ENDBRANCH   9  10
ENDBRANCH   8   9
ENDBRANCH   6   8
ENDBRANCH   5   6
ENDBRANCH   3   5
TORSDOF 7
ENDMDL
MODEL      187
REMARK 921   NORMALIZED FREE ENERGY PREDICTED BY IDOCK:   -2.08 KCAL/MOL
REMARK 922        TOTAL FREE ENERGY PREDICTED BY IDOCK:   -3.44 KCAL/MOL
REMARK 923 INTER-LIGAND FREE ENERGY PREDICTED BY IDOCK:   -3.20 KCAL/MOL
REMARK 924 INTRA-LIGAND FREE ENERGY PREDICTED BY IDOCK:   -0.25 KCAL/MOL
REMARK 927      BINDING AFFINITY PREDICTED BY RF-SCORE:    0.00 PKD
ROOT
HETATM    1  N   UNL     1      -9.854   7.166  69.430  1.00  0.00    -0.160 NA 
HETATM    2  H2  UNL     1      -9.129   7.853  69.226  1.00  0.00     0.000 HD 
HETATM    3  C   UNL     1     -10.661   7.578  70.582  1.00  0.00    -0.230 C  
HETATM    4  H1  UNL     1      -9.454   6.235  69.546  1.00  0.00     0.000 HD 
ENDROOT
BRANCH   3   5
HETATM    5  C   UNL     1     -11.264   8.984  70.408  1.00  0.00    -0.241 C  
BRANCH   5   6
HETATM    6  N   UNL     1     -11.322   9.373  68.995  1.00  0.00    -0.441 NA 
HETATM    7  H   UNL     1     -12.064   8.878  68.500  1.00  0.00     0.000 HD 
BRANCH   6   8
HETATM    8  C   UNL     1     -11.453  10.829  68.847  1.00  0.00    -0.293 C  
BRANCH   8   9
HETATM    9  C   UNL     1     -12.214  11.431  70.045  1.00  0.00    -0.301 C  
BRANCH   9  10
HETATM   10  N   UNL     1     -11.764  12.802  70.343  1.00  0.00    -0.541 NA 
HETATM   11  H   UNL     1     -10.808  12.820  70.701  1.00  0.00     0.000 HD 
BRANCH  10  12
HETATM   12  C   UNL     1     -11.923  13.658  69.155  1.00  0.00    -0.351 C  
BRANCH  12  13
HETATM   13  C   UNL     1     -10.706  14.583  68.961  1.00  0.00    -0.251 C  
HETATM   14  N   UNL     1      -9.432  13.875  69.128  1.00  0.00    -0.386 NA 
HETATM   15  H1  UNL     1      -8.627  14.487  69.000  1.00  0.00     0.000 HD 
HETATM   16  H2  UNL     1      -9.379  13.064  68.512  1.00  0.00     0.000 HD 
ENDBRANCH  12  13
ENDBRANCH  10  12
ENDBRANCH   9  10
ENDBRANCH   8   9
ENDBRANCH   6   8
ENDBRANCH   5   6
ENDBRANCH   3   5
TORSDOF 7
ENDMDL
MODEL      188
REMARK 921   NORMALIZED FREE ENERGY PREDICTED BY IDOCK:   -2.08 KCAL/MOL
REMARK 922        TOTAL FREE ENERGY PREDICTED BY IDOCK:   -3.43 KCAL/MOL
REMARK 923 INTER-LIGAND FREE ENERGY PREDICTED BY IDOCK:   -3.33 KCAL/MOL
REMARK 924 INTRA-LIGAND FREE ENERGY PREDICTED BY IDOCK:   -0.10 KCAL/MOL
REMARK 927      BINDING AFFINITY PREDICTED BY RF-SCORE:    0.00 PKD
ROOT
HETATM    1  N   UNL     1     -10.435  17.904  66.985  1.00  0.00    -0.358 NA 
HETATM    2  H2  UNL     1     -11.428  18.093  66.851  1.00  0.00     0.000 HD 
HETATM    3  C   UNL     1     -10.166  16.463  66.976  1.00  0.00    -0.282 C  
HETATM    4  H1  UNL     1     -10.086  18.362  67.827  1.00  0.00     0.000 HD 
ENDROOT
BRANCH   3   5
HETATM    5  C   UNL     1     -10.693  15.772  65.706  1.00  0.00    -0.327 C  
BRANCH   5   6
HETATM    6  N   UNL     1     -10.970  14.351  65.942  1.00  0.00    -0.306 NA 
HETATM    7  H   UNL     1     -10.197  13.895  66.426  1.00  0.00     0.000 HD 
BRANCH   6   8
HETATM    8  C   UNL     1     -12.239  14.166  66.658  1.00  0.00    -0.418 C  
BRANCH   8   9
HETATM    9  C   UNL     1     -11.994  13.556  68.052  1.00  0.00    -0.337 C  
BRANCH   9  10
HETATM   10  N   UNL     1     -11.990  12.082  68.008  1.00  0.00    -0.521 NA 
HETATM   11  H   UNL     1     -11.992  11.730  67.050  1.00  0.00     0.000 HD 
BRANCH  10  12
HETATM   12  C   UNL     1     -10.857  11.554  68.786  1.00  0.00    -0.216 C  
BRANCH  12  13
HETATM   13  C   UNL     1     -11.183  10.176  69.391  1.00  0.00    -0.215 C  
HETATM   14  N   UNL     1     -11.425  10.243  70.837  1.00  0.00    -0.352 NA 
HETATM   15  H1  UNL     1     -11.642   9.330  71.238  1.00  0.00     0.000 HD 
HETATM   16  H2  UNL     1     -12.153  10.923  71.056  1.00  0.00     0.000 HD 
ENDBRANCH  12  13
ENDBRANCH  10  12
ENDBRANCH   9  10
ENDBRANCH   8   9
ENDBRANCH   6   8
ENDBRANCH   5   6
ENDBRANCH   3   5
TORSDOF 7
ENDMDL
MODEL      189
REMARK 921   NORMALIZED FREE ENERGY PREDICTED BY IDOCK:   -2.08 KCAL/MOL
REMARK 922        TOTAL FREE ENERGY PREDICTED BY IDOCK:   -3.43 KCAL/MOL
REMARK 923 INTER-LIGAND FREE ENERGY PREDICTED BY IDOCK:   -3.18 KCAL/MOL
REMARK 924 INTRA-LIGAND FREE ENERGY PREDICTED BY IDOCK:   -0.25 KCAL/MOL
REMARK 927      BINDING AFFINITY PREDICTED BY RF-SCORE:    0.00 PKD
ROOT
HETATM    1  N   UNL     1     -12.002  13.437  64.524  1.00  0.00    -0.389 NA 
HETATM    2  H2  UNL     1     -11.215  12.790  64.475  1.00  0.00     0.000 HD 
HETATM    3  C   UNL     1     -12.382  13.701  65.915  1.00  0.00    -0.471 C  
HETATM    4  H1  UNL     1     -12.785  13.105  63.961  1.00  0.00     0.000 HD 
ENDROOT
BRANCH   3   5
HETATM    5  C   UNL     1     -11.200  14.201  66.765  1.00  0.00    -0.323 C  
BRANCH   5   6
HETATM    6  N   UNL     1     -11.583  15.347  67.598  1.00  0.00    -0.260 NA 
HETATM    7  H   UNL     1     -12.593  15.395  67.728  1.00  0.00     0.000 HD 
BRANCH   6   8
HETATM    8  C   UNL     1     -10.873  15.332  68.884  1.00  0.00    -0.247 C  
BRANCH   8   9
HETATM    9  C   UNL     1     -10.123  16.660  69.107  1.00  0.00    -0.285 C  
BRANCH   9  10
HETATM   10  N   UNL     1      -8.759  16.615  68.551  1.00  0.00    -0.232 NA 
HETATM   11  H   UNL     1      -8.644  15.850  67.886  1.00  0.00     0.000 HD 
BRANCH  10  12
HETATM   12  C   UNL     1      -8.408  17.917  67.959  1.00  0.00    -0.258 C  
BRANCH  12  13
HETATM   13  C   UNL     1      -8.642  17.924  66.436  1.00  0.00    -0.227 C  
HETATM   14  N   UNL     1     -10.067  17.895  66.088  1.00  0.00    -0.490 NA 
HETATM   15  H1  UNL     1     -10.222  17.899  65.080  1.00  0.00     0.000 HD 
HETATM   16  H2  UNL     1     -10.571  18.657  66.541  1.00  0.00     0.000 HD 
ENDBRANCH  12  13
ENDBRANCH  10  12
ENDBRANCH   9  10
ENDBRANCH   8   9
ENDBRANCH   6   8
ENDBRANCH   5   6
ENDBRANCH   3   5
TORSDOF 7
ENDMDL
MODEL      190
REMARK 921   NORMALIZED FREE ENERGY PREDICTED BY IDOCK:   -2.07 KCAL/MOL
REMARK 922        TOTAL FREE ENERGY PREDICTED BY IDOCK:   -3.43 KCAL/MOL
REMARK 923 INTER-LIGAND FREE ENERGY PREDICTED BY IDOCK:   -3.22 KCAL/MOL
REMARK 924 INTRA-LIGAND FREE ENERGY PREDICTED BY IDOCK:   -0.21 KCAL/MOL
REMARK 927      BINDING AFFINITY PREDICTED BY RF-SCORE:    0.00 PKD
ROOT
HETATM    1  N   UNL     1      -9.920  10.364  69.770  1.00  0.00    -0.405 NA 
HETATM    2  H2  UNL     1      -9.632   9.417  69.520  1.00  0.00     0.000 HD 
HETATM    3  C   UNL     1      -9.593  11.312  68.701  1.00  0.00    -0.190 C  
HETATM    4  H1  UNL     1      -9.528  10.640  70.671  1.00  0.00     0.000 HD 
ENDROOT
BRANCH   3   5
HETATM    5  C   UNL     1     -10.183  10.895  67.342  1.00  0.00    -0.201 C  
BRANCH   5   6
HETATM    6  N   UNL     1     -10.384  12.054  66.465  1.00  0.00    -0.207 NA 
HETATM    7  H   UNL     1      -9.942  11.917  65.556  1.00  0.00     0.000 HD 
BRANCH   6   8
HETATM    8  C   UNL     1     -11.811  12.378  66.327  1.00  0.00    -0.364 C  
BRANCH   8   9
HETATM    9  C   UNL     1     -12.028  13.903  66.356  1.00  0.00    -0.438 C  
BRANCH   9  10
HETATM   10  N   UNL     1     -11.272  14.540  67.449  1.00  0.00    -0.313 NA 
HETATM   11  H   UNL     1     -10.364  14.095  67.594  1.00  0.00     0.000 HD 
BRANCH  10  12
HETATM   12  C   UNL     1     -11.142  15.986  67.202  1.00  0.00    -0.104 C  
BRANCH  12  13
HETATM   13  C   UNL     1     -10.521  16.268  65.821  1.00  0.00    -0.364 C  
HETATM   14  N   UNL     1     -10.308  17.701  65.586  1.00  0.00    -0.635 NA 
HETATM   15  H1  UNL     1      -9.896  17.888  64.672  1.00  0.00     0.000 HD 
HETATM   16  H2  UNL     1      -9.750  18.117  66.332  1.00  0.00     0.000 HD 
ENDBRANCH  12  13
ENDBRANCH  10  12
ENDBRANCH   9  10
ENDBRANCH   8   9
ENDBRANCH   6   8
ENDBRANCH   5   6
ENDBRANCH   3   5
TORSDOF 7
ENDMDL
MODEL      191
REMARK 921   NORMALIZED FREE ENERGY PREDICTED BY IDOCK:   -2.07 KCAL/MOL
REMARK 922        TOTAL FREE ENERGY PREDICTED BY IDOCK:   -3.42 KCAL/MOL
REMARK 923 INTER-LIGAND FREE ENERGY PREDICTED BY IDOCK:   -3.01 KCAL/MOL
REMARK 924 INTRA-LIGAND FREE ENERGY PREDICTED BY IDOCK:   -0.41 KCAL/MOL
REMARK 927      BINDING AFFINITY PREDICTED BY RF-SCORE:    0.00 PKD
ROOT
HETATM    1  N   UNL     1     -10.393   5.360  69.135  1.00  0.00    -0.236 NA 
HETATM    2  H2  UNL     1     -10.578   5.213  70.127  1.00  0.00     0.000 HD 
HETATM    3  C   UNL     1     -10.943   6.640  68.680  1.00  0.00    -0.251 C  
HETATM    4  H1  UNL     1     -10.726   4.572  68.580  1.00  0.00     0.000 HD 
ENDROOT
BRANCH   3   5
HETATM    5  C   UNL     1     -10.441   7.829  69.519  1.00  0.00    -0.225 C  
BRANCH   5   6
HETATM    6  N   UNL     1     -11.529   8.762  69.835  1.00  0.00    -0.448 NA 
HETATM    7  H   UNL     1     -12.436   8.385  69.562  1.00  0.00     0.000 HD 
BRANCH   6   8
HETATM    8  C   UNL     1     -11.508   9.145  71.253  1.00  0.00    -0.335 C  
BRANCH   8   9
HETATM    9  C   UNL     1     -12.384   8.189  72.088  1.00  0.00    -0.338 C  
BRANCH   9  10
HETATM   10  N   UNL     1     -11.584   7.436  73.071  1.00  0.00    -0.597 NA 
HETATM   11  H   UNL     1     -12.035   7.407  73.986  1.00  0.00     0.000 HD 
BRANCH  10  12
HETATM   12  C   UNL     1     -11.289   6.087  72.560  1.00  0.00    -0.300 C  
BRANCH  12  13
HETATM   13  C   UNL     1      -9.784   5.771  72.640  1.00  0.00    -0.153 C  
HETATM   14  N   UNL     1      -8.965   6.980  72.789  1.00  0.00    -0.129 NA 
HETATM   15  H1  UNL     1      -7.969   6.770  72.842  1.00  0.00     0.000 HD 
HETATM   16  H2  UNL     1      -9.268   7.532  73.591  1.00  0.00     0.000 HD 
ENDBRANCH  12  13
ENDBRANCH  10  12
ENDBRANCH   9  10
ENDBRANCH   8   9
ENDBRANCH   6   8
ENDBRANCH   5   6
ENDBRANCH   3   5
TORSDOF 7
ENDMDL
MODEL      192
REMARK 921   NORMALIZED FREE ENERGY PREDICTED BY IDOCK:   -2.06 KCAL/MOL
REMARK 922        TOTAL FREE ENERGY PREDICTED BY IDOCK:   -3.41 KCAL/MOL
REMARK 923 INTER-LIGAND FREE ENERGY PREDICTED BY IDOCK:   -3.26 KCAL/MOL
REMARK 924 INTRA-LIGAND FREE ENERGY PREDICTED BY IDOCK:   -0.15 KCAL/MOL
REMARK 927      BINDING AFFINITY PREDICTED BY RF-SCORE:    0.00 PKD
ROOT
HETATM    1  N   UNL     1      -7.770   4.250  72.800  1.00  0.00    -0.080 NA 
HETATM    2  H2  UNL     1      -7.720   3.264  73.056  1.00  0.00     0.000 HD 
HETATM    3  C   UNL     1      -8.969   4.527  72.003  1.00  0.00    -0.125 C  
HETATM    4  H1  UNL     1      -6.914   4.552  72.336  1.00  0.00     0.000 HD 
ENDROOT
BRANCH   3   5
HETATM    5  C   UNL     1     -10.261   4.070  72.703  1.00  0.00    -0.167 C  
BRANCH   5   6
HETATM    6  N   UNL     1     -10.950   5.193  73.348  1.00  0.00    -0.300 NA 
HETATM    7  H   UNL     1     -10.351   5.659  74.029  1.00  0.00     0.000 HD 
BRANCH   6   8
HETATM    8  C   UNL     1     -11.472   6.141  72.353  1.00  0.00    -0.303 C  
BRANCH   8   9
HETATM    9  C   UNL     1     -11.275   7.593  72.829  1.00  0.00    -0.377 C  
BRANCH   9  10
HETATM   10  N   UNL     1     -12.552   8.326  72.886  1.00  0.00    -0.659 NA 
HETATM   11  H   UNL     1     -12.458   9.219  73.371  1.00  0.00     0.000 HD 
BRANCH  10  12
HETATM   12  C   UNL     1     -13.103   8.492  71.530  1.00  0.00    -0.299 C  
BRANCH  12  13
HETATM   13  C   UNL     1     -13.118   9.973  71.106  1.00  0.00    -0.386 C  
HETATM   14  N   UNL     1     -13.376  10.876  72.234  1.00  0.00    -0.563 NA 
HETATM   15  H1  UNL     1     -13.386  11.856  71.953  1.00  0.00     0.000 HD 
HETATM   16  H2  UNL     1     -12.711  10.717  72.991  1.00  0.00     0.000 HD 
ENDBRANCH  12  13
ENDBRANCH  10  12
ENDBRANCH   9  10
ENDBRANCH   8   9
ENDBRANCH   6   8
ENDBRANCH   5   6
ENDBRANCH   3   5
TORSDOF 7
ENDMDL
MODEL      193
REMARK 921   NORMALIZED FREE ENERGY PREDICTED BY IDOCK:   -2.06 KCAL/MOL
REMARK 922        TOTAL FREE ENERGY PREDICTED BY IDOCK:   -3.41 KCAL/MOL
REMARK 923 INTER-LIGAND FREE ENERGY PREDICTED BY IDOCK:   -3.48 KCAL/MOL
REMARK 924 INTRA-LIGAND FREE ENERGY PREDICTED BY IDOCK:    0.07 KCAL/MOL
REMARK 927      BINDING AFFINITY PREDICTED BY RF-SCORE:    0.00 PKD
ROOT
HETATM    1  N   UNL     1     -12.447  14.905  63.856  1.00  0.00    -1.056 NA 
HETATM    2  H2  UNL     1     -11.614  14.741  63.292  1.00  0.00     0.000 HD 
HETATM    3  C   UNL     1     -12.730  13.760  64.726  1.00  0.00    -0.215 C  
HETATM    4  H1  UNL     1     -13.243  15.155  63.269  1.00  0.00     0.000 HD 
ENDROOT
BRANCH   3   5
HETATM    5  C   UNL     1     -11.528  13.382  65.611  1.00  0.00    -0.316 C  
BRANCH   5   6
HETATM    6  N   UNL     1     -11.874  12.319  66.562  1.00  0.00    -0.598 NA 
HETATM    7  H   UNL     1     -12.392  11.566  66.109  1.00  0.00     0.000 HD 
BRANCH   6   8
HETATM    8  C   UNL     1     -10.680  11.812  67.252  1.00  0.00    -0.237 C  
BRANCH   8   9
HETATM    9  C   UNL     1      -9.481  12.755  67.029  1.00  0.00    -0.233 C  
BRANCH   9  10
HETATM   10  N   UNL     1      -9.432  13.823  68.043  1.00  0.00    -0.201 NA 
HETATM   11  H   UNL     1      -8.865  13.556  68.850  1.00  0.00     0.000 HD 
BRANCH  10  12
HETATM   12  C   UNL     1      -8.966  15.080  67.435  1.00  0.00    -0.186 C  
BRANCH  12  13
HETATM   13  C   UNL     1      -9.171  16.275  68.385  1.00  0.00    -0.203 C  
HETATM   14  N   UNL     1      -7.921  16.701  69.026  1.00  0.00    -0.235 NA 
HETATM   15  H1  UNL     1      -8.057  17.492  69.655  1.00  0.00     0.000 HD 
HETATM   16  H2  UNL     1      -7.202  16.902  68.331  1.00  0.00     0.000 HD 
ENDBRANCH  12  13
ENDBRANCH  10  12
ENDBRANCH   9  10
ENDBRANCH   8   9
ENDBRANCH   6   8
ENDBRANCH   5   6
ENDBRANCH   3   5
TORSDOF 7
ENDMDL
MODEL      194
REMARK 921   NORMALIZED FREE ENERGY PREDICTED BY IDOCK:   -2.06 KCAL/MOL
REMARK 922        TOTAL FREE ENERGY PREDICTED BY IDOCK:   -3.40 KCAL/MOL
REMARK 923 INTER-LIGAND FREE ENERGY PREDICTED BY IDOCK:   -2.87 KCAL/MOL
REMARK 924 INTRA-LIGAND FREE ENERGY PREDICTED BY IDOCK:   -0.53 KCAL/MOL
REMARK 927      BINDING AFFINITY PREDICTED BY RF-SCORE:    0.00 PKD
ROOT
HETATM    1  N   UNL     1     -10.449  10.816  65.873  1.00  0.00    -0.234 NA 
HETATM    2  H2  UNL     1     -10.808   9.973  66.321  1.00  0.00     0.000 HD 
HETATM    3  C   UNL     1     -11.237  11.992  66.254  1.00  0.00    -0.342 C  
HETATM    4  H1  UNL     1     -10.391  10.696  64.861  1.00  0.00     0.000 HD 
ENDROOT
BRANCH   3   5
HETATM    5  C   UNL     1     -11.326  12.172  67.781  1.00  0.00    -0.307 C  
BRANCH   5   6
HETATM    6  N   UNL     1     -12.052  11.064  68.412  1.00  0.00    -0.786 NA 
HETATM    7  H   UNL     1     -12.354  10.375  67.724  1.00  0.00     0.000 HD 
BRANCH   6   8
HETATM    8  C   UNL     1     -11.258  10.447  69.483  1.00  0.00    -0.269 C  
BRANCH   8   9
HETATM    9  C   UNL     1     -10.587   9.152  68.984  1.00  0.00    -0.199 C  
BRANCH   9  10
HETATM   10  N   UNL     1      -9.223   9.402  68.485  1.00  0.00    -0.131 NA 
HETATM   11  H   UNL     1      -9.227   9.794  67.543  1.00  0.00     0.000 HD 
BRANCH  10  12
HETATM   12  C   UNL     1      -8.484  10.254  69.432  1.00  0.00    -0.160 C  
BRANCH  12  13
HETATM   13  C   UNL     1      -7.372   9.466  70.150  1.00  0.00    -0.110 C  
HETATM   14  N   UNL     1      -7.656   9.271  71.576  1.00  0.00    -0.331 NA 
HETATM   15  H1  UNL     1      -6.920   8.749  72.052  1.00  0.00     0.000 HD 
HETATM   16  H2  UNL     1      -8.566   8.831  71.713  1.00  0.00     0.000 HD 
ENDBRANCH  12  13
ENDBRANCH  10  12
ENDBRANCH   9  10
ENDBRANCH   8   9
ENDBRANCH   6   8
ENDBRANCH   5   6
ENDBRANCH   3   5
TORSDOF 7
ENDMDL
MODEL      195
REMARK 921   NORMALIZED FREE ENERGY PREDICTED BY IDOCK:   -2.05 KCAL/MOL
REMARK 922        TOTAL FREE ENERGY PREDICTED BY IDOCK:   -3.39 KCAL/MOL
REMARK 923 INTER-LIGAND FREE ENERGY PREDICTED BY IDOCK:   -3.24 KCAL/MOL
REMARK 924 INTRA-LIGAND FREE ENERGY PREDICTED BY IDOCK:   -0.15 KCAL/MOL
REMARK 927      BINDING AFFINITY PREDICTED BY RF-SCORE:    0.00 PKD
ROOT
HETATM    1  N   UNL     1      -9.113   5.544  66.978  1.00  0.00    -0.112 NA 
HETATM    2  H2  UNL     1      -8.593   5.796  67.819  1.00  0.00     0.000 HD 
HETATM    3  C   UNL     1     -10.418   6.211  66.945  1.00  0.00    -0.276 C  
HETATM    4  H1  UNL     1      -9.190   4.531  66.885  1.00  0.00     0.000 HD 
ENDROOT
BRANCH   3   5
HETATM    5  C   UNL     1     -10.302   7.740  67.086  1.00  0.00    -0.319 C  
BRANCH   5   6
HETATM    6  N   UNL     1      -9.861   8.364  65.834  1.00  0.00    -0.457 NA 
HETATM    7  H   UNL     1     -10.412   8.039  65.040  1.00  0.00     0.000 HD 
BRANCH   6   8
HETATM    8  C   UNL     1      -9.874   9.830  65.935  1.00  0.00    -0.282 C  
BRANCH   8   9
HETATM    9  C   UNL     1      -9.930  10.472  64.535  1.00  0.00    -0.345 C  
BRANCH   9  10
HETATM   10  N   UNL     1      -9.627  11.913  64.584  1.00  0.00    -0.432 NA 
HETATM   11  H   UNL     1      -9.600  12.329  63.652  1.00  0.00     0.000 HD 
BRANCH  10  12
HETATM   12  C   UNL     1     -10.583  12.603  65.466  1.00  0.00    -0.276 C  
BRANCH  12  13
HETATM   13  C   UNL     1      -9.942  13.833  66.137  1.00  0.00    -0.308 C  
HETATM   14  N   UNL     1      -8.565  13.579  66.573  1.00  0.00    -0.429 NA 
HETATM   15  H1  UNL     1      -8.141  14.393  67.018  1.00  0.00     0.000 HD 
HETATM   16  H2  UNL     1      -7.991  13.241  65.801  1.00  0.00     0.000 HD 
ENDBRANCH  12  13
ENDBRANCH  10  12
ENDBRANCH   9  10
ENDBRANCH   8   9
ENDBRANCH   6   8
ENDBRANCH   5   6
ENDBRANCH   3   5
TORSDOF 7
ENDMDL
MODEL      196
REMARK 921   NORMALIZED FREE ENERGY PREDICTED BY IDOCK:   -2.04 KCAL/MOL
REMARK 922        TOTAL FREE ENERGY PREDICTED BY IDOCK:   -3.38 KCAL/MOL
REMARK 923 INTER-LIGAND FREE ENERGY PREDICTED BY IDOCK:   -3.23 KCAL/MOL
REMARK 924 INTRA-LIGAND FREE ENERGY PREDICTED BY IDOCK:   -0.15 KCAL/MOL
REMARK 927      BINDING AFFINITY PREDICTED BY RF-SCORE:    0.00 PKD
ROOT
HETATM    1  N   UNL     1     -12.570  13.202  64.240  1.00  0.00    -0.652 NA 
HETATM    2  H2  UNL     1     -11.787  12.553  64.159  1.00  0.00     0.000 HD 
HETATM    3  C   UNL     1     -12.723  13.674  65.619  1.00  0.00    -0.454 C  
HETATM    4  H1  UNL     1     -13.427  12.789  63.871  1.00  0.00     0.000 HD 
ENDROOT
BRANCH   3   5
HETATM    5  C   UNL     1     -11.429  14.295  66.177  1.00  0.00    -0.355 C  
BRANCH   5   6
HETATM    6  N   UNL     1     -11.171  13.856  67.552  1.00  0.00    -0.292 NA 
HETATM    7  H   UNL     1     -11.906  13.236  67.892  1.00  0.00     0.000 HD 
BRANCH   6   8
HETATM    8  C   UNL     1      -9.844  13.235  67.673  1.00  0.00    -0.230 C  
BRANCH   8   9
HETATM    9  C   UNL     1      -9.974  11.726  67.959  1.00  0.00    -0.188 C  
BRANCH   9  10
HETATM   10  N   UNL     1      -9.788  11.425  69.390  1.00  0.00    -0.396 NA 
HETATM   11  H   UNL     1      -9.873  12.261  69.969  1.00  0.00     0.000 HD 
BRANCH  10  12
HETATM   12  C   UNL     1     -10.721  10.367  69.811  1.00  0.00    -0.278 C  
BRANCH  12  13
HETATM   13  C   UNL     1     -10.419   9.034  69.102  1.00  0.00    -0.225 C  
HETATM   14  N   UNL     1      -9.257   8.345  69.676  1.00  0.00    -0.159 NA 
HETATM   15  H1  UNL     1      -9.057   7.462  69.206  1.00  0.00     0.000 HD 
HETATM   16  H2  UNL     1      -9.370   8.210  70.680  1.00  0.00     0.000 HD 
ENDBRANCH  12  13
ENDBRANCH  10  12
ENDBRANCH   9  10
ENDBRANCH   8   9
ENDBRANCH   6   8
ENDBRANCH   5   6
ENDBRANCH   3   5
TORSDOF 7
ENDMDL
MODEL      197
REMARK 921   NORMALIZED FREE ENERGY PREDICTED BY IDOCK:   -2.02 KCAL/MOL
REMARK 922        TOTAL FREE ENERGY PREDICTED BY IDOCK:   -3.35 KCAL/MOL
REMARK 923 INTER-LIGAND FREE ENERGY PREDICTED BY IDOCK:   -3.17 KCAL/MOL
REMARK 924 INTRA-LIGAND FREE ENERGY PREDICTED BY IDOCK:   -0.18 KCAL/MOL
REMARK 927      BINDING AFFINITY PREDICTED BY RF-SCORE:    0.00 PKD
ROOT
HETATM    1  N   UNL     1     -11.772   1.610  63.444  1.00  0.00    -0.558 NA 
HETATM    2  H2  UNL     1     -12.313   1.902  62.630  1.00  0.00     0.000 HD 
HETATM    3  C   UNL     1     -10.523   2.368  63.548  1.00  0.00    -0.174 C  
HETATM    4  H1  UNL     1     -11.618   0.601  63.439  1.00  0.00     0.000 HD 
ENDROOT
BRANCH   3   5
HETATM    5  C   UNL     1     -10.755   3.890  63.554  1.00  0.00    -0.149 C  
BRANCH   5   6
HETATM    6  N   UNL     1     -11.308   4.344  64.835  1.00  0.00    -1.085 NA 
HETATM    7  H   UNL     1     -12.116   3.787  65.113  1.00  0.00     0.000 HD 
BRANCH   6   8
HETATM    8  C   UNL     1     -10.279   4.362  65.884  1.00  0.00    -0.227 C  
BRANCH   8   9
HETATM    9  C   UNL     1      -9.197   5.412  65.566  1.00  0.00    -0.081 C  
BRANCH   9  10
HETATM   10  N   UNL     1      -8.501   5.863  66.784  1.00  0.00    -0.109 NA 
HETATM   11  H   UNL     1      -7.646   5.333  66.954  1.00  0.00     0.000 HD 
BRANCH  10  12
HETATM   12  C   UNL     1      -8.246   7.312  66.716  1.00  0.00    -0.121 C  
BRANCH  12  13
HETATM   13  C   UNL     1      -9.554   8.120  66.807  1.00  0.00    -0.217 C  
HETATM   14  N   UNL     1      -9.806   8.914  65.599  1.00  0.00    -0.453 NA 
HETATM   15  H1  UNL     1     -10.672   9.449  65.658  1.00  0.00     0.000 HD 
HETATM   16  H2  UNL     1      -9.792   8.327  64.764  1.00  0.00     0.000 HD 
ENDBRANCH  12  13
ENDBRANCH  10  12
ENDBRANCH   9  10
ENDBRANCH   8   9
ENDBRANCH   6   8
ENDBRANCH   5   6
ENDBRANCH   3   5
TORSDOF 7
ENDMDL
MODEL      198
REMARK 921   NORMALIZED FREE ENERGY PREDICTED BY IDOCK:   -2.00 KCAL/MOL
REMARK 922        TOTAL FREE ENERGY PREDICTED BY IDOCK:   -3.32 KCAL/MOL
REMARK 923 INTER-LIGAND FREE ENERGY PREDICTED BY IDOCK:   -3.02 KCAL/MOL
REMARK 924 INTRA-LIGAND FREE ENERGY PREDICTED BY IDOCK:   -0.30 KCAL/MOL
REMARK 927      BINDING AFFINITY PREDICTED BY RF-SCORE:    0.00 PKD
ROOT
HETATM    1  N   UNL     1     -10.620  18.368  67.311  1.00  0.00    -0.415 NA 
HETATM    2  H2  UNL     1     -10.669  18.595  68.305  1.00  0.00     0.000 HD 
HETATM    3  C   UNL     1      -9.246  18.472  66.814  1.00  0.00    -0.297 C  
HETATM    4  H1  UNL     1     -11.275  18.936  66.773  1.00  0.00     0.000 HD 
ENDROOT
BRANCH   3   5
HETATM    5  C   UNL     1      -8.257  17.616  67.626  1.00  0.00    -0.224 C  
BRANCH   5   6
HETATM    6  N   UNL     1      -7.961  18.226  68.928  1.00  0.00    -0.235 NA 
HETATM    7  H   UNL     1      -7.339  17.640  69.483  1.00  0.00     0.000 HD 
BRANCH   6   8
HETATM    8  C   UNL     1      -7.425  19.585  68.771  1.00  0.00    -0.352 C  
BRANCH   8   9
HETATM    9  C   UNL     1      -5.884  19.564  68.761  1.00  0.00    -0.225 C  
BRANCH   9  10
HETATM   10  N   UNL     1      -5.327  20.728  68.051  1.00  0.00    -0.240 NA 
HETATM   11  H   UNL     1      -4.457  20.500  67.568  1.00  0.00     0.000 HD 
BRANCH  10  12
HETATM   12  C   UNL     1      -6.332  21.293  67.135  1.00  0.00    -0.341 C  
BRANCH  12  13
HETATM   13  C   UNL     1      -5.900  21.148  65.664  1.00  0.00    -0.232 C  
HETATM   14  N   UNL     1      -6.982  20.645  64.810  1.00  0.00    -0.458 NA 
HETATM   15  H1  UNL     1      -6.696  20.549  63.836  1.00  0.00     0.000 HD 
HETATM   16  H2  UNL     1      -7.815  21.227  64.892  1.00  0.00     0.000 HD 
ENDBRANCH  12  13
ENDBRANCH  10  12
ENDBRANCH   9  10
ENDBRANCH   8   9
ENDBRANCH   6   8
ENDBRANCH   5   6
ENDBRANCH   3   5
TORSDOF 7
ENDMDL
MODEL      199
REMARK 921   NORMALIZED FREE ENERGY PREDICTED BY IDOCK:   -1.99 KCAL/MOL
REMARK 922        TOTAL FREE ENERGY PREDICTED BY IDOCK:   -3.31 KCAL/MOL
REMARK 923 INTER-LIGAND FREE ENERGY PREDICTED BY IDOCK:   -3.20 KCAL/MOL
REMARK 924 INTRA-LIGAND FREE ENERGY PREDICTED BY IDOCK:   -0.11 KCAL/MOL
REMARK 927      BINDING AFFINITY PREDICTED BY RF-SCORE:    0.00 PKD
ROOT
HETATM    1  N   UNL     1      -8.513   6.645  67.320  1.00  0.00    -0.119 NA 
HETATM    2  H2  UNL     1      -8.373   6.126  68.187  1.00  0.00     0.000 HD 
HETATM    3  C   UNL     1      -9.831   7.287  67.297  1.00  0.00    -0.171 C  
HETATM    4  H1  UNL     1      -8.354   6.050  66.507  1.00  0.00     0.000 HD 
ENDROOT
BRANCH   3   5
HETATM    5  C   UNL     1     -10.071   8.185  68.525  1.00  0.00    -0.200 C  
BRANCH   5   6
HETATM    6  N   UNL     1     -10.912   9.339  68.191  1.00  0.00    -0.486 NA 
HETATM    7  H   UNL     1     -11.902   9.094  68.189  1.00  0.00     0.000 HD 
BRANCH   6   8
HETATM    8  C   UNL     1     -10.640  10.474  69.084  1.00  0.00    -0.229 C  
BRANCH   8   9
HETATM    9  C   UNL     1     -11.939  11.243  69.397  1.00  0.00    -0.341 C  
BRANCH   9  10
HETATM   10  N   UNL     1     -11.810  12.053  70.622  1.00  0.00    -0.468 NA 
HETATM   11  H   UNL     1     -10.844  12.100  70.948  1.00  0.00     0.000 HD 
BRANCH  10  12
HETATM   12  C   UNL     1     -12.385  13.391  70.409  1.00  0.00    -0.312 C  
BRANCH  12  13
HETATM   13  C   UNL     1     -11.788  14.068  69.160  1.00  0.00    -0.350 C  
HETATM   14  N   UNL     1     -12.442  15.345  68.850  1.00  0.00    -0.524 NA 
HETATM   15  H1  UNL     1     -12.047  15.793  68.023  1.00  0.00     0.000 HD 
HETATM   16  H2  UNL     1     -12.423  15.973  69.653  1.00  0.00     0.000 HD 
ENDBRANCH  12  13
ENDBRANCH  10  12
ENDBRANCH   9  10
ENDBRANCH   8   9
ENDBRANCH   6   8
ENDBRANCH   5   6
ENDBRANCH   3   5
TORSDOF 7
ENDMDL
MODEL      200
REMARK 921   NORMALIZED FREE ENERGY PREDICTED BY IDOCK:   -1.99 KCAL/MOL
REMARK 922        TOTAL FREE ENERGY PREDICTED BY IDOCK:   -3.31 KCAL/MOL
REMARK 923 INTER-LIGAND FREE ENERGY PREDICTED BY IDOCK:   -3.01 KCAL/MOL
REMARK 924 INTRA-LIGAND FREE ENERGY PREDICTED BY IDOCK:   -0.30 KCAL/MOL
REMARK 927      BINDING AFFINITY PREDICTED BY RF-SCORE:    0.00 PKD
ROOT
HETATM    1  N   UNL     1     -10.384  10.095  70.242  1.00  0.00    -0.407 NA 
HETATM    2  H2  UNL     1     -10.359   9.283  69.625  1.00  0.00     0.000 HD 
HETATM    3  C   UNL     1     -11.456   9.972  71.233  1.00  0.00    -0.314 C  
HETATM    4  H1  UNL     1     -10.445  10.961  69.705  1.00  0.00     0.000 HD 
ENDROOT
BRANCH   3   5
HETATM    5  C   UNL     1     -11.363   8.665  72.042  1.00  0.00    -0.362 C  
BRANCH   5   6
HETATM    6  N   UNL     1     -10.286   7.801  71.548  1.00  0.00    -0.181 NA 
HETATM    7  H   UNL     1      -9.551   7.683  72.244  1.00  0.00     0.000 HD 
BRANCH   6   8
HETATM    8  C   UNL     1     -10.808   6.506  71.090  1.00  0.00    -0.249 C  
BRANCH   8   9
HETATM    9  C   UNL     1     -11.973   6.708  70.102  1.00  0.00    -0.186 C  
BRANCH   9  10
HETATM   10  N   UNL     1     -11.495   7.152  68.780  1.00  0.00    -0.315 NA 
HETATM   11  H   UNL     1     -10.975   8.029  68.838  1.00  0.00     0.000 HD 
BRANCH  10  12
HETATM   12  C   UNL     1     -10.707   6.086  68.140  1.00  0.00    -0.278 C  
BRANCH  12  13
HETATM   13  C   UNL     1     -10.378   6.431  66.675  1.00  0.00    -0.155 C  
HETATM   14  N   UNL     1     -10.768   5.363  65.748  1.00  0.00    -0.562 NA 
HETATM   15  H1  UNL     1     -10.550   5.592  64.778  1.00  0.00     0.000 HD 
HETATM   16  H2  UNL     1     -11.753   5.124  65.857  1.00  0.00     0.000 HD 
ENDBRANCH  12  13
ENDBRANCH  10  12
ENDBRANCH   9  10
ENDBRANCH   8   9
ENDBRANCH   6   8
ENDBRANCH   5   6
ENDBRANCH   3   5
TORSDOF 7
ENDMDL
MODEL      201
REMARK 921   NORMALIZED FREE ENERGY PREDICTED BY IDOCK:   -1.98 KCAL/MOL
REMARK 922        TOTAL FREE ENERGY PREDICTED BY IDOCK:   -3.30 KCAL/MOL
REMARK 923 INTER-LIGAND FREE ENERGY PREDICTED BY IDOCK:   -3.06 KCAL/MOL
REMARK 924 INTRA-LIGAND FREE ENERGY PREDICTED BY IDOCK:   -0.24 KCAL/MOL
REMARK 927      BINDING AFFINITY PREDICTED BY RF-SCORE:    0.00 PKD
ROOT
HETATM    1  N   UNL     1     -12.033  12.062  66.555  1.00  0.00    -0.601 NA 
HETATM    2  H2  UNL     1     -11.689  12.486  65.694  1.00  0.00     0.000 HD 
HETATM    3  C   UNL     1     -10.962  11.350  67.257  1.00  0.00    -0.282 C  
HETATM    4  H1  UNL     1     -12.843  11.469  66.373  1.00  0.00     0.000 HD 
ENDROOT
BRANCH   3   5
HETATM    5  C   UNL     1      -9.739  12.244  67.531  1.00  0.00    -0.190 C  
BRANCH   5   6
HETATM    6  N   UNL     1     -10.099  13.666  67.515  1.00  0.00    -0.235 NA 
HETATM    7  H   UNL     1     -10.614  13.932  68.353  1.00  0.00     0.000 HD 
BRANCH   6   8
HETATM    8  C   UNL     1      -8.914  14.514  67.319  1.00  0.00    -0.210 C  
BRANCH   8   9
HETATM    9  C   UNL     1      -9.190  15.597  66.258  1.00  0.00    -0.330 C  
BRANCH   9  10
HETATM   10  N   UNL     1      -9.199  16.948  66.848  1.00  0.00    -0.229 NA 
HETATM   11  H   UNL     1      -8.883  17.656  66.184  1.00  0.00     0.000 HD 
BRANCH  10  12
HETATM   12  C   UNL     1     -10.533  17.258  67.388  1.00  0.00    -0.338 C  
BRANCH  12  13
HETATM   13  C   UNL     1     -10.495  17.433  68.918  1.00  0.00    -0.312 C  
HETATM   14  N   UNL     1     -11.361  16.473  69.613  1.00  0.00    -0.334 NA 
HETATM   15  H1  UNL     1     -11.336  16.589  70.625  1.00  0.00     0.000 HD 
HETATM   16  H2  UNL     1     -11.135  15.515  69.346  1.00  0.00     0.000 HD 
ENDBRANCH  12  13
ENDBRANCH  10  12
ENDBRANCH   9  10
ENDBRANCH   8   9
ENDBRANCH   6   8
ENDBRANCH   5   6
ENDBRANCH   3   5
TORSDOF 7
ENDMDL
MODEL      202
REMARK 921   NORMALIZED FREE ENERGY PREDICTED BY IDOCK:   -1.98 KCAL/MOL
REMARK 922        TOTAL FREE ENERGY PREDICTED BY IDOCK:   -3.29 KCAL/MOL
REMARK 923 INTER-LIGAND FREE ENERGY PREDICTED BY IDOCK:   -3.15 KCAL/MOL
REMARK 924 INTRA-LIGAND FREE ENERGY PREDICTED BY IDOCK:   -0.14 KCAL/MOL
REMARK 927      BINDING AFFINITY PREDICTED BY RF-SCORE:    0.00 PKD
ROOT
HETATM    1  N   UNL     1     -12.261  14.448  64.017  1.00  0.00    -0.890 NA 
HETATM    2  H2  UNL     1     -11.282  14.640  63.802  1.00  0.00     0.000 HD 
HETATM    3  C   UNL     1     -12.388  13.708  65.276  1.00  0.00    -0.465 C  
HETATM    4  H1  UNL     1     -12.721  13.976  63.238  1.00  0.00     0.000 HD 
ENDROOT
BRANCH   3   5
HETATM    5  C   UNL     1     -11.693  14.420  66.451  1.00  0.00    -0.386 C  
BRANCH   5   6
HETATM    6  N   UNL     1     -11.381  15.816  66.126  1.00  0.00     0.030 NA 
HETATM    7  H   UNL     1     -12.220  16.339  65.876  1.00  0.00     0.000 HD 
BRANCH   6   8
HETATM    8  C   UNL     1     -10.645  16.467  67.219  1.00  0.00    -0.293 C  
BRANCH   8   9
HETATM    9  C   UNL     1      -9.805  17.643  66.684  1.00  0.00    -0.309 C  
BRANCH   9  10
HETATM   10  N   UNL     1      -8.473  17.691  67.314  1.00  0.00    -0.213 NA 
HETATM   11  H   UNL     1      -8.070  18.629  67.282  1.00  0.00     0.000 HD 
BRANCH  10  12
HETATM   12  C   UNL     1      -8.542  17.168  68.688  1.00  0.00    -0.260 C  
BRANCH  12  13
HETATM   13  C   UNL     1      -7.141  16.829  69.233  1.00  0.00    -0.198 C  
HETATM   14  N   UNL     1      -6.070  17.466  68.457  1.00  0.00    -0.163 NA 
HETATM   15  H1  UNL     1      -5.143  17.241  68.818  1.00  0.00     0.000 HD 
HETATM   16  H2  UNL     1      -6.208  18.475  68.400  1.00  0.00     0.000 HD 
ENDBRANCH  12  13
ENDBRANCH  10  12
ENDBRANCH   9  10
ENDBRANCH   8   9
ENDBRANCH   6   8
ENDBRANCH   5   6
ENDBRANCH   3   5
TORSDOF 7
ENDMDL
MODEL      203
REMARK 921   NORMALIZED FREE ENERGY PREDICTED BY IDOCK:   -1.96 KCAL/MOL
REMARK 922        TOTAL FREE ENERGY PREDICTED BY IDOCK:   -3.27 KCAL/MOL
REMARK 923 INTER-LIGAND FREE ENERGY PREDICTED BY IDOCK:   -3.14 KCAL/MOL
REMARK 924 INTRA-LIGAND FREE ENERGY PREDICTED BY IDOCK:   -0.13 KCAL/MOL
REMARK 927      BINDING AFFINITY PREDICTED BY RF-SCORE:    0.00 PKD
ROOT
HETATM    1  N   UNL     1     -11.563  16.540  69.029  1.00  0.00    -0.195 NA 
HETATM    2  H2  UNL     1     -12.306  16.343  68.359  1.00  0.00     0.000 HD 
HETATM    3  C   UNL     1     -11.409  15.440  69.985  1.00  0.00    -0.306 C  
HETATM    4  H1  UNL     1     -11.713  17.439  69.489  1.00  0.00     0.000 HD 
ENDROOT
BRANCH   3   5
HETATM    5  C   UNL     1     -11.183  14.084  69.291  1.00  0.00    -0.261 C  
BRANCH   5   6
HETATM    6  N   UNL     1     -12.144  13.870  68.203  1.00  0.00    -0.478 NA 
HETATM    7  H   UNL     1     -12.850  14.605  68.177  1.00  0.00     0.000 HD 
BRANCH   6   8
HETATM    8  C   UNL     1     -11.461  13.733  66.908  1.00  0.00    -0.347 C  
BRANCH   8   9
HETATM    9  C   UNL     1     -10.845  12.328  66.764  1.00  0.00    -0.253 C  
BRANCH   9  10
HETATM   10  N   UNL     1     -11.678  11.299  67.413  1.00  0.00    -0.584 NA 
HETATM   11  H   UNL     1     -12.349  10.888  66.764  1.00  0.00     0.000 HD 
BRANCH  10  12
HETATM   12  C   UNL     1     -10.825  10.278  68.044  1.00  0.00    -0.275 C  
BRANCH  12  13
HETATM   13  C   UNL     1     -11.252  10.007  69.498  1.00  0.00    -0.208 C  
HETATM   14  N   UNL     1     -10.573  10.889  70.455  1.00  0.00    -0.232 NA 
HETATM   15  H1  UNL     1     -10.856  10.709  71.418  1.00  0.00     0.000 HD 
HETATM   16  H2  UNL     1     -10.706  11.869  70.209  1.00  0.00     0.000 HD 
ENDBRANCH  12  13
ENDBRANCH  10  12
ENDBRANCH   9  10
ENDBRANCH   8   9
ENDBRANCH   6   8
ENDBRANCH   5   6
ENDBRANCH   3   5
TORSDOF 7
ENDMDL
MODEL      204
REMARK 921   NORMALIZED FREE ENERGY PREDICTED BY IDOCK:   -1.94 KCAL/MOL
REMARK 922        TOTAL FREE ENERGY PREDICTED BY IDOCK:   -3.24 KCAL/MOL
REMARK 923 INTER-LIGAND FREE ENERGY PREDICTED BY IDOCK:   -3.23 KCAL/MOL
REMARK 924 INTRA-LIGAND FREE ENERGY PREDICTED BY IDOCK:   -0.01 KCAL/MOL
REMARK 927      BINDING AFFINITY PREDICTED BY RF-SCORE:    0.00 PKD
ROOT
HETATM    1  N   UNL     1     -11.381   4.286  64.954  1.00  0.00    -1.051 NA 
HETATM    2  H2  UNL     1     -11.584   5.138  64.431  1.00  0.00     0.000 HD 
HETATM    3  C   UNL     1     -10.017   4.311  65.492  1.00  0.00    -0.225 C  
HETATM    4  H1  UNL     1     -11.562   3.457  64.388  1.00  0.00     0.000 HD 
ENDROOT
BRANCH   3   5
HETATM    5  C   UNL     1      -9.743   5.563  66.345  1.00  0.00    -0.163 C  
BRANCH   5   6
HETATM    6  N   UNL     1     -10.989   6.230  66.738  1.00  0.00    -0.664 NA 
HETATM    7  H   UNL     1     -11.797   5.819  66.271  1.00  0.00     0.000 HD 
BRANCH   6   8
HETATM    8  C   UNL     1     -11.154   6.236  68.198  1.00  0.00    -0.266 C  
BRANCH   8   9
HETATM    9  C   UNL     1     -10.121   7.170  68.859  1.00  0.00    -0.177 C  
BRANCH   9  10
HETATM   10  N   UNL     1     -10.109   8.501  68.227  1.00  0.00    -0.186 NA 
HETATM   11  H   UNL     1     -10.293   9.245  68.901  1.00  0.00     0.000 HD 
BRANCH  10  12
HETATM   12  C   UNL     1      -8.840   8.711  67.509  1.00  0.00    -0.135 C  
BRANCH  12  13
HETATM   13  C   UNL     1      -8.938   9.894  66.527  1.00  0.00    -0.146 C  
HETATM   14  N   UNL     1      -9.044   9.456  65.131  1.00  0.00    -0.223 NA 
HETATM   15  H1  UNL     1      -9.109  10.240  64.481  1.00  0.00     0.000 HD 
HETATM   16  H2  UNL     1      -9.824   8.811  65.007  1.00  0.00     0.000 HD 
ENDBRANCH  12  13
ENDBRANCH  10  12
ENDBRANCH   9  10
ENDBRANCH   8   9
ENDBRANCH   6   8
ENDBRANCH   5   6
ENDBRANCH   3   5
TORSDOF 7
ENDMDL
MODEL      205
REMARK 921   NORMALIZED FREE ENERGY PREDICTED BY IDOCK:   -1.94 KCAL/MOL
REMARK 922        TOTAL FREE ENERGY PREDICTED BY IDOCK:   -3.24 KCAL/MOL
REMARK 923 INTER-LIGAND FREE ENERGY PREDICTED BY IDOCK:   -2.77 KCAL/MOL
REMARK 924 INTRA-LIGAND FREE ENERGY PREDICTED BY IDOCK:   -0.47 KCAL/MOL
REMARK 927      BINDING AFFINITY PREDICTED BY RF-SCORE:    0.00 PKD
ROOT
HETATM    1  N   UNL     1      -6.281  13.576  70.956  1.00  0.00    -0.521 NA 
HETATM    2  H2  UNL     1      -6.493  14.306  71.637  1.00  0.00     0.000 HD 
HETATM    3  C   UNL     1      -6.600  14.017  69.595  1.00  0.00    -0.099 C  
HETATM    4  H1  UNL     1      -6.744  12.701  71.202  1.00  0.00     0.000 HD 
ENDROOT
BRANCH   3   5
HETATM    5  C   UNL     1      -5.903  15.339  69.225  1.00  0.00    -0.099 C  
BRANCH   5   6
HETATM    6  N   UNL     1      -6.777  16.493  69.463  1.00  0.00    -0.223 NA 
HETATM    7  H   UNL     1      -7.484  16.288  70.168  1.00  0.00     0.000 HD 
BRANCH   6   8
HETATM    8  C   UNL     1      -5.997  17.688  69.814  1.00  0.00    -0.245 C  
BRANCH   8   9
HETATM    9  C   UNL     1      -6.603  18.944  69.157  1.00  0.00    -0.291 C  
BRANCH   9  10
HETATM   10  N   UNL     1      -7.697  18.601  68.232  1.00  0.00    -0.288 NA 
HETATM   11  H   UNL     1      -7.857  17.594  68.188  1.00  0.00     0.000 HD 
BRANCH  10  12
HETATM   12  C   UNL     1      -8.920  19.336  68.595  1.00  0.00    -0.374 C  
BRANCH  12  13
HETATM   13  C   UNL     1     -10.124  18.388  68.744  1.00  0.00    -0.363 C  
HETATM   14  N   UNL     1      -9.736  16.975  68.669  1.00  0.00    -0.271 NA 
HETATM   15  H1  UNL     1     -10.534  16.347  68.768  1.00  0.00     0.000 HD 
HETATM   16  H2  UNL     1      -9.010  16.756  69.350  1.00  0.00     0.000 HD 
ENDBRANCH  12  13
ENDBRANCH  10  12
ENDBRANCH   9  10
ENDBRANCH   8   9
ENDBRANCH   6   8
ENDBRANCH   5   6
ENDBRANCH   3   5
TORSDOF 7
ENDMDL
MODEL      206
REMARK 921   NORMALIZED FREE ENERGY PREDICTED BY IDOCK:   -1.93 KCAL/MOL
REMARK 922        TOTAL FREE ENERGY PREDICTED BY IDOCK:   -3.23 KCAL/MOL
REMARK 923 INTER-LIGAND FREE ENERGY PREDICTED BY IDOCK:   -3.13 KCAL/MOL
REMARK 924 INTRA-LIGAND FREE ENERGY PREDICTED BY IDOCK:   -0.10 KCAL/MOL
REMARK 927      BINDING AFFINITY PREDICTED BY RF-SCORE:    0.00 PKD
ROOT
HETATM    1  N   UNL     1     -14.344   8.784  73.050  1.00  0.00    -1.133 NA 
HETATM    2  H2  UNL     1     -14.440   9.744  73.381  1.00  0.00     0.000 HD 
HETATM    3  C   UNL     1     -13.718   8.744  71.725  1.00  0.00    -0.419 C  
HETATM    4  H1  UNL     1     -15.240   8.297  73.073  1.00  0.00     0.000 HD 
ENDROOT
BRANCH   3   5
HETATM    5  C   UNL     1     -12.366   9.480  71.689  1.00  0.00    -0.398 C  
BRANCH   5   6
HETATM    6  N   UNL     1     -11.309   8.637  71.119  1.00  0.00    -0.264 NA 
HETATM    7  H   UNL     1     -11.635   8.135  70.294  1.00  0.00     0.000 HD 
BRANCH   6   8
HETATM    8  C   UNL     1     -10.099   9.419  70.833  1.00  0.00    -0.296 C  
BRANCH   8   9
HETATM    9  C   UNL     1      -8.926   8.490  70.463  1.00  0.00    -0.155 C  
BRANCH   9  10
HETATM   10  N   UNL     1      -7.624   9.106  70.776  1.00  0.00    -0.123 NA 
HETATM   11  H   UNL     1      -7.645   9.612  71.662  1.00  0.00     0.000 HD 
BRANCH  10  12
HETATM   12  C   UNL     1      -6.561   8.087  70.750  1.00  0.00    -0.037 C  
BRANCH  12  13
HETATM   13  C   UNL     1      -5.791   8.042  72.084  1.00  0.00    -0.038 C  
HETATM   14  N   UNL     1      -6.542   8.658  73.184  1.00  0.00    -0.263 NA 
HETATM   15  H1  UNL     1      -6.033   8.628  74.067  1.00  0.00     0.000 HD 
HETATM   16  H2  UNL     1      -7.466   8.238  73.278  1.00  0.00     0.000 HD 
ENDBRANCH  12  13
ENDBRANCH  10  12
ENDBRANCH   9  10
ENDBRANCH   8   9
ENDBRANCH   6   8
ENDBRANCH   5   6
ENDBRANCH   3   5
TORSDOF 7
ENDMDL
MODEL      207
REMARK 921   NORMALIZED FREE ENERGY PREDICTED BY IDOCK:   -1.92 KCAL/MOL
REMARK 922        TOTAL FREE ENERGY PREDICTED BY IDOCK:   -3.21 KCAL/MOL
REMARK 923 INTER-LIGAND FREE ENERGY PREDICTED BY IDOCK:   -3.00 KCAL/MOL
REMARK 924 INTRA-LIGAND FREE ENERGY PREDICTED BY IDOCK:   -0.21 KCAL/MOL
REMARK 927      BINDING AFFINITY PREDICTED BY RF-SCORE:    0.00 PKD
ROOT
HETATM    1  N   UNL     1      -9.872  11.492  69.102  1.00  0.00    -0.418 NA 
HETATM    2  H2  UNL     1      -9.623  11.921  69.994  1.00  0.00     0.000 HD 
HETATM    3  C   UNL     1     -10.828  12.323  68.365  1.00  0.00    -0.230 C  
HETATM    4  H1  UNL     1     -10.206  10.537  69.237  1.00  0.00     0.000 HD 
ENDROOT
BRANCH   3   5
HETATM    5  C   UNL     1     -10.325  13.763  68.163  1.00  0.00    -0.252 C  
BRANCH   5   6
HETATM    6  N   UNL     1     -10.183  14.468  69.443  1.00  0.00    -0.414 NA 
HETATM    7  H   UNL     1      -9.530  13.990  70.063  1.00  0.00     0.000 HD 
BRANCH   6   8
HETATM    8  C   UNL     1      -9.803  15.873  69.239  1.00  0.00    -0.259 C  
BRANCH   8   9
HETATM    9  C   UNL     1      -8.280  16.000  69.039  1.00  0.00    -0.235 C  
BRANCH   9  10
HETATM   10  N   UNL     1      -7.951  16.652  67.759  1.00  0.00    -0.169 NA 
HETATM   11  H   UNL     1      -7.593  15.986  67.073  1.00  0.00     0.000 HD 
BRANCH  10  12
HETATM   12  C   UNL     1      -9.118  17.391  67.251  1.00  0.00    -0.237 C  
BRANCH  12  13
HETATM   13  C   UNL     1      -8.736  18.820  66.819  1.00  0.00    -0.300 C  
HETATM   14  N   UNL     1      -7.711  18.832  65.770  1.00  0.00    -0.490 NA 
HETATM   15  H1  UNL     1      -7.458  19.778  65.484  1.00  0.00     0.000 HD 
HETATM   16  H2  UNL     1      -7.999  18.271  64.968  1.00  0.00     0.000 HD 
ENDBRANCH  12  13
ENDBRANCH  10  12
ENDBRANCH   9  10
ENDBRANCH   8   9
ENDBRANCH   6   8
ENDBRANCH   5   6
ENDBRANCH   3   5
TORSDOF 7
ENDMDL
MODEL      208
REMARK 921   NORMALIZED FREE ENERGY PREDICTED BY IDOCK:   -1.92 KCAL/MOL
REMARK 922        TOTAL FREE ENERGY PREDICTED BY IDOCK:   -3.21 KCAL/MOL
REMARK 923 INTER-LIGAND FREE ENERGY PREDICTED BY IDOCK:   -2.94 KCAL/MOL
REMARK 924 INTRA-LIGAND FREE ENERGY PREDICTED BY IDOCK:   -0.26 KCAL/MOL
REMARK 927      BINDING AFFINITY PREDICTED BY RF-SCORE:    0.00 PKD
ROOT
HETATM    1  N   UNL     1     -10.849   4.674  65.110  1.00  0.00    -0.666 NA 
HETATM    2  H2  UNL     1     -10.463   5.435  64.551  1.00  0.00     0.000 HD 
HETATM    3  C   UNL     1     -10.482   4.819  66.522  1.00  0.00    -0.204 C  
HETATM    4  H1  UNL     1     -10.582   3.767  64.728  1.00  0.00     0.000 HD 
ENDROOT
BRANCH   3   5
HETATM    5  C   UNL     1     -10.885   6.188  67.099  1.00  0.00    -0.360 C  
BRANCH   5   6
HETATM    6  N   UNL     1     -10.398   7.289  66.260  1.00  0.00    -0.405 NA 
HETATM    7  H   UNL     1     -11.038   7.485  65.491  1.00  0.00     0.000 HD 
BRANCH   6   8
HETATM    8  C   UNL     1     -10.133   8.493  67.061  1.00  0.00    -0.277 C  
BRANCH   8   9
HETATM    9  C   UNL     1      -8.830   9.176  66.600  1.00  0.00    -0.128 C  
BRANCH   9  10
HETATM   10  N   UNL     1      -9.099  10.451  65.911  1.00  0.00    -0.159 NA 
HETATM   11  H   UNL     1      -8.529  11.212  66.283  1.00  0.00     0.000 HD 
BRANCH  10  12
HETATM   12  C   UNL     1      -8.923  10.291  64.458  1.00  0.00    -0.219 C  
BRANCH  12  13
HETATM   13  C   UNL     1      -7.979   9.118  64.131  1.00  0.00    -0.140 C  
HETATM   14  N   UNL     1      -8.642   8.066  63.354  1.00  0.00    -0.388 NA 
HETATM   15  H1  UNL     1      -8.017   7.290  63.137  1.00  0.00     0.000 HD 
HETATM   16  H2  UNL     1      -9.064   8.445  62.506  1.00  0.00     0.000 HD 
ENDBRANCH  12  13
ENDBRANCH  10  12
ENDBRANCH   9  10
ENDBRANCH   8   9
ENDBRANCH   6   8
ENDBRANCH   5   6
ENDBRANCH   3   5
TORSDOF 7
ENDMDL
MODEL      209
REMARK 921   NORMALIZED FREE ENERGY PREDICTED BY IDOCK:   -1.91 KCAL/MOL
REMARK 922        TOTAL FREE ENERGY PREDICTED BY IDOCK:   -3.20 KCAL/MOL
REMARK 923 INTER-LIGAND FREE ENERGY PREDICTED BY IDOCK:   -2.93 KCAL/MOL
REMARK 924 INTRA-LIGAND FREE ENERGY PREDICTED BY IDOCK:   -0.27 KCAL/MOL
REMARK 927      BINDING AFFINITY PREDICTED BY RF-SCORE:    0.00 PKD
ROOT
HETATM    1  N   UNL     1      -8.784  11.346  65.233  1.00  0.00    -0.391 NA 
HETATM    2  H2  UNL     1      -8.060  11.277  65.949  1.00  0.00     0.000 HD 
HETATM    3  C   UNL     1      -8.772  10.171  64.357  1.00  0.00    -0.202 C  
HETATM    4  H1  UNL     1      -8.703  12.221  64.714  1.00  0.00     0.000 HD 
ENDROOT
BRANCH   3   5
HETATM    5  C   UNL     1      -8.893   8.851  65.140  1.00  0.00    -0.166 C  
BRANCH   5   6
HETATM    6  N   UNL     1      -9.002   9.089  66.583  1.00  0.00    -0.130 NA 
HETATM    7  H   UNL     1      -8.802  10.061  66.818  1.00  0.00     0.000 HD 
BRANCH   6   8
HETATM    8  C   UNL     1     -10.314   8.670  67.096  1.00  0.00    -0.299 C  
BRANCH   8   9
HETATM    9  C   UNL     1     -10.865   9.707  68.094  1.00  0.00    -0.190 C  
BRANCH   9  10
HETATM   10  N   UNL     1     -11.573  10.802  67.407  1.00  0.00    -0.489 NA 
HETATM   11  H   UNL     1     -12.533  10.546  67.173  1.00  0.00     0.000 HD 
BRANCH  10  12
HETATM   12  C   UNL     1     -11.513  12.032  68.215  1.00  0.00    -0.303 C  
BRANCH  12  13
HETATM   13  C   UNL     1     -11.194  13.262  67.345  1.00  0.00    -0.289 C  
HETATM   14  N   UNL     1     -12.404  13.904  66.819  1.00  0.00    -0.472 NA 
HETATM   15  H1  UNL     1     -12.193  14.719  66.243  1.00  0.00     0.000 HD 
HETATM   16  H2  UNL     1     -13.050  14.143  67.571  1.00  0.00     0.000 HD 
ENDBRANCH  12  13
ENDBRANCH  10  12
ENDBRANCH   9  10
ENDBRANCH   8   9
ENDBRANCH   6   8
ENDBRANCH   5   6
ENDBRANCH   3   5
TORSDOF 7
ENDMDL
MODEL      210
REMARK 921   NORMALIZED FREE ENERGY PREDICTED BY IDOCK:   -1.90 KCAL/MOL
REMARK 922        TOTAL FREE ENERGY PREDICTED BY IDOCK:   -3.18 KCAL/MOL
REMARK 923 INTER-LIGAND FREE ENERGY PREDICTED BY IDOCK:   -2.67 KCAL/MOL
REMARK 924 INTRA-LIGAND FREE ENERGY PREDICTED BY IDOCK:   -0.51 KCAL/MOL
REMARK 927      BINDING AFFINITY PREDICTED BY RF-SCORE:    0.00 PKD
ROOT
HETATM    1  N   UNL     1     -10.711  18.382  67.400  1.00  0.00    -0.407 NA 
HETATM    2  H2  UNL     1     -10.711  18.679  68.376  1.00  0.00     0.000 HD 
HETATM    3  C   UNL     1      -9.405  18.616  66.778  1.00  0.00    -0.308 C  
HETATM    4  H1  UNL     1     -11.474  18.821  66.884  1.00  0.00     0.000 HD 
ENDROOT
BRANCH   3   5
HETATM    5  C   UNL     1      -8.253  17.955  67.557  1.00  0.00    -0.227 C  
BRANCH   5   6
HETATM    6  N   UNL     1      -7.579  16.929  66.754  1.00  0.00    -0.216 NA 
HETATM    7  H   UNL     1      -6.677  16.673  67.153  1.00  0.00     0.000 HD 
BRANCH   6   8
HETATM    8  C   UNL     1      -8.437  15.752  66.562  1.00  0.00    -0.300 C  
BRANCH   8   9
HETATM    9  C   UNL     1      -7.945  14.574  67.425  1.00  0.00    -0.200 C  
BRANCH   9  10
HETATM   10  N   UNL     1      -9.048  13.669  67.793  1.00  0.00    -0.189 NA 
HETATM   11  H   UNL     1      -8.896  13.231  68.702  1.00  0.00     0.000 HD 
BRANCH  10  12
HETATM   12  C   UNL     1     -10.333  14.385  67.736  1.00  0.00    -0.238 C  
BRANCH  12  13
HETATM   13  C   UNL     1     -10.907  14.625  69.146  1.00  0.00    -0.259 C  
HETATM   14  N   UNL     1     -11.285  16.026  69.365  1.00  0.00    -0.328 NA 
HETATM   15  H1  UNL     1     -11.665  16.185  70.298  1.00  0.00     0.000 HD 
HETATM   16  H2  UNL     1     -11.931  16.349  68.646  1.00  0.00     0.000 HD 
ENDBRANCH  12  13
ENDBRANCH  10  12
ENDBRANCH   9  10
ENDBRANCH   8   9
ENDBRANCH   6   8
ENDBRANCH   5   6
ENDBRANCH   3   5
TORSDOF 7
ENDMDL
MODEL      211
REMARK 921   NORMALIZED FREE ENERGY PREDICTED BY IDOCK:   -1.89 KCAL/MOL
REMARK 922        TOTAL FREE ENERGY PREDICTED BY IDOCK:   -3.17 KCAL/MOL
REMARK 923 INTER-LIGAND FREE ENERGY PREDICTED BY IDOCK:   -2.96 KCAL/MOL
REMARK 924 INTRA-LIGAND FREE ENERGY PREDICTED BY IDOCK:   -0.21 KCAL/MOL
REMARK 927      BINDING AFFINITY PREDICTED BY RF-SCORE:    0.00 PKD
ROOT
HETATM    1  N   UNL     1      -6.332  13.669  71.029  1.00  0.00    -0.495 NA 
HETATM    2  H2  UNL     1      -6.733  14.198  71.803  1.00  0.00     0.000 HD 
HETATM    3  C   UNL     1      -6.695  14.263  69.740  1.00  0.00    -0.095 C  
HETATM    4  H1  UNL     1      -6.585  12.682  71.090  1.00  0.00     0.000 HD 
ENDROOT
BRANCH   3   5
HETATM    5  C   UNL     1      -6.314  15.752  69.648  1.00  0.00    -0.178 C  
BRANCH   5   6
HETATM    6  N   UNL     1      -7.378  16.542  69.018  1.00  0.00    -0.220 NA 
HETATM    7  H   UNL     1      -7.161  17.539  69.030  1.00  0.00     0.000 HD 
BRANCH   6   8
HETATM    8  C   UNL     1      -7.660  16.067  67.657  1.00  0.00    -0.146 C  
BRANCH   8   9
HETATM    9  C   UNL     1      -9.158  16.221  67.327  1.00  0.00    -0.203 C  
BRANCH   9  10
HETATM   10  N   UNL     1      -9.834  17.125  68.274  1.00  0.00    -0.274 NA 
HETATM   11  H   UNL     1      -9.225  17.389  69.050  1.00  0.00     0.000 HD 
BRANCH  10  12
HETATM   12  C   UNL     1     -10.361  18.302  67.564  1.00  0.00    -0.398 C  
BRANCH  12  13
HETATM   13  C   UNL     1      -9.812  19.612  68.159  1.00  0.00    -0.418 C  
HETATM   14  N   UNL     1      -9.220  20.486  67.140  1.00  0.00    -0.537 NA 
HETATM   15  H1  UNL     1      -8.856  21.353  67.534  1.00  0.00     0.000 HD 
HETATM   16  H2  UNL     1      -9.882  20.673  66.387  1.00  0.00     0.000 HD 
ENDBRANCH  12  13
ENDBRANCH  10  12
ENDBRANCH   9  10
ENDBRANCH   8   9
ENDBRANCH   6   8
ENDBRANCH   5   6
ENDBRANCH   3   5
TORSDOF 7
ENDMDL
MODEL      212
REMARK 921   NORMALIZED FREE ENERGY PREDICTED BY IDOCK:   -1.87 KCAL/MOL
REMARK 922        TOTAL FREE ENERGY PREDICTED BY IDOCK:   -3.14 KCAL/MOL
REMARK 923 INTER-LIGAND FREE ENERGY PREDICTED BY IDOCK:   -3.03 KCAL/MOL
REMARK 924 INTRA-LIGAND FREE ENERGY PREDICTED BY IDOCK:   -0.12 KCAL/MOL
REMARK 927      BINDING AFFINITY PREDICTED BY RF-SCORE:    0.00 PKD
ROOT
HETATM    1  N   UNL     1      -5.521  17.937  69.996  1.00  0.00    -0.223 NA 
HETATM    2  H2  UNL     1      -4.901  17.224  69.612  1.00  0.00     0.000 HD 
HETATM    3  C   UNL     1      -6.755  18.041  69.212  1.00  0.00    -0.209 C  
HETATM    4  H1  UNL     1      -5.039  18.832  70.087  1.00  0.00     0.000 HD 
ENDROOT
BRANCH   3   5
HETATM    5  C   UNL     1      -7.482  16.691  69.075  1.00  0.00    -0.232 C  
BRANCH   5   6
HETATM    6  N   UNL     1      -8.651  16.797  68.194  1.00  0.00    -0.211 NA 
HETATM    7  H   UNL     1      -8.564  16.186  67.383  1.00  0.00     0.000 HD 
BRANCH   6   8
HETATM    8  C   UNL     1      -9.898  16.544  68.929  1.00  0.00    -0.260 C  
BRANCH   8   9
HETATM    9  C   UNL     1     -10.540  15.219  68.472  1.00  0.00    -0.237 C  
BRANCH   9  10
HETATM   10  N   UNL     1     -10.052  14.808  67.143  1.00  0.00    -0.239 NA 
HETATM   11  H   UNL     1      -9.170  14.299  67.202  1.00  0.00     0.000 HD 
BRANCH  10  12
HETATM   12  C   UNL     1     -11.088  14.036  66.438  1.00  0.00    -0.316 C  
BRANCH  12  13
HETATM   13  C   UNL     1     -10.864  14.051  64.914  1.00  0.00    -0.410 C  
HETATM   14  N   UNL     1     -12.103  14.298  64.169  1.00  0.00    -0.689 NA 
HETATM   15  H1  UNL     1     -11.955  14.309  63.160  1.00  0.00     0.000 HD 
HETATM   16  H2  UNL     1     -12.556  15.157  64.483  1.00  0.00     0.000 HD 
ENDBRANCH  12  13
ENDBRANCH  10  12
ENDBRANCH   9  10
ENDBRANCH   8   9
ENDBRANCH   6   8
ENDBRANCH   5   6
ENDBRANCH   3   5
TORSDOF 7
ENDMDL
MODEL      213
REMARK 921   NORMALIZED FREE ENERGY PREDICTED BY IDOCK:   -1.87 KCAL/MOL
REMARK 922        TOTAL FREE ENERGY PREDICTED BY IDOCK:   -3.14 KCAL/MOL
REMARK 923 INTER-LIGAND FREE ENERGY PREDICTED BY IDOCK:   -3.00 KCAL/MOL
REMARK 924 INTRA-LIGAND FREE ENERGY PREDICTED BY IDOCK:   -0.14 KCAL/MOL
REMARK 927      BINDING AFFINITY PREDICTED BY RF-SCORE:    0.00 PKD
ROOT
HETATM    1  N   UNL     1      -7.662  17.818  68.034  1.00  0.00    -0.231 NA 
HETATM    2  H2  UNL     1      -8.497  18.004  68.590  1.00  0.00     0.000 HD 
HETATM    3  C   UNL     1      -7.208  16.436  68.212  1.00  0.00    -0.149 C  
HETATM    4  H1  UNL     1      -6.930  18.499  68.235  1.00  0.00     0.000 HD 
ENDROOT
BRANCH   3   5
HETATM    5  C   UNL     1      -8.314  15.408  67.910  1.00  0.00    -0.144 C  
BRANCH   5   6
HETATM    6  N   UNL     1      -9.599  15.815  68.488  1.00  0.00    -0.199 NA 
HETATM    7  H   UNL     1     -10.110  16.439  67.865  1.00  0.00     0.000 HD 
BRANCH   6   8
HETATM    8  C   UNL     1     -10.408  14.648  68.864  1.00  0.00    -0.245 C  
BRANCH   8   9
HETATM    9  C   UNL     1     -11.906  15.012  68.897  1.00  0.00    -0.307 C  
BRANCH   9  10
HETATM   10  N   UNL     1     -12.572  14.472  70.096  1.00  0.00    -0.487 NA 
HETATM   11  H   UNL     1     -12.701  13.461  70.038  1.00  0.00     0.000 HD 
BRANCH  10  12
HETATM   12  C   UNL     1     -11.832  14.863  71.307  1.00  0.00    -0.339 C  
BRANCH  12  13
HETATM   13  C   UNL     1     -12.722  14.781  72.562  1.00  0.00    -0.368 C  
HETATM   14  N   UNL     1     -14.095  15.227  72.304  1.00  0.00    -0.529 NA 
HETATM   15  H1  UNL     1     -14.685  15.172  73.135  1.00  0.00     0.000 HD 
HETATM   16  H2  UNL     1     -14.509  14.714  71.526  1.00  0.00     0.000 HD 
ENDBRANCH  12  13
ENDBRANCH  10  12
ENDBRANCH   9  10
ENDBRANCH   8   9
ENDBRANCH   6   8
ENDBRANCH   5   6
ENDBRANCH   3   5
TORSDOF 7
ENDMDL
MODEL      214
REMARK 921   NORMALIZED FREE ENERGY PREDICTED BY IDOCK:   -1.87 KCAL/MOL
REMARK 922        TOTAL FREE ENERGY PREDICTED BY IDOCK:   -3.13 KCAL/MOL
REMARK 923 INTER-LIGAND FREE ENERGY PREDICTED BY IDOCK:   -3.07 KCAL/MOL
REMARK 924 INTRA-LIGAND FREE ENERGY PREDICTED BY IDOCK:   -0.06 KCAL/MOL
REMARK 927      BINDING AFFINITY PREDICTED BY RF-SCORE:    0.00 PKD
ROOT
HETATM    1  N   UNL     1      -5.866   4.441  67.991  1.00  0.00    -0.021 NA 
HETATM    2  H2  UNL     1      -5.630   4.890  67.106  1.00  0.00     0.000 HD 
HETATM    3  C   UNL     1      -6.652   5.337  68.844  1.00  0.00    -0.051 C  
HETATM    4  H1  UNL     1      -5.030   4.090  68.458  1.00  0.00     0.000 HD 
ENDROOT
BRANCH   3   5
HETATM    5  C   UNL     1      -7.913   5.867  68.138  1.00  0.00    -0.109 C  
BRANCH   5   6
HETATM    6  N   UNL     1      -9.135   5.452  68.836  1.00  0.00    -0.116 NA 
HETATM    7  H   UNL     1      -8.971   5.323  69.833  1.00  0.00     0.000 HD 
BRANCH   6   8
HETATM    8  C   UNL     1     -10.237   6.393  68.588  1.00  0.00    -0.174 C  
BRANCH   8   9
HETATM    9  C   UNL     1     -11.304   6.284  69.695  1.00  0.00    -0.422 C  
BRANCH   9  10
HETATM   10  N   UNL     1     -11.593   7.595  70.304  1.00  0.00    -0.477 NA 
HETATM   11  H   UNL     1     -11.750   8.316  69.599  1.00  0.00     0.000 HD 
BRANCH  10  12
HETATM   12  C   UNL     1     -12.724   7.482  71.239  1.00  0.00    -0.302 C  
BRANCH  12  13
HETATM   13  C   UNL     1     -12.645   8.546  72.350  1.00  0.00    -0.348 C  
HETATM   14  N   UNL     1     -13.964   8.883  72.898  1.00  0.00    -1.052 NA 
HETATM   15  H1  UNL     1     -13.911   9.587  73.634  1.00  0.00     0.000 HD 
HETATM   16  H2  UNL     1     -14.451   8.048  73.222  1.00  0.00     0.000 HD 
ENDBRANCH  12  13
ENDBRANCH  10  12
ENDBRANCH   9  10
ENDBRANCH   8   9
ENDBRANCH   6   8
ENDBRANCH   5   6
ENDBRANCH   3   5
TORSDOF 7
ENDMDL
MODEL      215
REMARK 921   NORMALIZED FREE ENERGY PREDICTED BY IDOCK:   -1.86 KCAL/MOL
REMARK 922        TOTAL FREE ENERGY PREDICTED BY IDOCK:   -3.13 KCAL/MOL
REMARK 923 INTER-LIGAND FREE ENERGY PREDICTED BY IDOCK:   -2.82 KCAL/MOL
REMARK 924 INTRA-LIGAND FREE ENERGY PREDICTED BY IDOCK:   -0.32 KCAL/MOL
REMARK 927      BINDING AFFINITY PREDICTED BY RF-SCORE:    0.00 PKD
ROOT
HETATM    1  N   UNL     1      -6.341  11.714  65.972  1.00  0.00    -0.412 NA 
HETATM    2  H2  UNL     1      -6.038  12.688  65.992  1.00  0.00     0.000 HD 
HETATM    3  C   UNL     1      -6.932  11.318  67.254  1.00  0.00    -0.109 C  
HETATM    4  H1  UNL     1      -5.579  11.099  65.686  1.00  0.00     0.000 HD 
ENDROOT
BRANCH   3   5
HETATM    5  C   UNL     1      -8.082  12.246  67.685  1.00  0.00    -0.165 C  
BRANCH   5   6
HETATM    6  N   UNL     1      -7.861  13.623  67.230  1.00  0.00    -0.318 NA 
HETATM    7  H   UNL     1      -7.338  13.650  66.356  1.00  0.00     0.000 HD 
BRANCH   6   8
HETATM    8  C   UNL     1      -9.128  14.360  67.124  1.00  0.00    -0.227 C  
BRANCH   8   9
HETATM    9  C   UNL     1      -9.803  14.086  65.766  1.00  0.00    -0.256 C  
BRANCH   9  10
HETATM   10  N   UNL     1     -11.258  13.901  65.908  1.00  0.00    -0.295 NA 
HETATM   11  H   UNL     1     -11.780  14.431  65.209  1.00  0.00     0.000 HD 
BRANCH  10  12
HETATM   12  C   UNL     1     -11.594  12.468  65.875  1.00  0.00    -0.405 C  
BRANCH  12  13
HETATM   13  C   UNL     1     -10.938  11.764  64.673  1.00  0.00    -0.310 C  
HETATM   14  N   UNL     1     -10.238  10.533  65.059  1.00  0.00    -0.317 NA 
HETATM   15  H1  UNL     1      -9.803  10.067  64.262  1.00  0.00     0.000 HD 
HETATM   16  H2  UNL     1     -10.858   9.900  65.562  1.00  0.00     0.000 HD 
ENDBRANCH  12  13
ENDBRANCH  10  12
ENDBRANCH   9  10
ENDBRANCH   8   9
ENDBRANCH   6   8
ENDBRANCH   5   6
ENDBRANCH   3   5
TORSDOF 7
ENDMDL
MODEL      216
REMARK 921   NORMALIZED FREE ENERGY PREDICTED BY IDOCK:   -1.85 KCAL/MOL
REMARK 922        TOTAL FREE ENERGY PREDICTED BY IDOCK:   -3.11 KCAL/MOL
REMARK 923 INTER-LIGAND FREE ENERGY PREDICTED BY IDOCK:   -2.58 KCAL/MOL
REMARK 924 INTRA-LIGAND FREE ENERGY PREDICTED BY IDOCK:   -0.52 KCAL/MOL
REMARK 927      BINDING AFFINITY PREDICTED BY RF-SCORE:    0.00 PKD
ROOT
HETATM    1  N   UNL     1      -9.394   3.160  70.046  1.00  0.00    -0.152 NA 
HETATM    2  H2  UNL     1      -9.920   2.424  70.516  1.00  0.00     0.000 HD 
HETATM    3  C   UNL     1     -10.013   4.471  70.262  1.00  0.00    -0.218 C  
HETATM    4  H1  UNL     1      -9.269   2.946  69.056  1.00  0.00     0.000 HD 
ENDROOT
BRANCH   3   5
HETATM    5  C   UNL     1     -10.203   4.795  71.756  1.00  0.00    -0.188 C  
BRANCH   5   6
HETATM    6  N   UNL     1     -11.347   5.687  71.972  1.00  0.00    -0.222 NA 
HETATM    7  H   UNL     1     -11.170   6.346  72.729  1.00  0.00     0.000 HD 
BRANCH   6   8
HETATM    8  C   UNL     1     -11.725   6.379  70.732  1.00  0.00    -0.312 C  
BRANCH   8   9
HETATM    9  C   UNL     1     -11.545   7.902  70.882  1.00  0.00    -0.273 C  
BRANCH   9  10
HETATM   10  N   UNL     1     -11.173   8.273  72.259  1.00  0.00    -0.347 NA 
HETATM   11  H   UNL     1     -11.298   7.497  72.910  1.00  0.00     0.000 HD 
BRANCH  10  12
HETATM   12  C   UNL     1      -9.799   8.800  72.290  1.00  0.00    -0.225 C  
BRANCH  12  13
HETATM   13  C   UNL     1      -8.949   8.097  73.365  1.00  0.00    -0.243 C  
HETATM   14  N   UNL     1      -9.769   7.347  74.323  1.00  0.00    -0.404 NA 
HETATM   15  H1  UNL     1      -9.207   6.881  75.035  1.00  0.00     0.000 HD 
HETATM   16  H2  UNL     1     -10.379   6.684  73.845  1.00  0.00     0.000 HD 
ENDBRANCH  12  13
ENDBRANCH  10  12
ENDBRANCH   9  10
ENDBRANCH   8   9
ENDBRANCH   6   8
ENDBRANCH   5   6
ENDBRANCH   3   5
TORSDOF 7
ENDMDL
MODEL      217
REMARK 921   NORMALIZED FREE ENERGY PREDICTED BY IDOCK:   -1.84 KCAL/MOL
REMARK 922        TOTAL FREE ENERGY PREDICTED BY IDOCK:   -3.10 KCAL/MOL
REMARK 923 INTER-LIGAND FREE ENERGY PREDICTED BY IDOCK:   -2.96 KCAL/MOL
REMARK 924 INTRA-LIGAND FREE ENERGY PREDICTED BY IDOCK:   -0.15 KCAL/MOL
REMARK 927      BINDING AFFINITY PREDICTED BY RF-SCORE:    0.00 PKD
ROOT
HETATM    1  N   UNL     1      -9.251   9.291  71.666  1.00  0.00    -0.280 NA 
HETATM    2  H2  UNL     1      -9.246  10.121  72.259  1.00  0.00     0.000 HD 
HETATM    3  C   UNL     1     -10.562   9.099  71.039  1.00  0.00    -0.292 C  
HETATM    4  H1  UNL     1      -8.942   8.469  72.185  1.00  0.00     0.000 HD 
ENDROOT
BRANCH   3   5
HETATM    5  C   UNL     1     -11.030  10.340  70.257  1.00  0.00    -0.309 C  
BRANCH   5   6
HETATM    6  N   UNL     1      -9.913  10.991  69.564  1.00  0.00    -0.435 NA 
HETATM    7  H   UNL     1      -9.021  10.558  69.802  1.00  0.00     0.000 HD 
BRANCH   6   8
HETATM    8  C   UNL     1     -10.130  11.018  68.111  1.00  0.00    -0.179 C  
BRANCH   8   9
HETATM    9  C   UNL     1     -11.555  11.503  67.783  1.00  0.00    -0.267 C  
BRANCH   9  10
HETATM   10  N   UNL     1     -11.557  12.888  67.278  1.00  0.00    -0.339 NA 
HETATM   11  H   UNL     1     -12.065  13.519  67.899  1.00  0.00     0.000 HD 
BRANCH  10  12
HETATM   12  C   UNL     1     -10.177  13.343  67.041  1.00  0.00    -0.249 C  
BRANCH  12  13
HETATM   13  C   UNL     1     -10.105  14.329  65.859  1.00  0.00    -0.326 C  
HETATM   14  N   UNL     1     -11.069  15.428  65.988  1.00  0.00    -0.282 NA 
HETATM   15  H1  UNL     1     -11.022  16.081  65.206  1.00  0.00     0.000 HD 
HETATM   16  H2  UNL     1     -10.957  15.912  66.879  1.00  0.00     0.000 HD 
ENDBRANCH  12  13
ENDBRANCH  10  12
ENDBRANCH   9  10
ENDBRANCH   8   9
ENDBRANCH   6   8
ENDBRANCH   5   6
ENDBRANCH   3   5
TORSDOF 7
ENDMDL
MODEL      218
REMARK 921   NORMALIZED FREE ENERGY PREDICTED BY IDOCK:   -1.84 KCAL/MOL
REMARK 922        TOTAL FREE ENERGY PREDICTED BY IDOCK:   -3.10 KCAL/MOL
REMARK 923 INTER-LIGAND FREE ENERGY PREDICTED BY IDOCK:   -2.84 KCAL/MOL
REMARK 924 INTRA-LIGAND FREE ENERGY PREDICTED BY IDOCK:   -0.26 KCAL/MOL
REMARK 927      BINDING AFFINITY PREDICTED BY RF-SCORE:    0.00 PKD
ROOT
HETATM    1  N   UNL     1      -5.722  11.191  65.320  1.00  0.00    -0.476 NA 
HETATM    2  H2  UNL     1      -6.272  11.576  64.552  1.00  0.00     0.000 HD 
HETATM    3  C   UNL     1      -6.440  11.307  66.593  1.00  0.00    -0.128 C  
HETATM    4  H1  UNL     1      -4.795  11.615  65.354  1.00  0.00     0.000 HD 
ENDROOT
BRANCH   3   5
HETATM    5  C   UNL     1      -7.839  10.667  66.541  1.00  0.00    -0.140 C  
BRANCH   5   6
HETATM    6  N   UNL     1      -8.886  11.637  66.881  1.00  0.00    -0.183 NA 
HETATM    7  H   UNL     1      -9.493  11.288  67.623  1.00  0.00     0.000 HD 
BRANCH   6   8
HETATM    8  C   UNL     1      -8.311  12.945  67.224  1.00  0.00    -0.185 C  
BRANCH   8   9
HETATM    9  C   UNL     1      -9.150  14.084  66.612  1.00  0.00    -0.200 C  
BRANCH   9  10
HETATM   10  N   UNL     1     -10.372  13.575  65.965  1.00  0.00    -0.296 NA 
HETATM   11  H   UNL     1     -10.623  12.645  66.304  1.00  0.00     0.000 HD 
BRANCH  10  12
HETATM   12  C   UNL     1     -11.473  14.537  66.130  1.00  0.00    -0.357 C  
BRANCH  12  13
HETATM   13  C   UNL     1     -11.505  15.118  67.557  1.00  0.00    -0.298 C  
HETATM   14  N   UNL     1     -12.213  14.246  68.501  1.00  0.00    -0.577 NA 
HETATM   15  H1  UNL     1     -12.233  14.630  69.445  1.00  0.00     0.000 HD 
HETATM   16  H2  UNL     1     -11.821  13.304  68.495  1.00  0.00     0.000 HD 
ENDBRANCH  12  13
ENDBRANCH  10  12
ENDBRANCH   9  10
ENDBRANCH   8   9
ENDBRANCH   6   8
ENDBRANCH   5   6
ENDBRANCH   3   5
TORSDOF 7
ENDMDL
MODEL      219
REMARK 921   NORMALIZED FREE ENERGY PREDICTED BY IDOCK:   -1.84 KCAL/MOL
REMARK 922        TOTAL FREE ENERGY PREDICTED BY IDOCK:   -3.09 KCAL/MOL
REMARK 923 INTER-LIGAND FREE ENERGY PREDICTED BY IDOCK:   -2.84 KCAL/MOL
REMARK 924 INTRA-LIGAND FREE ENERGY PREDICTED BY IDOCK:   -0.26 KCAL/MOL
REMARK 927      BINDING AFFINITY PREDICTED BY RF-SCORE:    0.00 PKD
ROOT
HETATM    1  N   UNL     1      -9.741   7.047  69.229  1.00  0.00    -0.157 NA 
HETATM    2  H2  UNL     1      -8.834   7.201  69.671  1.00  0.00     0.000 HD 
HETATM    3  C   UNL     1     -10.711   8.063  69.646  1.00  0.00    -0.207 C  
HETATM    4  H1  UNL     1     -10.073   6.097  69.398  1.00  0.00     0.000 HD 
ENDROOT
BRANCH   3   5
HETATM    5  C   UNL     1     -10.209   9.497  69.393  1.00  0.00    -0.206 C  
BRANCH   5   6
HETATM    6  N   UNL     1      -8.817   9.505  68.927  1.00  0.00    -0.134 NA 
HETATM    7  H   UNL     1      -8.450   8.559  68.827  1.00  0.00     0.000 HD 
BRANCH   6   8
HETATM    8  C   UNL     1      -8.676  10.273  67.682  1.00  0.00    -0.121 C  
BRANCH   8   9
HETATM    9  C   UNL     1      -8.594   9.328  66.467  1.00  0.00    -0.130 C  
BRANCH   9  10
HETATM   10  N   UNL     1      -9.854   9.313  65.703  1.00  0.00    -0.441 NA 
HETATM   11  H   UNL     1     -10.633   8.957  66.259  1.00  0.00     0.000 HD 
BRANCH  10  12
HETATM   12  C   UNL     1     -10.134  10.652  65.158  1.00  0.00    -0.307 C  
BRANCH  12  13
HETATM   13  C   UNL     1      -9.799  10.730  63.656  1.00  0.00    -0.350 C  
HETATM   14  N   UNL     1     -10.944  11.164  62.849  1.00  0.00    -0.785 NA 
HETATM   15  H1  UNL     1     -10.722  11.216  61.855  1.00  0.00     0.000 HD 
HETATM   16  H2  UNL     1     -11.318  12.050  63.189  1.00  0.00     0.000 HD 
ENDBRANCH  12  13
ENDBRANCH  10  12
ENDBRANCH   9  10
ENDBRANCH   8   9
ENDBRANCH   6   8
ENDBRANCH   5   6
ENDBRANCH   3   5
TORSDOF 7
ENDMDL
MODEL      220
REMARK 921   NORMALIZED FREE ENERGY PREDICTED BY IDOCK:   -1.83 KCAL/MOL
REMARK 922        TOTAL FREE ENERGY PREDICTED BY IDOCK:   -3.08 KCAL/MOL
REMARK 923 INTER-LIGAND FREE ENERGY PREDICTED BY IDOCK:   -2.91 KCAL/MOL
REMARK 924 INTRA-LIGAND FREE ENERGY PREDICTED BY IDOCK:   -0.18 KCAL/MOL
REMARK 927      BINDING AFFINITY PREDICTED BY RF-SCORE:    0.00 PKD
ROOT
HETATM    1  N   UNL     1      -8.656  10.272  69.601  1.00  0.00    -0.328 NA 
HETATM    2  H2  UNL     1      -7.858   9.664  69.783  1.00  0.00     0.000 HD 
HETATM    3  C   UNL     1      -8.325  11.291  68.600  1.00  0.00    -0.146 C  
HETATM    4  H1  UNL     1      -9.013  10.677  70.467  1.00  0.00     0.000 HD 
ENDROOT
BRANCH   3   5
HETATM    5  C   UNL     1      -7.786  10.680  67.294  1.00  0.00    -0.108 C  
BRANCH   5   6
HETATM    6  N   UNL     1      -8.284  11.401  66.117  1.00  0.00    -0.343 NA 
HETATM    7  H   UNL     1      -7.579  11.449  65.381  1.00  0.00     0.000 HD 
BRANCH   6   8
HETATM    8  C   UNL     1      -9.539  10.816  65.624  1.00  0.00    -0.216 C  
BRANCH   8   9
HETATM    9  C   UNL     1     -10.567  11.921  65.311  1.00  0.00    -0.275 C  
BRANCH   9  10
HETATM   10  N   UNL     1     -11.001  12.623  66.532  1.00  0.00    -0.261 NA 
HETATM   11  H   UNL     1     -10.216  13.046  67.028  1.00  0.00     0.000 HD 
BRANCH  10  12
HETATM   12  C   UNL     1     -12.043  13.611  66.207  1.00  0.00    -0.434 C  
BRANCH  12  13
HETATM   13  C   UNL     1     -11.975  14.831  67.144  1.00  0.00    -0.200 C  
HETATM   14  N   UNL     1     -12.400  14.511  68.511  1.00  0.00    -0.595 NA 
HETATM   15  H1  UNL     1     -12.355  15.319  69.132  1.00  0.00     0.000 HD 
HETATM   16  H2  UNL     1     -11.867  13.728  68.888  1.00  0.00     0.000 HD 
ENDBRANCH  12  13
ENDBRANCH  10  12
ENDBRANCH   9  10
ENDBRANCH   8   9
ENDBRANCH   6   8
ENDBRANCH   5   6
ENDBRANCH   3   5
TORSDOF 7
ENDMDL
MODEL      221
REMARK 921   NORMALIZED FREE ENERGY PREDICTED BY IDOCK:   -1.82 KCAL/MOL
REMARK 922        TOTAL FREE ENERGY PREDICTED BY IDOCK:   -3.07 KCAL/MOL
REMARK 923 INTER-LIGAND FREE ENERGY PREDICTED BY IDOCK:   -2.94 KCAL/MOL
REMARK 924 INTRA-LIGAND FREE ENERGY PREDICTED BY IDOCK:   -0.13 KCAL/MOL
REMARK 927      BINDING AFFINITY PREDICTED BY RF-SCORE:    0.00 PKD
ROOT
HETATM    1  N   UNL     1      -8.821  11.658  65.628  1.00  0.00    -0.405 NA 
HETATM    2  H2  UNL     1      -7.987  11.337  66.120  1.00  0.00     0.000 HD 
HETATM    3  C   UNL     1      -9.640  10.525  65.187  1.00  0.00    -0.260 C  
HETATM    4  H1  UNL     1      -8.577  12.285  64.862  1.00  0.00     0.000 HD 
ENDROOT
BRANCH   3   5
HETATM    5  C   UNL     1     -10.008   9.577  66.343  1.00  0.00    -0.269 C  
BRANCH   5   6
HETATM    6  N   UNL     1      -9.391  10.002  67.604  1.00  0.00    -0.143 NA 
HETATM    7  H   UNL     1      -8.782  10.809  67.470  1.00  0.00     0.000 HD 
BRANCH   6   8
HETATM    8  C   UNL     1     -10.406  10.259  68.636  1.00  0.00    -0.184 C  
BRANCH   8   9
HETATM    9  C   UNL     1     -10.644   8.999  69.490  1.00  0.00    -0.225 C  
BRANCH   9  10
HETATM   10  N   UNL     1     -10.120   9.160  70.858  1.00  0.00    -0.263 NA 
HETATM   11  H   UNL     1     -10.663   9.836  71.397  1.00  0.00     0.000 HD 
BRANCH  10  12
HETATM   12  C   UNL     1     -10.045   7.853  71.531  1.00  0.00    -0.180 C  
BRANCH  12  13
HETATM   13  C   UNL     1     -10.701   7.898  72.924  1.00  0.00    -0.375 C  
HETATM   14  N   UNL     1     -12.164   7.988  72.850  1.00  0.00    -0.640 NA 
HETATM   15  H1  UNL     1     -12.599   8.018  73.772  1.00  0.00     0.000 HD 
HETATM   16  H2  UNL     1     -12.551   7.232  72.285  1.00  0.00     0.000 HD 
ENDBRANCH  12  13
ENDBRANCH  10  12
ENDBRANCH   9  10
ENDBRANCH   8   9
ENDBRANCH   6   8
ENDBRANCH   5   6
ENDBRANCH   3   5
TORSDOF 7
ENDMDL
MODEL      222
REMARK 921   NORMALIZED FREE ENERGY PREDICTED BY IDOCK:   -1.82 KCAL/MOL
REMARK 922        TOTAL FREE ENERGY PREDICTED BY IDOCK:   -3.07 KCAL/MOL
REMARK 923 INTER-LIGAND FREE ENERGY PREDICTED BY IDOCK:   -2.60 KCAL/MOL
REMARK 924 INTRA-LIGAND FREE ENERGY PREDICTED BY IDOCK:   -0.46 KCAL/MOL
REMARK 927      BINDING AFFINITY PREDICTED BY RF-SCORE:    0.00 PKD
ROOT
HETATM    1  N   UNL     1      -8.107  10.698  69.300  1.00  0.00    -0.254 NA 
HETATM    2  H2  UNL     1      -8.608  10.012  69.864  1.00  0.00     0.000 HD 
HETATM    3  C   UNL     1      -8.811  10.960  68.041  1.00  0.00    -0.135 C  
HETATM    4  H1  UNL     1      -7.138  10.414  69.154  1.00  0.00     0.000 HD 
ENDROOT
BRANCH   3   5
HETATM    5  C   UNL     1     -10.273  11.388  68.261  1.00  0.00    -0.193 C  
BRANCH   5   6
HETATM    6  N   UNL     1     -10.541  11.681  69.673  1.00  0.00    -0.419 NA 
HETATM    7  H   UNL     1      -9.972  12.457  70.009  1.00  0.00     0.000 HD 
BRANCH   6   8
HETATM    8  C   UNL     1     -11.972  11.923  69.905  1.00  0.00    -0.325 C  
BRANCH   8   9
HETATM    9  C   UNL     1     -12.613  10.729  70.640  1.00  0.00    -0.357 C  
BRANCH   9  10
HETATM   10  N   UNL     1     -11.594   9.820  71.193  1.00  0.00    -0.362 NA 
HETATM   11  H   UNL     1     -11.505   9.918  72.206  1.00  0.00     0.000 HD 
BRANCH  10  12
HETATM   12  C   UNL     1     -11.884   8.431  70.799  1.00  0.00    -0.163 C  
BRANCH  12  13
HETATM   13  C   UNL     1     -10.603   7.576  70.766  1.00  0.00    -0.220 C  
HETATM   14  N   UNL     1      -9.792   7.828  69.570  1.00  0.00    -0.176 NA 
HETATM   15  H1  UNL     1      -8.944   7.261  69.548  1.00  0.00     0.000 HD 
HETATM   16  H2  UNL     1      -9.574   8.820  69.476  1.00  0.00     0.000 HD 
ENDBRANCH  12  13
ENDBRANCH  10  12
ENDBRANCH   9  10
ENDBRANCH   8   9
ENDBRANCH   6   8
ENDBRANCH   5   6
ENDBRANCH   3   5
TORSDOF 7
ENDMDL
MODEL      223
REMARK 921   NORMALIZED FREE ENERGY PREDICTED BY IDOCK:   -1.81 KCAL/MOL
REMARK 922        TOTAL FREE ENERGY PREDICTED BY IDOCK:   -3.06 KCAL/MOL
REMARK 923 INTER-LIGAND FREE ENERGY PREDICTED BY IDOCK:   -2.88 KCAL/MOL
REMARK 924 INTRA-LIGAND FREE ENERGY PREDICTED BY IDOCK:   -0.18 KCAL/MOL
REMARK 927      BINDING AFFINITY PREDICTED BY RF-SCORE:    0.00 PKD
ROOT
HETATM    1  N   UNL     1     -11.315   7.429  73.117  1.00  0.00    -0.601 NA 
HETATM    2  H2  UNL     1     -10.678   6.761  72.682  1.00  0.00     0.000 HD 
HETATM    3  C   UNL     1     -11.344   8.692  72.375  1.00  0.00    -0.282 C  
HETATM    4  H1  UNL     1     -11.090   7.560  74.103  1.00  0.00     0.000 HD 
ENDROOT
BRANCH   3   5
HETATM    5  C   UNL     1     -11.683   8.493  70.886  1.00  0.00    -0.245 C  
BRANCH   5   6
HETATM    6  N   UNL     1     -10.505   8.077  70.117  1.00  0.00    -0.220 NA 
HETATM    7  H   UNL     1     -10.692   7.236  69.571  1.00  0.00     0.000 HD 
BRANCH   6   8
HETATM    8  C   UNL     1     -10.007   9.170  69.270  1.00  0.00    -0.187 C  
BRANCH   8   9
HETATM    9  C   UNL     1     -11.091   9.620  68.271  1.00  0.00    -0.046 C  
BRANCH   9  10
HETATM   10  N   UNL     1     -11.019  11.068  68.006  1.00  0.00    -0.236 NA 
HETATM   11  H   UNL     1     -11.571  11.334  67.189  1.00  0.00     0.000 HD 
BRANCH  10  12
HETATM   12  C   UNL     1     -11.415  11.824  69.206  1.00  0.00    -0.306 C  
BRANCH  12  13
HETATM   13  C   UNL     1     -11.776  13.281  68.861  1.00  0.00    -0.327 C  
HETATM   14  N   UNL     1     -11.107  14.247  69.740  1.00  0.00    -0.426 NA 
HETATM   15  H1  UNL     1     -11.346  15.212  69.511  1.00  0.00     0.000 HD 
HETATM   16  H2  UNL     1     -10.097  14.108  69.737  1.00  0.00     0.000 HD 
ENDBRANCH  12  13
ENDBRANCH  10  12
ENDBRANCH   9  10
ENDBRANCH   8   9
ENDBRANCH   6   8
ENDBRANCH   5   6
ENDBRANCH   3   5
TORSDOF 7
ENDMDL
MODEL      224
REMARK 921   NORMALIZED FREE ENERGY PREDICTED BY IDOCK:   -1.81 KCAL/MOL
REMARK 922        TOTAL FREE ENERGY PREDICTED BY IDOCK:   -3.06 KCAL/MOL
REMARK 923 INTER-LIGAND FREE ENERGY PREDICTED BY IDOCK:   -2.85 KCAL/MOL
REMARK 924 INTRA-LIGAND FREE ENERGY PREDICTED BY IDOCK:   -0.21 KCAL/MOL
REMARK 927      BINDING AFFINITY PREDICTED BY RF-SCORE:    0.00 PKD
ROOT
HETATM    1  N   UNL     1      -6.182  10.786  63.410  1.00  0.00    -0.371 NA 
HETATM    2  H2  UNL     1      -6.542  10.929  64.354  1.00  0.00     0.000 HD 
HETATM    3  C   UNL     1      -7.168  10.102  62.569  1.00  0.00    -0.132 C  
HETATM    4  H1  UNL     1      -5.284  10.303  63.430  1.00  0.00     0.000 HD 
ENDROOT
BRANCH   3   5
HETATM    5  C   UNL     1      -8.525  10.830  62.539  1.00  0.00    -0.242 C  
BRANCH   5   6
HETATM    6  N   UNL     1      -9.550  10.088  63.282  1.00  0.00    -0.503 NA 
HETATM    7  H   UNL     1      -9.338   9.092  63.318  1.00  0.00     0.000 HD 
BRANCH   6   8
HETATM    8  C   UNL     1      -9.744  10.649  64.626  1.00  0.00    -0.302 C  
BRANCH   8   9
HETATM    9  C   UNL     1      -9.175   9.699  65.698  1.00  0.00    -0.215 C  
BRANCH   9  10
HETATM   10  N   UNL     1     -10.174   9.391  66.738  1.00  0.00    -0.250 NA 
HETATM   11  H   UNL     1      -9.757   8.914  67.538  1.00  0.00     0.000 HD 
BRANCH  10  12
HETATM   12  C   UNL     1     -10.885  10.616  67.138  1.00  0.00    -0.270 C  
BRANCH  12  13
HETATM   13  C   UNL     1     -10.252  11.252  68.389  1.00  0.00    -0.195 C  
HETATM   14  N   UNL     1     -11.030  10.991  69.605  1.00  0.00    -0.367 NA 
HETATM   15  H1  UNL     1     -10.611  11.412  70.434  1.00  0.00     0.000 HD 
HETATM   16  H2  UNL     1     -11.181   9.991  69.737  1.00  0.00     0.000 HD 
ENDBRANCH  12  13
ENDBRANCH  10  12
ENDBRANCH   9  10
ENDBRANCH   8   9
ENDBRANCH   6   8
ENDBRANCH   5   6
ENDBRANCH   3   5
TORSDOF 7
ENDMDL
MODEL      225
REMARK 921   NORMALIZED FREE ENERGY PREDICTED BY IDOCK:   -1.81 KCAL/MOL
REMARK 922        TOTAL FREE ENERGY PREDICTED BY IDOCK:   -3.05 KCAL/MOL
REMARK 923 INTER-LIGAND FREE ENERGY PREDICTED BY IDOCK:   -2.87 KCAL/MOL
REMARK 924 INTRA-LIGAND FREE ENERGY PREDICTED BY IDOCK:   -0.18 KCAL/MOL
REMARK 927      BINDING AFFINITY PREDICTED BY RF-SCORE:    0.00 PKD
ROOT
HETATM    1  N   UNL     1      -9.470   3.253  70.084  1.00  0.00    -0.175 NA 
HETATM    2  H2  UNL     1     -10.010   2.481  70.475  1.00  0.00     0.000 HD 
HETATM    3  C   UNL     1      -9.997   4.545  70.533  1.00  0.00    -0.208 C  
HETATM    4  H1  UNL     1      -9.417   3.185  69.068  1.00  0.00     0.000 HD 
ENDROOT
BRANCH   3   5
HETATM    5  C   UNL     1     -10.078   4.648  72.067  1.00  0.00    -0.197 C  
BRANCH   5   6
HETATM    6  N   UNL     1     -11.111   5.601  72.489  1.00  0.00    -0.261 NA 
HETATM    7  H   UNL     1     -10.861   6.062  73.363  1.00  0.00     0.000 HD 
BRANCH   6   8
HETATM    8  C   UNL     1     -11.401   6.576  71.428  1.00  0.00    -0.294 C  
BRANCH   8   9
HETATM    9  C   UNL     1     -12.051   7.843  72.018  1.00  0.00    -0.320 C  
BRANCH   9  10
HETATM   10  N   UNL     1     -11.151   9.007  71.934  1.00  0.00    -0.373 NA 
HETATM   11  H   UNL     1     -10.202   8.736  71.671  1.00  0.00     0.000 HD 
BRANCH  10  12
HETATM   12  C   UNL     1     -11.708  10.016  71.018  1.00  0.00    -0.392 C  
BRANCH  12  13
HETATM   13  C   UNL     1     -10.690  10.417  69.934  1.00  0.00    -0.279 C  
HETATM   14  N   UNL     1      -9.329   9.972  70.253  1.00  0.00    -0.376 NA 
HETATM   15  H1  UNL     1      -8.654  10.238  69.536  1.00  0.00     0.000 HD 
HETATM   16  H2  UNL     1      -9.302   8.968  70.430  1.00  0.00     0.000 HD 
ENDBRANCH  12  13
ENDBRANCH  10  12
ENDBRANCH   9  10
ENDBRANCH   8   9
ENDBRANCH   6   8
ENDBRANCH   5   6
ENDBRANCH   3   5
TORSDOF 7
ENDMDL
MODEL      226
REMARK 921   NORMALIZED FREE ENERGY PREDICTED BY IDOCK:   -1.81 KCAL/MOL
REMARK 922        TOTAL FREE ENERGY PREDICTED BY IDOCK:   -3.05 KCAL/MOL
REMARK 923 INTER-LIGAND FREE ENERGY PREDICTED BY IDOCK:   -2.76 KCAL/MOL
REMARK 924 INTRA-LIGAND FREE ENERGY PREDICTED BY IDOCK:   -0.29 KCAL/MOL
REMARK 927      BINDING AFFINITY PREDICTED BY RF-SCORE:    0.00 PKD
ROOT
HETATM    1  N   UNL     1     -13.689   7.031  72.042  1.00  0.00    -0.555 NA 
HETATM    2  H2  UNL     1     -13.601   7.361  73.003  1.00  0.00     0.000 HD 
HETATM    3  C   UNL     1     -12.381   6.968  71.383  1.00  0.00    -0.377 C  
HETATM    4  H1  UNL     1     -14.362   7.594  71.522  1.00  0.00     0.000 HD 
ENDROOT
BRANCH   3   5
HETATM    5  C   UNL     1     -11.365   6.119  72.169  1.00  0.00    -0.299 C  
BRANCH   5   6
HETATM    6  N   UNL     1     -10.490   5.359  71.269  1.00  0.00    -0.233 NA 
HETATM    7  H   UNL     1     -10.594   4.354  71.406  1.00  0.00     0.000 HD 
BRANCH   6   8
HETATM    8  C   UNL     1     -10.709   5.738  69.866  1.00  0.00    -0.342 C  
BRANCH   8   9
HETATM    9  C   UNL     1      -9.364   5.981  69.153  1.00  0.00    -0.125 C  
BRANCH   9  10
HETATM   10  N   UNL     1      -9.125   7.415  68.915  1.00  0.00    -0.137 NA 
HETATM   11  H   UNL     1      -8.371   7.570  68.244  1.00  0.00     0.000 HD 
BRANCH  10  12
HETATM   12  C   UNL     1     -10.374   8.077  68.501  1.00  0.00    -0.199 C  
BRANCH  12  13
HETATM   13  C   UNL     1     -10.471   8.188  66.968  1.00  0.00    -0.326 C  
HETATM   14  N   UNL     1      -9.155   8.329  66.332  1.00  0.00    -0.171 NA 
HETATM   15  H1  UNL     1      -9.220   8.403  65.317  1.00  0.00     0.000 HD 
HETATM   16  H2  UNL     1      -8.532   7.570  66.607  1.00  0.00     0.000 HD 
ENDBRANCH  12  13
ENDBRANCH  10  12
ENDBRANCH   9  10
ENDBRANCH   8   9
ENDBRANCH   6   8
ENDBRANCH   5   6
ENDBRANCH   3   5
TORSDOF 7
ENDMDL
MODEL      227
REMARK 921   NORMALIZED FREE ENERGY PREDICTED BY IDOCK:   -1.81 KCAL/MOL
REMARK 922        TOTAL FREE ENERGY PREDICTED BY IDOCK:   -3.05 KCAL/MOL
REMARK 923 INTER-LIGAND FREE ENERGY PREDICTED BY IDOCK:   -2.79 KCAL/MOL
REMARK 924 INTRA-LIGAND FREE ENERGY PREDICTED BY IDOCK:   -0.26 KCAL/MOL
REMARK 927      BINDING AFFINITY PREDICTED BY RF-SCORE:    0.00 PKD
ROOT
HETATM    1  N   UNL     1      -9.666   4.405  67.138  1.00  0.00    -0.197 NA 
HETATM    2  H2  UNL     1      -9.851   4.511  68.136  1.00  0.00     0.000 HD 
HETATM    3  C   UNL     1     -10.657   5.130  66.338  1.00  0.00    -0.276 C  
HETATM    4  H1  UNL     1      -9.601   3.420  66.880  1.00  0.00     0.000 HD 
ENDROOT
BRANCH   3   5
HETATM    5  C   UNL     1     -10.756   6.617  66.728  1.00  0.00    -0.259 C  
BRANCH   5   6
HETATM    6  N   UNL     1     -11.232   6.781  68.106  1.00  0.00    -0.554 NA 
HETATM    7  H   UNL     1     -11.182   5.906  68.626  1.00  0.00     0.000 HD 
BRANCH   6   8
HETATM    8  C   UNL     1     -10.509   7.860  68.794  1.00  0.00    -0.176 C  
BRANCH   8   9
HETATM    9  C   UNL     1      -9.342   7.289  69.623  1.00  0.00    -0.153 C  
BRANCH   9  10
HETATM   10  N   UNL     1      -9.107   8.076  70.847  1.00  0.00    -0.146 NA 
HETATM   11  H   UNL     1      -8.245   8.621  70.791  1.00  0.00     0.000 HD 
BRANCH  10  12
HETATM   12  C   UNL     1     -10.275   8.924  71.138  1.00  0.00    -0.266 C  
BRANCH  12  13
HETATM   13  C   UNL     1     -10.914   8.557  72.491  1.00  0.00    -0.253 C  
HETATM   14  N   UNL     1     -12.320   8.157  72.355  1.00  0.00    -0.514 NA 
HETATM   15  H1  UNL     1     -12.743   7.914  73.251  1.00  0.00     0.000 HD 
HETATM   16  H2  UNL     1     -12.422   7.397  71.682  1.00  0.00     0.000 HD 
ENDBRANCH  12  13
ENDBRANCH  10  12
ENDBRANCH   9  10
ENDBRANCH   8   9
ENDBRANCH   6   8
ENDBRANCH   5   6
ENDBRANCH   3   5
TORSDOF 7
ENDMDL
MODEL      228
REMARK 921   NORMALIZED FREE ENERGY PREDICTED BY IDOCK:   -1.80 KCAL/MOL
REMARK 922        TOTAL FREE ENERGY PREDICTED BY IDOCK:   -3.04 KCAL/MOL
REMARK 923 INTER-LIGAND FREE ENERGY PREDICTED BY IDOCK:   -2.95 KCAL/MOL
REMARK 924 INTRA-LIGAND FREE ENERGY PREDICTED BY IDOCK:   -0.09 KCAL/MOL
REMARK 927      BINDING AFFINITY PREDICTED BY RF-SCORE:    0.00 PKD
ROOT
HETATM    1  N   UNL     1      -6.579  13.579  70.235  1.00  0.00    -0.377 NA 
HETATM    2  H2  UNL     1      -7.493  13.842  70.602  1.00  0.00     0.000 HD 
HETATM    3  C   UNL     1      -6.654  12.329  69.474  1.00  0.00    -0.052 C  
HETATM    4  H1  UNL     1      -5.882  13.542  70.980  1.00  0.00     0.000 HD 
ENDROOT
BRANCH   3   5
HETATM    5  C   UNL     1      -7.706  12.385  68.351  1.00  0.00    -0.144 C  
BRANCH   5   6
HETATM    6  N   UNL     1      -9.068  12.265  68.883  1.00  0.00    -0.368 NA 
HETATM    7  H   UNL     1      -9.579  13.144  68.803  1.00  0.00     0.000 HD 
BRANCH   6   8
HETATM    8  C   UNL     1      -9.795  11.159  68.244  1.00  0.00    -0.189 C  
BRANCH   8   9
HETATM    9  C   UNL     1      -9.976   9.987  69.229  1.00  0.00    -0.213 C  
BRANCH   9  10
HETATM   10  N   UNL     1     -10.964   9.010  68.738  1.00  0.00    -0.438 NA 
HETATM   11  H   UNL     1     -11.733   9.463  68.242  1.00  0.00     0.000 HD 
BRANCH  10  12
HETATM   12  C   UNL     1     -10.300   7.989  67.910  1.00  0.00    -0.222 C  
BRANCH  12  13
HETATM   13  C   UNL     1     -11.006   6.625  68.025  1.00  0.00    -0.249 C  
HETATM   14  N   UNL     1     -11.268   6.019  66.715  1.00  0.00    -0.696 NA 
HETATM   15  H1  UNL     1     -11.735   5.115  66.791  1.00  0.00     0.000 HD 
HETATM   16  H2  UNL     1     -10.411   5.944  66.167  1.00  0.00     0.000 HD 
ENDBRANCH  12  13
ENDBRANCH  10  12
ENDBRANCH   9  10
ENDBRANCH   8   9
ENDBRANCH   6   8
ENDBRANCH   5   6
ENDBRANCH   3   5
TORSDOF 7
ENDMDL
MODEL      229
REMARK 921   NORMALIZED FREE ENERGY PREDICTED BY IDOCK:   -1.78 KCAL/MOL
REMARK 922        TOTAL FREE ENERGY PREDICTED BY IDOCK:   -3.02 KCAL/MOL
REMARK 923 INTER-LIGAND FREE ENERGY PREDICTED BY IDOCK:   -2.86 KCAL/MOL
REMARK 924 INTRA-LIGAND FREE ENERGY PREDICTED BY IDOCK:   -0.16 KCAL/MOL
REMARK 927      BINDING AFFINITY PREDICTED BY RF-SCORE:    0.00 PKD
ROOT
HETATM    1  N   UNL     1      -7.599  17.621  68.095  1.00  0.00    -0.226 NA 
HETATM    2  H2  UNL     1      -7.248  17.186  67.242  1.00  0.00     0.000 HD 
HETATM    3  C   UNL     1      -8.985  17.224  68.358  1.00  0.00    -0.269 C  
HETATM    4  H1  UNL     1      -7.481  18.634  68.064  1.00  0.00     0.000 HD 
ENDROOT
BRANCH   3   5
HETATM    5  C   UNL     1      -9.162  15.695  68.404  1.00  0.00    -0.191 C  
BRANCH   5   6
HETATM    6  N   UNL     1      -8.408  15.034  67.333  1.00  0.00    -0.176 NA 
HETATM    7  H   UNL     1      -7.603  15.589  67.044  1.00  0.00     0.000 HD 
BRANCH   6   8
HETATM    8  C   UNL     1      -8.015  13.672  67.719  1.00  0.00    -0.172 C  
BRANCH   8   9
HETATM    9  C   UNL     1      -9.217  12.712  67.630  1.00  0.00    -0.191 C  
BRANCH   9  10
HETATM   10  N   UNL     1      -9.510  12.084  68.930  1.00  0.00    -0.407 NA 
HETATM   11  H   UNL     1     -10.265  12.562  69.424  1.00  0.00     0.000 HD 
BRANCH  10  12
HETATM   12  C   UNL     1      -9.793  10.650  68.750  1.00  0.00    -0.191 C  
BRANCH  12  13
HETATM   13  C   UNL     1     -11.132  10.254  69.399  1.00  0.00    -0.252 C  
HETATM   14  N   UNL     1     -12.286  10.823  68.694  1.00  0.00    -0.786 NA 
HETATM   15  H1  UNL     1     -13.173  10.561  69.124  1.00  0.00     0.000 HD 
HETATM   16  H2  UNL     1     -12.270  10.577  67.705  1.00  0.00     0.000 HD 
ENDBRANCH  12  13
ENDBRANCH  10  12
ENDBRANCH   9  10
ENDBRANCH   8   9
ENDBRANCH   6   8
ENDBRANCH   5   6
ENDBRANCH   3   5
TORSDOF 7
ENDMDL
MODEL      230
REMARK 921   NORMALIZED FREE ENERGY PREDICTED BY IDOCK:   -1.78 KCAL/MOL
REMARK 922        TOTAL FREE ENERGY PREDICTED BY IDOCK:   -3.01 KCAL/MOL
REMARK 923 INTER-LIGAND FREE ENERGY PREDICTED BY IDOCK:   -2.85 KCAL/MOL
REMARK 924 INTRA-LIGAND FREE ENERGY PREDICTED BY IDOCK:   -0.16 KCAL/MOL
REMARK 927      BINDING AFFINITY PREDICTED BY RF-SCORE:    0.00 PKD
ROOT
HETATM    1  N   UNL     1      -9.557  10.187  69.938  1.00  0.00    -0.384 NA 
HETATM    2  H2  UNL     1      -9.756   9.324  70.445  1.00  0.00     0.000 HD 
HETATM    3  C   UNL     1      -9.139   9.907  68.562  1.00  0.00    -0.125 C  
HETATM    4  H1  UNL     1      -8.881  10.760  70.443  1.00  0.00     0.000 HD 
ENDROOT
BRANCH   3   5
HETATM    5  C   UNL     1     -10.159   9.041  67.800  1.00  0.00    -0.208 C  
BRANCH   5   6
HETATM    6  N   UNL     1     -10.489   9.622  66.494  1.00  0.00    -0.186 NA 
HETATM    7  H   UNL     1     -11.483   9.832  66.418  1.00  0.00     0.000 HD 
BRANCH   6   8
HETATM    8  C   UNL     1      -9.664  10.806  66.213  1.00  0.00    -0.205 C  
BRANCH   8   9
HETATM    9  C   UNL     1     -10.471  11.856  65.424  1.00  0.00    -0.270 C  
BRANCH   9  10
HETATM   10  N   UNL     1     -10.001  13.225  65.702  1.00  0.00    -0.405 NA 
HETATM   11  H   UNL     1      -8.986  13.302  65.626  1.00  0.00     0.000 HD 
BRANCH  10  12
HETATM   12  C   UNL     1     -10.692  14.186  64.827  1.00  0.00    -0.419 C  
BRANCH  12  13
HETATM   13  C   UNL     1     -10.355  15.640  65.210  1.00  0.00    -0.375 C  
HETATM   14  N   UNL     1     -10.203  15.816  66.659  1.00  0.00    -0.277 NA 
HETATM   15  H1  UNL     1      -9.979  16.778  66.913  1.00  0.00     0.000 HD 
HETATM   16  H2  UNL     1      -9.514  15.166  67.038  1.00  0.00     0.000 HD 
ENDBRANCH  12  13
ENDBRANCH  10  12
ENDBRANCH   9  10
ENDBRANCH   8   9
ENDBRANCH   6   8
ENDBRANCH   5   6
ENDBRANCH   3   5
TORSDOF 7
ENDMDL
MODEL      231
REMARK 921   NORMALIZED FREE ENERGY PREDICTED BY IDOCK:   -1.77 KCAL/MOL
REMARK 922        TOTAL FREE ENERGY PREDICTED BY IDOCK:   -3.00 KCAL/MOL
REMARK 923 INTER-LIGAND FREE ENERGY PREDICTED BY IDOCK:   -2.91 KCAL/MOL
REMARK 924 INTRA-LIGAND FREE ENERGY PREDICTED BY IDOCK:   -0.08 KCAL/MOL
REMARK 927      BINDING AFFINITY PREDICTED BY RF-SCORE:    0.00 PKD
ROOT
HETATM    1  N   UNL     1      -8.158  10.708  65.704  1.00  0.00    -0.188 NA 
HETATM    2  H2  UNL     1      -8.583  10.301  66.537  1.00  0.00     0.000 HD 
HETATM    3  C   UNL     1      -9.038  10.567  64.540  1.00  0.00    -0.222 C  
HETATM    4  H1  UNL     1      -7.229  10.320  65.540  1.00  0.00     0.000 HD 
ENDROOT
BRANCH   3   5
HETATM    5  C   UNL     1     -10.441  11.153  64.787  1.00  0.00    -0.323 C  
BRANCH   5   6
HETATM    6  N   UNL     1     -10.396  12.276  65.730  1.00  0.00    -0.252 NA 
HETATM    7  H   UNL     1      -9.645  12.164  66.411  1.00  0.00     0.000 HD 
BRANCH   6   8
HETATM    8  C   UNL     1     -10.297  13.561  65.024  1.00  0.00    -0.362 C  
BRANCH   8   9
HETATM    9  C   UNL     1     -11.349  14.555  65.555  1.00  0.00    -0.335 C  
BRANCH   9  10
HETATM   10  N   UNL     1     -10.764  15.505  66.518  1.00  0.00    -0.308 NA 
HETATM   11  H   UNL     1     -11.198  16.427  66.455  1.00  0.00     0.000 HD 
BRANCH  10  12
HETATM   12  C   UNL     1     -10.837  14.954  67.882  1.00  0.00    -0.276 C  
BRANCH  12  13
HETATM   13  C   UNL     1     -11.669  15.859  68.810  1.00  0.00    -0.349 C  
HETATM   14  N   UNL     1     -11.888  15.256  70.130  1.00  0.00    -0.298 NA 
HETATM   15  H1  UNL     1     -12.439  15.855  70.745  1.00  0.00     0.000 HD 
HETATM   16  H2  UNL     1     -11.004  14.995  70.566  1.00  0.00     0.000 HD 
ENDBRANCH  12  13
ENDBRANCH  10  12
ENDBRANCH   9  10
ENDBRANCH   8   9
ENDBRANCH   6   8
ENDBRANCH   5   6
ENDBRANCH   3   5
TORSDOF 7
ENDMDL
MODEL      232
REMARK 921   NORMALIZED FREE ENERGY PREDICTED BY IDOCK:   -1.75 KCAL/MOL
REMARK 922        TOTAL FREE ENERGY PREDICTED BY IDOCK:   -2.98 KCAL/MOL
REMARK 923 INTER-LIGAND FREE ENERGY PREDICTED BY IDOCK:   -2.70 KCAL/MOL
REMARK 924 INTRA-LIGAND FREE ENERGY PREDICTED BY IDOCK:   -0.28 KCAL/MOL
REMARK 927      BINDING AFFINITY PREDICTED BY RF-SCORE:    0.00 PKD
ROOT
HETATM    1  N   UNL     1     -11.643  16.398  68.965  1.00  0.00    -0.223 NA 
HETATM    2  H2  UNL     1     -11.935  16.620  68.013  1.00  0.00     0.000 HD 
HETATM    3  C   UNL     1     -12.148  15.087  69.380  1.00  0.00    -0.255 C  
HETATM    4  H1  UNL     1     -11.907  17.142  69.612  1.00  0.00     0.000 HD 
ENDROOT
BRANCH   3   5
HETATM    5  C   UNL     1     -11.749  13.965  68.404  1.00  0.00    -0.356 C  
BRANCH   5   6
HETATM    6  N   UNL     1     -12.299  14.198  67.064  1.00  0.00    -0.571 NA 
HETATM    7  H   UNL     1     -12.670  15.143  66.970  1.00  0.00     0.000 HD 
BRANCH   6   8
HETATM    8  C   UNL     1     -11.307  13.901  66.021  1.00  0.00    -0.324 C  
BRANCH   8   9
HETATM    9  C   UNL     1      -9.948  14.540  66.367  1.00  0.00    -0.292 C  
BRANCH   9  10
HETATM   10  N   UNL     1      -8.869  13.536  66.407  1.00  0.00    -0.449 NA 
HETATM   11  H   UNL     1      -8.699  13.122  65.490  1.00  0.00     0.000 HD 
BRANCH  10  12
HETATM   12  C   UNL     1      -7.648  14.125  66.980  1.00  0.00     0.227 C  
BRANCH  12  13
HETATM   13  C   UNL     1      -7.974  15.324  67.890  1.00  0.00    -0.137 C  
HETATM   14  N   UNL     1      -8.218  14.922  69.280  1.00  0.00    -0.315 NA 
HETATM   15  H1  UNL     1      -8.434  15.715  69.883  1.00  0.00     0.000 HD 
HETATM   16  H2  UNL     1      -7.436  14.382  69.649  1.00  0.00     0.000 HD 
ENDBRANCH  12  13
ENDBRANCH  10  12
ENDBRANCH   9  10
ENDBRANCH   8   9
ENDBRANCH   6   8
ENDBRANCH   5   6
ENDBRANCH   3   5
TORSDOF 7
ENDMDL
MODEL      233
REMARK 921   NORMALIZED FREE ENERGY PREDICTED BY IDOCK:   -1.75 KCAL/MOL
REMARK 922        TOTAL FREE ENERGY PREDICTED BY IDOCK:   -2.97 KCAL/MOL
REMARK 923 INTER-LIGAND FREE ENERGY PREDICTED BY IDOCK:   -2.57 KCAL/MOL
REMARK 924 INTRA-LIGAND FREE ENERGY PREDICTED BY IDOCK:   -0.40 KCAL/MOL
REMARK 927      BINDING AFFINITY PREDICTED BY RF-SCORE:    0.00 PKD
ROOT
HETATM    1  N   UNL     1      -7.702   8.164  68.682  1.00  0.00    -0.109 NA 
HETATM    2  H2  UNL     1      -8.349   8.625  69.321  1.00  0.00     0.000 HD 
HETATM    3  C   UNL     1      -8.408   7.226  67.804  1.00  0.00    -0.118 C  
HETATM    4  H1  UNL     1      -6.937   7.722  69.191  1.00  0.00     0.000 HD 
ENDROOT
BRANCH   3   5
HETATM    5  C   UNL     1      -9.564   7.892  67.036  1.00  0.00    -0.192 C  
BRANCH   5   6
HETATM    6  N   UNL     1     -10.825   7.805  67.780  1.00  0.00    -0.490 NA 
HETATM    7  H   UNL     1     -11.620   7.672  67.156  1.00  0.00     0.000 HD 
BRANCH   6   8
HETATM    8  C   UNL     1     -10.765   6.758  68.810  1.00  0.00    -0.239 C  
BRANCH   8   9
HETATM    9  C   UNL     1     -11.269   7.297  70.163  1.00  0.00    -0.239 C  
BRANCH   9  10
HETATM   10  N   UNL     1     -10.158   7.759  71.013  1.00  0.00    -0.186 NA 
HETATM   11  H   UNL     1      -9.261   7.378  70.708  1.00  0.00     0.000 HD 
BRANCH  10  12
HETATM   12  C   UNL     1     -10.140   9.230  71.072  1.00  0.00    -0.303 C  
BRANCH  12  13
HETATM   13  C   UNL     1     -11.528   9.796  71.426  1.00  0.00    -0.365 C  
HETATM   14  N   UNL     1     -11.964  10.834  70.485  1.00  0.00    -0.331 NA 
HETATM   15  H1  UNL     1     -12.883  11.210  70.719  1.00  0.00     0.000 HD 
HETATM   16  H2  UNL     1     -11.940  10.493  69.524  1.00  0.00     0.000 HD 
ENDBRANCH  12  13
ENDBRANCH  10  12
ENDBRANCH   9  10
ENDBRANCH   8   9
ENDBRANCH   6   8
ENDBRANCH   5   6
ENDBRANCH   3   5
TORSDOF 7
ENDMDL
MODEL      234
REMARK 921   NORMALIZED FREE ENERGY PREDICTED BY IDOCK:   -1.74 KCAL/MOL
REMARK 922        TOTAL FREE ENERGY PREDICTED BY IDOCK:   -2.96 KCAL/MOL
REMARK 923 INTER-LIGAND FREE ENERGY PREDICTED BY IDOCK:   -2.85 KCAL/MOL
REMARK 924 INTRA-LIGAND FREE ENERGY PREDICTED BY IDOCK:   -0.11 KCAL/MOL
REMARK 927      BINDING AFFINITY PREDICTED BY RF-SCORE:    0.00 PKD
ROOT
HETATM    1  N   UNL     1     -10.005   4.483  63.334  1.00  0.00    -0.373 NA 
HETATM    2  H2  UNL     1      -9.305   5.224  63.366  1.00  0.00     0.000 HD 
HETATM    3  C   UNL     1     -10.002   3.701  64.574  1.00  0.00    -0.190 C  
HETATM    4  H1  UNL     1      -9.886   3.902  62.505  1.00  0.00     0.000 HD 
ENDROOT
BRANCH   3   5
HETATM    5  C   UNL     1     -10.181   4.579  65.826  1.00  0.00    -0.265 C  
BRANCH   5   6
HETATM    6  N   UNL     1     -10.002   3.802  67.058  1.00  0.00    -0.290 NA 
HETATM    7  H   UNL     1      -9.713   2.845  66.858  1.00  0.00     0.000 HD 
BRANCH   6   8
HETATM    8  C   UNL     1      -9.067   4.467  67.977  1.00  0.00    -0.127 C  
BRANCH   8   9
HETATM    9  C   UNL     1      -9.668   4.553  69.394  1.00  0.00    -0.202 C  
BRANCH   9  10
HETATM   10  N   UNL     1      -9.937   5.948  69.787  1.00  0.00    -0.170 NA 
HETATM   11  H   UNL     1      -9.496   6.615  69.152  1.00  0.00     0.000 HD 
BRANCH  10  12
HETATM   12  C   UNL     1     -11.387   6.174  69.901  1.00  0.00    -0.384 C  
BRANCH  12  13
HETATM   13  C   UNL     1     -11.711   7.219  70.985  1.00  0.00    -0.307 C  
HETATM   14  N   UNL     1     -12.670   6.718  71.976  1.00  0.00    -0.541 NA 
HETATM   15  H1  UNL     1     -12.885   7.410  72.694  1.00  0.00     0.000 HD 
HETATM   16  H2  UNL     1     -12.347   5.845  72.392  1.00  0.00     0.000 HD 
ENDBRANCH  12  13
ENDBRANCH  10  12
ENDBRANCH   9  10
ENDBRANCH   8   9
ENDBRANCH   6   8
ENDBRANCH   5   6
ENDBRANCH   3   5
TORSDOF 7
ENDMDL
MODEL      235
REMARK 921   NORMALIZED FREE ENERGY PREDICTED BY IDOCK:   -1.73 KCAL/MOL
REMARK 922        TOTAL FREE ENERGY PREDICTED BY IDOCK:   -2.94 KCAL/MOL
REMARK 923 INTER-LIGAND FREE ENERGY PREDICTED BY IDOCK:   -2.80 KCAL/MOL
REMARK 924 INTRA-LIGAND FREE ENERGY PREDICTED BY IDOCK:   -0.14 KCAL/MOL
REMARK 927      BINDING AFFINITY PREDICTED BY RF-SCORE:    0.00 PKD
ROOT
HETATM    1  N   UNL     1      -7.365   8.782  72.669  1.00  0.00    -0.348 NA 
HETATM    2  H2  UNL     1      -7.976   8.984  73.461  1.00  0.00     0.000 HD 
HETATM    3  C   UNL     1      -7.657   7.463  72.100  1.00  0.00    -0.084 C  
HETATM    4  H1  UNL     1      -6.384   8.888  72.927  1.00  0.00     0.000 HD 
ENDROOT
BRANCH   3   5
HETATM    5  C   UNL     1      -9.138   7.304  71.711  1.00  0.00    -0.130 C  
BRANCH   5   6
HETATM    6  N   UNL     1      -9.359   7.617  70.295  1.00  0.00    -0.157 NA 
HETATM    7  H   UNL     1      -9.844   6.859  69.815  1.00  0.00     0.000 HD 
BRANCH   6   8
HETATM    8  C   UNL     1     -10.065   8.896  70.136  1.00  0.00    -0.190 C  
BRANCH   8   9
HETATM    9  C   UNL     1     -10.170   9.277  68.646  1.00  0.00    -0.199 C  
BRANCH   9  10
HETATM   10  N   UNL     1     -11.319  10.164  68.390  1.00  0.00    -0.508 NA 
HETATM   11  H   UNL     1     -12.200   9.740  68.682  1.00  0.00     0.000 HD 
BRANCH  10  12
HETATM   12  C   UNL     1     -11.101  11.474  69.027  1.00  0.00    -0.245 C  
BRANCH  12  13
HETATM   13  C   UNL     1     -11.453  12.630  68.073  1.00  0.00    -0.318 C  
HETATM   14  N   UNL     1     -11.993  12.155  66.794  1.00  0.00    -0.615 NA 
HETATM   15  H1  UNL     1     -12.226  12.921  66.162  1.00  0.00     0.000 HD 
HETATM   16  H2  UNL     1     -12.794  11.541  66.938  1.00  0.00     0.000 HD 
ENDBRANCH  12  13
ENDBRANCH  10  12
ENDBRANCH   9  10
ENDBRANCH   8   9
ENDBRANCH   6   8
ENDBRANCH   5   6
ENDBRANCH   3   5
TORSDOF 7
ENDMDL
MODEL      236
REMARK 921   NORMALIZED FREE ENERGY PREDICTED BY IDOCK:   -1.72 KCAL/MOL
REMARK 922        TOTAL FREE ENERGY PREDICTED BY IDOCK:   -2.93 KCAL/MOL
REMARK 923 INTER-LIGAND FREE ENERGY PREDICTED BY IDOCK:   -2.79 KCAL/MOL
REMARK 924 INTRA-LIGAND FREE ENERGY PREDICTED BY IDOCK:   -0.13 KCAL/MOL
REMARK 927      BINDING AFFINITY PREDICTED BY RF-SCORE:    0.00 PKD
ROOT
HETATM    1  N   UNL     1      -9.546   4.390  63.539  1.00  0.00    -0.309 NA 
HETATM    2  H2  UNL     1      -8.602   4.151  63.842  1.00  0.00     0.000 HD 
HETATM    3  C   UNL     1     -10.538   4.002  64.547  1.00  0.00    -0.180 C  
HETATM    4  H1  UNL     1      -9.747   3.994  62.621  1.00  0.00     0.000 HD 
ENDROOT
BRANCH   3   5
HETATM    5  C   UNL     1     -10.234   4.598  65.933  1.00  0.00    -0.276 C  
BRANCH   5   6
HETATM    6  N   UNL     1     -10.004   6.045  65.858  1.00  0.00    -0.381 NA 
HETATM    7  H   UNL     1     -10.240   6.415  64.937  1.00  0.00     0.000 HD 
BRANCH   6   8
HETATM    8  C   UNL     1     -10.722   6.756  66.925  1.00  0.00    -0.324 C  
BRANCH   8   9
HETATM    9  C   UNL     1     -10.164   8.183  67.098  1.00  0.00    -0.296 C  
BRANCH   9  10
HETATM   10  N   UNL     1     -11.226   9.144  67.445  1.00  0.00    -0.229 NA 
HETATM   11  H   UNL     1     -11.795   8.818  68.227  1.00  0.00     0.000 HD 
BRANCH  10  12
HETATM   12  C   UNL     1     -10.645  10.472  67.704  1.00  0.00    -0.250 C  
BRANCH  12  13
HETATM   13  C   UNL     1      -9.178  10.365  68.163  1.00  0.00    -0.145 C  
HETATM   14  N   UNL     1      -9.000  10.767  69.563  1.00  0.00    -0.402 NA 
HETATM   15  H1  UNL     1      -8.029  10.696  69.867  1.00  0.00     0.000 HD 
HETATM   16  H2  UNL     1      -9.618  10.238  70.179  1.00  0.00     0.000 HD 
ENDBRANCH  12  13
ENDBRANCH  10  12
ENDBRANCH   9  10
ENDBRANCH   8   9
ENDBRANCH   6   8
ENDBRANCH   5   6
ENDBRANCH   3   5
TORSDOF 7
ENDMDL
MODEL      237
REMARK 921   NORMALIZED FREE ENERGY PREDICTED BY IDOCK:   -1.70 KCAL/MOL
REMARK 922        TOTAL FREE ENERGY PREDICTED BY IDOCK:   -2.90 KCAL/MOL
REMARK 923 INTER-LIGAND FREE ENERGY PREDICTED BY IDOCK:   -2.74 KCAL/MOL
REMARK 924 INTRA-LIGAND FREE ENERGY PREDICTED BY IDOCK:   -0.16 KCAL/MOL
REMARK 927      BINDING AFFINITY PREDICTED BY RF-SCORE:    0.00 PKD
ROOT
HETATM    1  N   UNL     1     -10.986   8.647  69.199  1.00  0.00    -0.430 NA 
HETATM    2  H2  UNL     1     -10.409   7.910  69.605  1.00  0.00     0.000 HD 
HETATM    3  C   UNL     1     -10.498   9.028  67.870  1.00  0.00    -0.234 C  
HETATM    4  H1  UNL     1     -11.061   9.444  69.831  1.00  0.00     0.000 HD 
ENDROOT
BRANCH   3   5
HETATM    5  C   UNL     1     -10.384   7.825  66.916  1.00  0.00    -0.326 C  
BRANCH   5   6
HETATM    6  N   UNL     1     -11.323   6.758  67.282  1.00  0.00    -0.753 NA 
HETATM    7  H   UNL     1     -12.065   6.658  66.590  1.00  0.00     0.000 HD 
BRANCH   6   8
HETATM    8  C   UNL     1     -10.622   5.486  67.509  1.00  0.00    -0.177 C  
BRANCH   8   9
HETATM    9  C   UNL     1     -10.334   4.778  66.171  1.00  0.00    -0.300 C  
BRANCH   9  10
HETATM   10  N   UNL     1      -9.299   3.739  66.316  1.00  0.00    -0.172 NA 
HETATM   11  H   UNL     1      -9.677   2.802  66.174  1.00  0.00     0.000 HD 
BRANCH  10  12
HETATM   12  C   UNL     1      -8.168   4.019  65.416  1.00  0.00    -0.101 C  
BRANCH  12  13
HETATM   13  C   UNL     1      -8.607   4.864  64.206  1.00  0.00    -0.141 C  
HETATM   14  N   UNL     1      -8.839   4.048  63.008  1.00  0.00    -0.103 NA 
HETATM   15  H1  UNL     1      -9.130   4.608  62.207  1.00  0.00     0.000 HD 
HETATM   16  H2  UNL     1      -9.507   3.301  63.197  1.00  0.00     0.000 HD 
ENDBRANCH  12  13
ENDBRANCH  10  12
ENDBRANCH   9  10
ENDBRANCH   8   9
ENDBRANCH   6   8
ENDBRANCH   5   6
ENDBRANCH   3   5
TORSDOF 7
ENDMDL
MODEL      238
REMARK 921   NORMALIZED FREE ENERGY PREDICTED BY IDOCK:   -1.70 KCAL/MOL
REMARK 922        TOTAL FREE ENERGY PREDICTED BY IDOCK:   -2.89 KCAL/MOL
REMARK 923 INTER-LIGAND FREE ENERGY PREDICTED BY IDOCK:   -2.71 KCAL/MOL
REMARK 924 INTRA-LIGAND FREE ENERGY PREDICTED BY IDOCK:   -0.19 KCAL/MOL
REMARK 927      BINDING AFFINITY PREDICTED BY RF-SCORE:    0.00 PKD
ROOT
HETATM    1  N   UNL     1      -6.595   5.165  71.362  1.00  0.00    -0.034 NA 
HETATM    2  H2  UNL     1      -6.607   6.158  71.131  1.00  0.00     0.000 HD 
HETATM    3  C   UNL     1      -7.946   4.673  71.646  1.00  0.00    -0.101 C  
HETATM    4  H1  UNL     1      -5.942   4.974  72.123  1.00  0.00     0.000 HD 
ENDROOT
BRANCH   3   5
HETATM    5  C   UNL     1      -8.932   4.962  70.499  1.00  0.00    -0.120 C  
BRANCH   5   6
HETATM    6  N   UNL     1     -10.256   5.336  71.008  1.00  0.00    -0.219 NA 
HETATM    7  H   UNL     1     -10.389   5.025  71.970  1.00  0.00     0.000 HD 
BRANCH   6   8
HETATM    8  C   UNL     1     -10.490   6.781  70.872  1.00  0.00    -0.213 C  
BRANCH   8   9
HETATM    9  C   UNL     1     -10.583   7.449  72.258  1.00  0.00    -0.232 C  
BRANCH   9  10
HETATM   10  N   UNL     1     -11.959   7.428  72.783  1.00  0.00    -0.556 NA 
HETATM   11  H   UNL     1     -12.027   7.882  73.695  1.00  0.00     0.000 HD 
BRANCH  10  12
HETATM   12  C   UNL     1     -12.886   8.021  71.804  1.00  0.00    -0.332 C  
BRANCH  12  13
HETATM   13  C   UNL     1     -13.426   9.379  72.290  1.00  0.00    -0.465 C  
HETATM   14  N   UNL     1     -12.921  10.500  71.489  1.00  0.00    -0.431 NA 
HETATM   15  H1  UNL     1     -13.279  11.400  71.811  1.00  0.00     0.000 HD 
HETATM   16  H2  UNL     1     -13.116  10.361  70.498  1.00  0.00     0.000 HD 
ENDBRANCH  12  13
ENDBRANCH  10  12
ENDBRANCH   9  10
ENDBRANCH   8   9
ENDBRANCH   6   8
ENDBRANCH   5   6
ENDBRANCH   3   5
TORSDOF 7
ENDMDL
MODEL      239
REMARK 921   NORMALIZED FREE ENERGY PREDICTED BY IDOCK:   -1.69 KCAL/MOL
REMARK 922        TOTAL FREE ENERGY PREDICTED BY IDOCK:   -2.89 KCAL/MOL
REMARK 923 INTER-LIGAND FREE ENERGY PREDICTED BY IDOCK:   -2.66 KCAL/MOL
REMARK 924 INTRA-LIGAND FREE ENERGY PREDICTED BY IDOCK:   -0.23 KCAL/MOL
REMARK 927      BINDING AFFINITY PREDICTED BY RF-SCORE:    0.00 PKD
ROOT
HETATM    1  N   UNL     1      -6.475  11.464  66.139  1.00  0.00    -0.368 NA 
HETATM    2  H2  UNL     1      -5.762  12.192  66.078  1.00  0.00     0.000 HD 
HETATM    3  C   UNL     1      -7.086  11.434  67.470  1.00  0.00    -0.106 C  
HETATM    4  H1  UNL     1      -6.096  10.558  65.861  1.00  0.00     0.000 HD 
ENDROOT
BRANCH   3   5
HETATM    5  C   UNL     1      -7.656  12.801  67.889  1.00  0.00    -0.138 C  
BRANCH   5   6
HETATM    6  N   UNL     1      -6.879  13.906  67.317  1.00  0.00    -0.417 NA 
HETATM    7  H   UNL     1      -6.778  13.809  66.307  1.00  0.00     0.000 HD 
BRANCH   6   8
HETATM    8  C   UNL     1      -7.456  15.208  67.679  1.00  0.00    -0.181 C  
BRANCH   8   9
HETATM    9  C   UNL     1      -8.486  15.659  66.625  1.00  0.00    -0.288 C  
BRANCH   9  10
HETATM   10  N   UNL     1      -9.750  16.089  67.248  1.00  0.00    -0.230 NA 
HETATM   11  H   UNL     1     -10.171  16.876  66.752  1.00  0.00     0.000 HD 
BRANCH  10  12
HETATM   12  C   UNL     1     -10.676  14.950  67.358  1.00  0.00    -0.292 C  
BRANCH  12  13
HETATM   13  C   UNL     1     -11.107  14.438  65.971  1.00  0.00    -0.324 C  
HETATM   14  N   UNL     1     -11.479  13.019  65.989  1.00  0.00    -0.321 NA 
HETATM   15  H1  UNL     1     -11.765  12.680  65.071  1.00  0.00     0.000 HD 
HETATM   16  H2  UNL     1     -12.199  12.837  66.688  1.00  0.00     0.000 HD 
ENDBRANCH  12  13
ENDBRANCH  10  12
ENDBRANCH   9  10
ENDBRANCH   8   9
ENDBRANCH   6   8
ENDBRANCH   5   6
ENDBRANCH   3   5
TORSDOF 7
ENDMDL
MODEL      240
REMARK 921   NORMALIZED FREE ENERGY PREDICTED BY IDOCK:   -1.68 KCAL/MOL
REMARK 922        TOTAL FREE ENERGY PREDICTED BY IDOCK:   -2.88 KCAL/MOL
REMARK 923 INTER-LIGAND FREE ENERGY PREDICTED BY IDOCK:   -2.72 KCAL/MOL
REMARK 924 INTRA-LIGAND FREE ENERGY PREDICTED BY IDOCK:   -0.16 KCAL/MOL
REMARK 927      BINDING AFFINITY PREDICTED BY RF-SCORE:    0.00 PKD
ROOT
HETATM    1  N   UNL     1      -9.715   1.504  71.166  1.00  0.00    -0.133 NA 
HETATM    2  H2  UNL     1     -10.690   1.226  71.052  1.00  0.00     0.000 HD 
HETATM    3  C   UNL     1      -9.612   2.832  71.776  1.00  0.00    -0.147 C  
HETATM    4  H1  UNL     1      -9.211   1.440  70.281  1.00  0.00     0.000 HD 
ENDROOT
BRANCH   3   5
HETATM    5  C   UNL     1     -10.374   2.929  73.110  1.00  0.00    -0.148 C  
BRANCH   5   6
HETATM    6  N   UNL     1     -10.771   4.310  73.404  1.00  0.00    -0.207 NA 
HETATM    7  H   UNL     1     -10.641   4.536  74.390  1.00  0.00     0.000 HD 
BRANCH   6   8
HETATM    8  C   UNL     1     -10.067   5.264  72.536  1.00  0.00    -0.181 C  
BRANCH   8   9
HETATM    9  C   UNL     1     -11.061   6.256  71.900  1.00  0.00    -0.268 C  
BRANCH   9  10
HETATM   10  N   UNL     1     -11.563   7.230  72.886  1.00  0.00    -0.563 NA 
HETATM   11  H   UNL     1     -10.880   7.415  73.621  1.00  0.00     0.000 HD 
BRANCH  10  12
HETATM   12  C   UNL     1     -11.988   8.466  72.208  1.00  0.00    -0.389 C  
BRANCH  12  13
HETATM   13  C   UNL     1     -10.826   9.109  71.427  1.00  0.00    -0.349 C  
HETATM   14  N   UNL     1     -11.261  10.251  70.615  1.00  0.00    -0.330 NA 
HETATM   15  H1  UNL     1     -10.492  10.676  70.098  1.00  0.00     0.000 HD 
HETATM   16  H2  UNL     1     -11.748  10.942  71.185  1.00  0.00     0.000 HD 
ENDBRANCH  12  13
ENDBRANCH  10  12
ENDBRANCH   9  10
ENDBRANCH   8   9
ENDBRANCH   6   8
ENDBRANCH   5   6
ENDBRANCH   3   5
TORSDOF 7
ENDMDL
MODEL      241
REMARK 921   NORMALIZED FREE ENERGY PREDICTED BY IDOCK:   -1.67 KCAL/MOL
REMARK 922        TOTAL FREE ENERGY PREDICTED BY IDOCK:   -2.86 KCAL/MOL
REMARK 923 INTER-LIGAND FREE ENERGY PREDICTED BY IDOCK:   -2.68 KCAL/MOL
REMARK 924 INTRA-LIGAND FREE ENERGY PREDICTED BY IDOCK:   -0.18 KCAL/MOL
REMARK 927      BINDING AFFINITY PREDICTED BY RF-SCORE:    0.00 PKD
ROOT
HETATM    1  N   UNL     1      -6.187  13.744  71.140  1.00  0.00    -0.525 NA 
HETATM    2  H2  UNL     1      -6.295  14.330  71.968  1.00  0.00     0.000 HD 
HETATM    3  C   UNL     1      -6.725  14.409  69.950  1.00  0.00    -0.101 C  
HETATM    4  H1  UNL     1      -6.593  12.820  71.290  1.00  0.00     0.000 HD 
ENDROOT
BRANCH   3   5
HETATM    5  C   UNL     1      -6.112  15.803  69.725  1.00  0.00    -0.165 C  
BRANCH   5   6
HETATM    6  N   UNL     1      -7.113  16.759  69.239  1.00  0.00    -0.225 NA 
HETATM    7  H   UNL     1      -6.769  17.717  69.285  1.00  0.00     0.000 HD 
BRANCH   6   8
HETATM    8  C   UNL     1      -7.568  16.413  67.885  1.00  0.00    -0.148 C  
BRANCH   8   9
HETATM    9  C   UNL     1      -8.987  16.958  67.632  1.00  0.00    -0.219 C  
BRANCH   9  10
HETATM   10  N   UNL     1      -9.994  15.882  67.647  1.00  0.00    -0.235 NA 
HETATM   11  H   UNL     1      -9.576  14.970  67.838  1.00  0.00     0.000 HD 
BRANCH  10  12
HETATM   12  C   UNL     1     -11.068  16.204  68.601  1.00  0.00    -0.356 C  
BRANCH  12  13
HETATM   13  C   UNL     1     -11.551  14.948  69.351  1.00  0.00    -0.309 C  
HETATM   14  N   UNL     1     -10.705  13.779  69.087  1.00  0.00    -0.400 NA 
HETATM   15  H1  UNL     1     -11.024  12.948  69.584  1.00  0.00     0.000 HD 
HETATM   16  H2  UNL     1      -9.727  13.979  69.296  1.00  0.00     0.000 HD 
ENDBRANCH  12  13
ENDBRANCH  10  12
ENDBRANCH   9  10
ENDBRANCH   8   9
ENDBRANCH   6   8
ENDBRANCH   5   6
ENDBRANCH   3   5
TORSDOF 7
ENDMDL
MODEL      242
REMARK 921   NORMALIZED FREE ENERGY PREDICTED BY IDOCK:   -1.67 KCAL/MOL
REMARK 922        TOTAL FREE ENERGY PREDICTED BY IDOCK:   -2.85 KCAL/MOL
REMARK 923 INTER-LIGAND FREE ENERGY PREDICTED BY IDOCK:   -2.74 KCAL/MOL
REMARK 924 INTRA-LIGAND FREE ENERGY PREDICTED BY IDOCK:   -0.12 KCAL/MOL
REMARK 927      BINDING AFFINITY PREDICTED BY RF-SCORE:    0.00 PKD
ROOT
HETATM    1  N   UNL     1     -10.606   7.649  66.601  1.00  0.00    -0.478 NA 
HETATM    2  H2  UNL     1     -11.483   7.766  67.108  1.00  0.00     0.000 HD 
HETATM    3  C   UNL     1     -10.042   8.945  66.215  1.00  0.00    -0.214 C  
HETATM    4  H1  UNL     1     -10.724   7.021  65.805  1.00  0.00     0.000 HD 
ENDROOT
BRANCH   3   5
HETATM    5  C   UNL     1      -9.865   9.892  67.416  1.00  0.00    -0.179 C  
BRANCH   5   6
HETATM    6  N   UNL     1     -11.088  10.657  67.683  1.00  0.00    -0.314 NA 
HETATM    7  H   UNL     1     -11.894  10.044  67.802  1.00  0.00     0.000 HD 
BRANCH   6   8
HETATM    8  C   UNL     1     -10.916  11.552  68.836  1.00  0.00    -0.229 C  
BRANCH   8   9
HETATM    9  C   UNL     1     -11.331  12.991  68.474  1.00  0.00    -0.288 C  
BRANCH   9  10
HETATM   10  N   UNL     1     -10.380  13.983  69.007  1.00  0.00    -0.393 NA 
HETATM   11  H   UNL     1      -9.601  13.539  69.495  1.00  0.00     0.000 HD 
BRANCH  10  12
HETATM   12  C   UNL     1      -9.919  14.874  67.929  1.00  0.00    -0.219 C  
BRANCH  12  13
HETATM   13  C   UNL     1      -8.675  14.304  67.220  1.00  0.00    -0.218 C  
HETATM   14  N   UNL     1      -7.544  15.238  67.239  1.00  0.00    -0.204 NA 
HETATM   15  H1  UNL     1      -6.721  14.861  66.769  1.00  0.00     0.000 HD 
HETATM   16  H2  UNL     1      -7.323  15.530  68.191  1.00  0.00     0.000 HD 
ENDBRANCH  12  13
ENDBRANCH  10  12
ENDBRANCH   9  10
ENDBRANCH   8   9
ENDBRANCH   6   8
ENDBRANCH   5   6
ENDBRANCH   3   5
TORSDOF 7
ENDMDL
MODEL      243
REMARK 921   NORMALIZED FREE ENERGY PREDICTED BY IDOCK:   -1.66 KCAL/MOL
REMARK 922        TOTAL FREE ENERGY PREDICTED BY IDOCK:   -2.85 KCAL/MOL
REMARK 923 INTER-LIGAND FREE ENERGY PREDICTED BY IDOCK:   -2.70 KCAL/MOL
REMARK 924 INTRA-LIGAND FREE ENERGY PREDICTED BY IDOCK:   -0.15 KCAL/MOL
REMARK 927      BINDING AFFINITY PREDICTED BY RF-SCORE:    0.00 PKD
ROOT
HETATM    1  N   UNL     1      -8.837  14.524  67.465  1.00  0.00    -0.178 NA 
HETATM    2  H2  UNL     1      -7.929  14.669  67.023  1.00  0.00     0.000 HD 
HETATM    3  C   UNL     1      -9.677  13.629  66.663  1.00  0.00    -0.284 C  
HETATM    4  H1  UNL     1      -9.293  15.414  67.665  1.00  0.00     0.000 HD 
ENDROOT
BRANCH   3   5
HETATM    5  C   UNL     1      -8.987  12.287  66.360  1.00  0.00    -0.117 C  
BRANCH   5   6
HETATM    6  N   UNL     1      -9.294  11.818  65.004  1.00  0.00    -0.431 NA 
HETATM    7  H   UNL     1      -8.700  12.268  64.309  1.00  0.00     0.000 HD 
BRANCH   6   8
HETATM    8  C   UNL     1      -9.214  10.353  64.915  1.00  0.00    -0.221 C  
BRANCH   8   9
HETATM    9  C   UNL     1      -9.975   9.695  66.083  1.00  0.00    -0.276 C  
BRANCH   9  10
HETATM   10  N   UNL     1      -9.896   8.225  66.024  1.00  0.00    -0.468 NA 
HETATM   11  H   UNL     1      -8.930   7.895  66.006  1.00  0.00     0.000 HD 
BRANCH  10  12
HETATM   12  C   UNL     1     -10.659   7.630  67.134  1.00  0.00    -0.340 C  
BRANCH  12  13
HETATM   13  C   UNL     1      -9.795   7.493  68.402  1.00  0.00    -0.164 C  
HETATM   14  N   UNL     1     -10.506   7.922  69.612  1.00  0.00    -0.224 NA 
HETATM   15  H1  UNL     1      -9.934   7.832  70.452  1.00  0.00     0.000 HD 
HETATM   16  H2  UNL     1     -11.390   7.425  69.715  1.00  0.00     0.000 HD 
ENDBRANCH  12  13
ENDBRANCH  10  12
ENDBRANCH   9  10
ENDBRANCH   8   9
ENDBRANCH   6   8
ENDBRANCH   5   6
ENDBRANCH   3   5
TORSDOF 7
ENDMDL
MODEL      244
REMARK 921   NORMALIZED FREE ENERGY PREDICTED BY IDOCK:   -1.64 KCAL/MOL
REMARK 922        TOTAL FREE ENERGY PREDICTED BY IDOCK:   -2.82 KCAL/MOL
REMARK 923 INTER-LIGAND FREE ENERGY PREDICTED BY IDOCK:   -2.20 KCAL/MOL
REMARK 924 INTRA-LIGAND FREE ENERGY PREDICTED BY IDOCK:   -0.62 KCAL/MOL
REMARK 927      BINDING AFFINITY PREDICTED BY RF-SCORE:    0.00 PKD
ROOT
HETATM    1  N   UNL     1     -10.580   7.419  69.342  1.00  0.00    -0.228 NA 
HETATM    2  H2  UNL     1      -9.940   6.626  69.396  1.00  0.00     0.000 HD 
HETATM    3  C   UNL     1     -10.228   8.305  68.228  1.00  0.00    -0.208 C  
HETATM    4  H1  UNL     1     -10.628   7.913  70.233  1.00  0.00     0.000 HD 
ENDROOT
BRANCH   3   5
HETATM    5  C   UNL     1     -10.155   7.559  66.883  1.00  0.00    -0.266 C  
BRANCH   5   6
HETATM    6  N   UNL     1     -11.232   6.571  66.756  1.00  0.00    -0.759 NA 
HETATM    7  H   UNL     1     -12.005   6.929  66.197  1.00  0.00     0.000 HD 
BRANCH   6   8
HETATM    8  C   UNL     1     -10.727   5.297  66.224  1.00  0.00    -0.196 C  
BRANCH   8   9
HETATM    9  C   UNL     1      -9.187   5.309  66.155  1.00  0.00    -0.154 C  
BRANCH   9  10
HETATM   10  N   UNL     1      -8.608   4.068  66.699  1.00  0.00    -0.108 NA 
HETATM   11  H   UNL     1      -7.631   3.952  66.428  1.00  0.00     0.000 HD 
BRANCH  10  12
HETATM   12  C   UNL     1      -8.783   4.023  68.160  1.00  0.00    -0.101 C  
BRANCH  12  13
HETATM   13  C   UNL     1      -7.710   4.859  68.882  1.00  0.00    -0.073 C  
HETATM   14  N   UNL     1      -8.274   5.695  69.948  1.00  0.00    -0.108 NA 
HETATM   15  H1  UNL     1      -7.564   6.249  70.426  1.00  0.00     0.000 HD 
HETATM   16  H2  UNL     1      -8.810   5.134  70.610  1.00  0.00     0.000 HD 
ENDBRANCH  12  13
ENDBRANCH  10  12
ENDBRANCH   9  10
ENDBRANCH   8   9
ENDBRANCH   6   8
ENDBRANCH   5   6
ENDBRANCH   3   5
TORSDOF 7
ENDMDL
MODEL      245
REMARK 921   NORMALIZED FREE ENERGY PREDICTED BY IDOCK:   -1.64 KCAL/MOL
REMARK 922        TOTAL FREE ENERGY PREDICTED BY IDOCK:   -2.81 KCAL/MOL
REMARK 923 INTER-LIGAND FREE ENERGY PREDICTED BY IDOCK:   -2.67 KCAL/MOL
REMARK 924 INTRA-LIGAND FREE ENERGY PREDICTED BY IDOCK:   -0.14 KCAL/MOL
REMARK 927      BINDING AFFINITY PREDICTED BY RF-SCORE:    0.00 PKD
ROOT
HETATM    1  N   UNL     1      -8.657   4.508  62.892  1.00  0.00    -0.105 NA 
HETATM    2  H2  UNL     1      -7.868   4.115  63.405  1.00  0.00     0.000 HD 
HETATM    3  C   UNL     1      -9.922   3.919  63.339  1.00  0.00    -0.163 C  
HETATM    4  H1  UNL     1      -8.519   4.419  61.885  1.00  0.00     0.000 HD 
ENDROOT
BRANCH   3   5
HETATM    5  C   UNL     1     -10.130   4.051  64.859  1.00  0.00    -0.205 C  
BRANCH   5   6
HETATM    6  N   UNL     1      -9.884   5.422  65.318  1.00  0.00    -0.343 NA 
HETATM    7  H   UNL     1     -10.151   6.107  64.612  1.00  0.00     0.000 HD 
BRANCH   6   8
HETATM    8  C   UNL     1     -10.550   5.683  66.602  1.00  0.00    -0.295 C  
BRANCH   8   9
HETATM    9  C   UNL     1     -10.709   7.199  66.834  1.00  0.00    -0.293 C  
BRANCH   9  10
HETATM   10  N   UNL     1      -9.558   7.954  66.308  1.00  0.00    -0.390 NA 
HETATM   11  H   UNL     1      -9.126   7.484  65.510  1.00  0.00     0.000 HD 
BRANCH  10  12
HETATM   12  C   UNL     1      -9.960   9.332  65.983  1.00  0.00    -0.255 C  
BRANCH  12  13
HETATM   13  C   UNL     1      -9.041   9.949  64.911  1.00  0.00    -0.224 C  
HETATM   14  N   UNL     1      -8.728   9.006  63.832  1.00  0.00    -0.396 NA 
HETATM   15  H1  UNL     1      -8.120   9.414  63.123  1.00  0.00     0.000 HD 
HETATM   16  H2  UNL     1      -9.579   8.629  63.415  1.00  0.00     0.000 HD 
ENDBRANCH  12  13
ENDBRANCH  10  12
ENDBRANCH   9  10
ENDBRANCH   8   9
ENDBRANCH   6   8
ENDBRANCH   5   6
ENDBRANCH   3   5
TORSDOF 7
ENDMDL
MODEL      246
REMARK 921   NORMALIZED FREE ENERGY PREDICTED BY IDOCK:   -1.64 KCAL/MOL
REMARK 922        TOTAL FREE ENERGY PREDICTED BY IDOCK:   -2.81 KCAL/MOL
REMARK 923 INTER-LIGAND FREE ENERGY PREDICTED BY IDOCK:   -2.54 KCAL/MOL
REMARK 924 INTRA-LIGAND FREE ENERGY PREDICTED BY IDOCK:   -0.27 KCAL/MOL
REMARK 927      BINDING AFFINITY PREDICTED BY RF-SCORE:    0.00 PKD
ROOT
HETATM    1  N   UNL     1     -12.803   7.140  71.150  1.00  0.00    -0.522 NA 
HETATM    2  H2  UNL     1     -12.046   6.462  71.236  1.00  0.00     0.000 HD 
HETATM    3  C   UNL     1     -12.418   8.435  71.718  1.00  0.00    -0.335 C  
HETATM    4  H1  UNL     1     -13.667   6.777  71.554  1.00  0.00     0.000 HD 
ENDROOT
BRANCH   3   5
HETATM    5  C   UNL     1     -11.114   8.982  71.109  1.00  0.00    -0.301 C  
BRANCH   5   6
HETATM    6  N   UNL     1     -11.212   9.105  69.650  1.00  0.00    -0.431 NA 
HETATM    7  H   UNL     1     -11.626   9.996  69.377  1.00  0.00     0.000 HD 
BRANCH   6   8
HETATM    8  C   UNL     1      -9.906   8.897  69.008  1.00  0.00    -0.180 C  
BRANCH   8   9
HETATM    9  C   UNL     1      -9.891   7.570  68.225  1.00  0.00    -0.163 C  
BRANCH   9  10
HETATM   10  N   UNL     1      -8.576   6.908  68.301  1.00  0.00    -0.125 NA 
HETATM   11  H   UNL     1      -7.808   7.575  68.218  1.00  0.00     0.000 HD 
BRANCH  10  12
HETATM   12  C   UNL     1      -8.480   6.110  69.535  1.00  0.00    -0.120 C  
BRANCH  12  13
HETATM   13  C   UNL     1      -9.782   5.332  69.806  1.00  0.00    -0.189 C  
HETATM   14  N   UNL     1      -9.768   3.992  69.208  1.00  0.00    -0.172 NA 
HETATM   15  H1  UNL     1     -10.630   3.478  69.388  1.00  0.00     0.000 HD 
HETATM   16  H2  UNL     1      -8.953   3.462  69.514  1.00  0.00     0.000 HD 
ENDBRANCH  12  13
ENDBRANCH  10  12
ENDBRANCH   9  10
ENDBRANCH   8   9
ENDBRANCH   6   8
ENDBRANCH   5   6
ENDBRANCH   3   5
TORSDOF 7
ENDMDL
MODEL      247
REMARK 921   NORMALIZED FREE ENERGY PREDICTED BY IDOCK:   -1.61 KCAL/MOL
REMARK 922        TOTAL FREE ENERGY PREDICTED BY IDOCK:   -2.77 KCAL/MOL
REMARK 923 INTER-LIGAND FREE ENERGY PREDICTED BY IDOCK:   -2.64 KCAL/MOL
REMARK 924 INTRA-LIGAND FREE ENERGY PREDICTED BY IDOCK:   -0.14 KCAL/MOL
REMARK 927      BINDING AFFINITY PREDICTED BY RF-SCORE:    0.00 PKD
ROOT
HETATM    1  N   UNL     1     -11.683  13.136  68.108  1.00  0.00    -0.336 NA 
HETATM    2  H2  UNL     1     -11.745  13.590  69.019  1.00  0.00     0.000 HD 
HETATM    3  C   UNL     1     -11.239  14.078  67.077  1.00  0.00    -0.313 C  
HETATM    4  H1  UNL     1     -12.562  12.678  67.866  1.00  0.00     0.000 HD 
ENDROOT
BRANCH   3   5
HETATM    5  C   UNL     1      -9.912  14.770  67.442  1.00  0.00    -0.223 C  
BRANCH   5   6
HETATM    6  N   UNL     1     -10.135  16.133  67.937  1.00  0.00    -0.240 NA 
HETATM    7  H   UNL     1     -11.089  16.258  68.272  1.00  0.00     0.000 HD 
BRANCH   6   8
HETATM    8  C   UNL     1      -9.150  16.493  68.967  1.00  0.00    -0.229 C  
BRANCH   8   9
HETATM    9  C   UNL     1      -7.842  16.987  68.319  1.00  0.00    -0.216 C  
BRANCH   9  10
HETATM   10  N   UNL     1      -7.110  17.909  69.205  1.00  0.00    -0.169 NA 
HETATM   11  H   UNL     1      -6.373  17.433  69.727  1.00  0.00     0.000 HD 
BRANCH  10  12
HETATM   12  C   UNL     1      -6.588  19.049  68.433  1.00  0.00    -0.248 C  
BRANCH  12  13
HETATM   13  C   UNL     1      -7.640  20.166  68.297  1.00  0.00    -0.173 C  
HETATM   14  N   UNL     1      -7.876  20.545  66.900  1.00  0.00    -0.488 NA 
HETATM   15  H1  UNL     1      -8.573  21.285  66.809  1.00  0.00     0.000 HD 
HETATM   16  H2  UNL     1      -8.127  19.733  66.336  1.00  0.00     0.000 HD 
ENDBRANCH  12  13
ENDBRANCH  10  12
ENDBRANCH   9  10
ENDBRANCH   8   9
ENDBRANCH   6   8
ENDBRANCH   5   6
ENDBRANCH   3   5
TORSDOF 7
ENDMDL
MODEL      248
REMARK 921   NORMALIZED FREE ENERGY PREDICTED BY IDOCK:   -1.60 KCAL/MOL
REMARK 922        TOTAL FREE ENERGY PREDICTED BY IDOCK:   -2.76 KCAL/MOL
REMARK 923 INTER-LIGAND FREE ENERGY PREDICTED BY IDOCK:   -2.58 KCAL/MOL
REMARK 924 INTRA-LIGAND FREE ENERGY PREDICTED BY IDOCK:   -0.18 KCAL/MOL
REMARK 927      BINDING AFFINITY PREDICTED BY RF-SCORE:    0.00 PKD
ROOT
HETATM    1  N   UNL     1     -11.772   1.610  63.444  1.00  0.00    -0.558 NA 
HETATM    2  H2  UNL     1     -12.313   1.902  62.630  1.00  0.00     0.000 HD 
HETATM    3  C   UNL     1     -10.523   2.368  63.548  1.00  0.00    -0.174 C  
HETATM    4  H1  UNL     1     -11.618   0.601  63.439  1.00  0.00     0.000 HD 
ENDROOT
BRANCH   3   5
HETATM    5  C   UNL     1     -10.755   3.890  63.554  1.00  0.00    -0.149 C  
BRANCH   5   6
HETATM    6  N   UNL     1     -11.308   4.344  64.835  1.00  0.00    -1.085 NA 
HETATM    7  H   UNL     1     -12.116   3.787  65.113  1.00  0.00     0.000 HD 
BRANCH   6   8
HETATM    8  C   UNL     1     -10.279   4.362  65.884  1.00  0.00    -0.227 C  
BRANCH   8   9
HETATM    9  C   UNL     1      -9.197   5.412  65.566  1.00  0.00    -0.081 C  
BRANCH   9  10
HETATM   10  N   UNL     1      -8.501   5.863  66.784  1.00  0.00    -0.109 NA 
HETATM   11  H   UNL     1      -9.110   6.419  67.387  1.00  0.00     0.000 HD 
BRANCH  10  12
HETATM   12  C   UNL     1      -7.925   4.711  67.497  1.00  0.00    -0.097 C  
BRANCH  12  13
HETATM   13  C   UNL     1      -6.760   4.086  66.707  1.00  0.00    -0.047 C  
HETATM   14  N   UNL     1      -7.029   2.697  66.318  1.00  0.00    -0.051 NA 
HETATM   15  H1  UNL     1      -6.258   2.282  65.795  1.00  0.00     0.000 HD 
HETATM   16  H2  UNL     1      -7.906   2.623  65.802  1.00  0.00     0.000 HD 
ENDBRANCH  12  13
ENDBRANCH  10  12
ENDBRANCH   9  10
ENDBRANCH   8   9
ENDBRANCH   6   8
ENDBRANCH   5   6
ENDBRANCH   3   5
TORSDOF 7
ENDMDL
MODEL      249
REMARK 921   NORMALIZED FREE ENERGY PREDICTED BY IDOCK:   -1.59 KCAL/MOL
REMARK 922        TOTAL FREE ENERGY PREDICTED BY IDOCK:   -2.74 KCAL/MOL
REMARK 923 INTER-LIGAND FREE ENERGY PREDICTED BY IDOCK:   -2.56 KCAL/MOL
REMARK 924 INTRA-LIGAND FREE ENERGY PREDICTED BY IDOCK:   -0.19 KCAL/MOL
REMARK 927      BINDING AFFINITY PREDICTED BY RF-SCORE:    0.00 PKD
ROOT
HETATM    1  N   UNL     1      -6.223  17.029  68.988  1.00  0.00    -0.178 NA 
HETATM    2  H2  UNL     1      -5.807  16.335  68.366  1.00  0.00     0.000 HD 
HETATM    3  C   UNL     1      -7.674  17.106  68.798  1.00  0.00    -0.259 C  
HETATM    4  H1  UNL     1      -5.766  17.935  68.883  1.00  0.00     0.000 HD 
ENDROOT
BRANCH   3   5
HETATM    5  C   UNL     1      -8.363  15.738  68.956  1.00  0.00    -0.236 C  
BRANCH   5   6
HETATM    6  N   UNL     1      -8.037  14.840  67.843  1.00  0.00    -0.132 NA 
HETATM    7  H   UNL     1      -7.627  13.967  68.174  1.00  0.00     0.000 HD 
BRANCH   6   8
HETATM    8  C   UNL     1      -9.211  14.596  66.993  1.00  0.00    -0.239 C  
BRANCH   8   9
HETATM    9  C   UNL     1      -9.393  15.740  65.977  1.00  0.00    -0.349 C  
BRANCH   9  10
HETATM   10  N   UNL     1     -10.609  16.526  66.253  1.00  0.00    -0.266 NA 
HETATM   11  H   UNL     1     -10.748  16.674  67.253  1.00  0.00     0.000 HD 
BRANCH  10  12
HETATM   12  C   UNL     1     -10.574  17.796  65.508  1.00  0.00    -0.041 C  
BRANCH  12  13
HETATM   13  C   UNL     1      -9.958  18.927  66.353  1.00  0.00    -0.393 C  
HETATM   14  N   UNL     1     -10.814  19.312  67.481  1.00  0.00    -0.461 NA 
HETATM   15  H1  UNL     1     -10.407  20.061  68.040  1.00  0.00     0.000 HD 
HETATM   16  H2  UNL     1     -11.044  18.505  68.060  1.00  0.00     0.000 HD 
ENDBRANCH  12  13
ENDBRANCH  10  12
ENDBRANCH   9  10
ENDBRANCH   8   9
ENDBRANCH   6   8
ENDBRANCH   5   6
ENDBRANCH   3   5
TORSDOF 7
ENDMDL
MODEL      250
REMARK 921   NORMALIZED FREE ENERGY PREDICTED BY IDOCK:   -1.58 KCAL/MOL
REMARK 922        TOTAL FREE ENERGY PREDICTED BY IDOCK:   -2.73 KCAL/MOL
REMARK 923 INTER-LIGAND FREE ENERGY PREDICTED BY IDOCK:   -2.53 KCAL/MOL
REMARK 924 INTRA-LIGAND FREE ENERGY PREDICTED BY IDOCK:   -0.19 KCAL/MOL
REMARK 927      BINDING AFFINITY PREDICTED BY RF-SCORE:    0.00 PKD
ROOT
HETATM    1  N   UNL     1      -7.619   4.249  74.119  1.00  0.00    -0.079 NA 
HETATM    2  H2  UNL     1      -8.352   3.726  73.640  1.00  0.00     0.000 HD 
HETATM    3  C   UNL     1      -7.835   5.693  73.996  1.00  0.00    -0.099 C  
HETATM    4  H1  UNL     1      -6.695   3.963  73.797  1.00  0.00     0.000 HD 
ENDROOT
BRANCH   3   5
HETATM    5  C   UNL     1      -9.231   6.125  74.481  1.00  0.00    -0.166 C  
BRANCH   5   6
HETATM    6  N   UNL     1      -9.583   7.460  73.986  1.00  0.00    -0.392 NA 
HETATM    7  H   UNL     1      -8.753   8.005  73.754  1.00  0.00     0.000 HD 
BRANCH   6   8
HETATM    8  C   UNL     1     -10.511   7.380  72.849  1.00  0.00    -0.295 C  
BRANCH   8   9
HETATM    9  C   UNL     1     -10.294   8.563  71.886  1.00  0.00    -0.308 C  
BRANCH   9  10
HETATM   10  N   UNL     1      -9.776   8.115  70.581  1.00  0.00    -0.170 NA 
HETATM   11  H   UNL     1      -8.785   8.330  70.469  1.00  0.00     0.000 HD 
BRANCH  10  12
HETATM   12  C   UNL     1     -10.053   6.681  70.390  1.00  0.00    -0.183 C  
BRANCH  12  13
HETATM   13  C   UNL     1     -11.125   6.454  69.307  1.00  0.00    -0.373 C  
HETATM   14  N   UNL     1     -10.913   7.295  68.124  1.00  0.00    -0.465 NA 
HETATM   15  H1  UNL     1     -11.622   7.145  67.407  1.00  0.00     0.000 HD 
HETATM   16  H2  UNL     1      -9.975   7.166  67.745  1.00  0.00     0.000 HD 
ENDBRANCH  12  13
ENDBRANCH  10  12
ENDBRANCH   9  10
ENDBRANCH   8   9
ENDBRANCH   6   8
ENDBRANCH   5   6
ENDBRANCH   3   5
TORSDOF 7
ENDMDL
MODEL      251
REMARK 921   NORMALIZED FREE ENERGY PREDICTED BY IDOCK:   -1.57 KCAL/MOL
REMARK 922        TOTAL FREE ENERGY PREDICTED BY IDOCK:   -2.72 KCAL/MOL
REMARK 923 INTER-LIGAND FREE ENERGY PREDICTED BY IDOCK:   -2.54 KCAL/MOL
REMARK 924 INTRA-LIGAND FREE ENERGY PREDICTED BY IDOCK:   -0.19 KCAL/MOL
REMARK 927      BINDING AFFINITY PREDICTED BY RF-SCORE:    0.00 PKD
ROOT
HETATM    1  N   UNL     1      -9.657   3.651  70.036  1.00  0.00    -0.192 NA 
HETATM    2  H2  UNL     1      -9.602   3.223  70.960  1.00  0.00     0.000 HD 
HETATM    3  C   UNL     1      -9.942   5.085  70.135  1.00  0.00    -0.258 C  
HETATM    4  H1  UNL     1     -10.328   3.160  69.444  1.00  0.00     0.000 HD 
ENDROOT
BRANCH   3   5
HETATM    5  C   UNL     1      -8.931   5.827  71.028  1.00  0.00    -0.142 C  
BRANCH   5   6
HETATM    6  N   UNL     1      -9.233   7.261  71.107  1.00  0.00    -0.156 NA 
HETATM    7  H   UNL     1      -8.602   7.809  70.523  1.00  0.00     0.000 HD 
BRANCH   6   8
HETATM    8  C   UNL     1     -10.640   7.528  70.780  1.00  0.00    -0.220 C  
BRANCH   8   9
HETATM    9  C   UNL     1     -10.915   9.045  70.761  1.00  0.00    -0.258 C  
BRANCH   9  10
HETATM   10  N   UNL     1     -10.037   9.745  69.807  1.00  0.00    -0.223 NA 
HETATM   11  H   UNL     1      -9.719   9.129  69.058  1.00  0.00     0.000 HD 
BRANCH  10  12
HETATM   12  C   UNL     1     -10.709  10.946  69.284  1.00  0.00    -0.231 C  
BRANCH  12  13
HETATM   13  C   UNL     1     -12.041  11.208  70.013  1.00  0.00    -0.359 C  
HETATM   14  N   UNL     1     -12.075  12.524  70.661  1.00  0.00    -0.498 NA 
HETATM   15  H1  UNL     1     -12.957  12.697  71.143  1.00  0.00     0.000 HD 
HETATM   16  H2  UNL     1     -11.869  13.267  69.994  1.00  0.00     0.000 HD 
ENDBRANCH  12  13
ENDBRANCH  10  12
ENDBRANCH   9  10
ENDBRANCH   8   9
ENDBRANCH   6   8
ENDBRANCH   5   6
ENDBRANCH   3   5
TORSDOF 7
ENDMDL
MODEL      252
REMARK 921   NORMALIZED FREE ENERGY PREDICTED BY IDOCK:   -1.57 KCAL/MOL
REMARK 922        TOTAL FREE ENERGY PREDICTED BY IDOCK:   -2.72 KCAL/MOL
REMARK 923 INTER-LIGAND FREE ENERGY PREDICTED BY IDOCK:   -2.51 KCAL/MOL
REMARK 924 INTRA-LIGAND FREE ENERGY PREDICTED BY IDOCK:   -0.21 KCAL/MOL
REMARK 927      BINDING AFFINITY PREDICTED BY RF-SCORE:    0.00 PKD
ROOT
HETATM    1  N   UNL     1      -7.001  11.220  68.300  1.00  0.00    -0.068 NA 
HETATM    2  H2  UNL     1      -6.236  11.193  67.626  1.00  0.00     0.000 HD 
HETATM    3  C   UNL     1      -8.254  11.629  67.660  1.00  0.00    -0.141 C  
HETATM    4  H1  UNL     1      -6.763  11.804  69.102  1.00  0.00     0.000 HD 
ENDROOT
BRANCH   3   5
HETATM    5  C   UNL     1      -8.613  10.747  66.450  1.00  0.00    -0.158 C  
BRANCH   5   6
HETATM    6  N   UNL     1     -10.057  10.494  66.378  1.00  0.00    -0.221 NA 
HETATM    7  H   UNL     1     -10.306   9.983  65.531  1.00  0.00     0.000 HD 
BRANCH   6   8
HETATM    8  C   UNL     1     -10.539   9.807  67.584  1.00  0.00    -0.276 C  
BRANCH   8   9
HETATM    9  C   UNL     1      -9.998   8.365  67.641  1.00  0.00    -0.190 C  
BRANCH   9  10
HETATM   10  N   UNL     1     -10.303   7.620  66.407  1.00  0.00    -0.467 NA 
HETATM   11  H   UNL     1     -10.478   8.244  65.618  1.00  0.00     0.000 HD 
BRANCH  10  12
HETATM   12  C   UNL     1      -9.230   6.654  66.117  1.00  0.00    -0.087 C  
BRANCH  12  13
HETATM   13  C   UNL     1      -9.631   5.226  66.531  1.00  0.00    -0.156 C  
HETATM   14  N   UNL     1     -10.850   4.769  65.856  1.00  0.00    -0.746 NA 
HETATM   15  H1  UNL     1     -11.116   3.823  66.130  1.00  0.00     0.000 HD 
HETATM   16  H2  UNL     1     -10.760   4.846  64.843  1.00  0.00     0.000 HD 
ENDBRANCH  12  13
ENDBRANCH  10  12
ENDBRANCH   9  10
ENDBRANCH   8   9
ENDBRANCH   6   8
ENDBRANCH   5   6
ENDBRANCH   3   5
TORSDOF 7
ENDMDL
MODEL      253
REMARK 921   NORMALIZED FREE ENERGY PREDICTED BY IDOCK:   -1.57 KCAL/MOL
REMARK 922        TOTAL FREE ENERGY PREDICTED BY IDOCK:   -2.71 KCAL/MOL
REMARK 923 INTER-LIGAND FREE ENERGY PREDICTED BY IDOCK:   -2.56 KCAL/MOL
REMARK 924 INTRA-LIGAND FREE ENERGY PREDICTED BY IDOCK:   -0.15 KCAL/MOL
REMARK 927      BINDING AFFINITY PREDICTED BY RF-SCORE:    0.00 PKD
ROOT
HETATM    1  N   UNL     1      -8.545   9.820  66.301  1.00  0.00    -0.126 NA 
HETATM    2  H2  UNL     1      -8.520  10.125  67.275  1.00  0.00     0.000 HD 
HETATM    3  C   UNL     1      -9.833  10.142  65.680  1.00  0.00    -0.280 C  
HETATM    4  H1  UNL     1      -8.308   8.831  66.222  1.00  0.00     0.000 HD 
ENDROOT
BRANCH   3   5
HETATM    5  C   UNL     1     -10.190  11.635  65.802  1.00  0.00    -0.240 C  
BRANCH   5   6
HETATM    6  N   UNL     1     -11.058  11.888  66.957  1.00  0.00    -0.284 NA 
HETATM    7  H   UNL     1     -11.609  11.066  67.198  1.00  0.00     0.000 HD 
BRANCH   6   8
HETATM    8  C   UNL     1     -10.285  12.377  68.108  1.00  0.00    -0.225 C  
BRANCH   8   9
HETATM    9  C   UNL     1      -9.738  13.792  67.834  1.00  0.00    -0.229 C  
BRANCH   9  10
HETATM   10  N   UNL     1      -9.001  14.324  68.994  1.00  0.00    -0.382 NA 
HETATM   11  H   UNL     1      -8.017  14.489  68.777  1.00  0.00     0.000 HD 
BRANCH  10  12
HETATM   12  C   UNL     1      -9.663  15.536  69.504  1.00  0.00    -0.282 C  
BRANCH  12  13
HETATM   13  C   UNL     1      -9.364  16.758  68.615  1.00  0.00    -0.252 C  
HETATM   14  N   UNL     1      -7.949  17.147  68.657  1.00  0.00    -0.258 NA 
HETATM   15  H1  UNL     1      -7.751  17.956  68.068  1.00  0.00     0.000 HD 
HETATM   16  H2  UNL     1      -7.345  16.362  68.418  1.00  0.00     0.000 HD 
ENDBRANCH  12  13
ENDBRANCH  10  12
ENDBRANCH   9  10
ENDBRANCH   8   9
ENDBRANCH   6   8
ENDBRANCH   5   6
ENDBRANCH   3   5
TORSDOF 7
ENDMDL
MODEL      254
REMARK 921   NORMALIZED FREE ENERGY PREDICTED BY IDOCK:   -1.57 KCAL/MOL
REMARK 922        TOTAL FREE ENERGY PREDICTED BY IDOCK:   -2.71 KCAL/MOL
REMARK 923 INTER-LIGAND FREE ENERGY PREDICTED BY IDOCK:   -2.46 KCAL/MOL
REMARK 924 INTRA-LIGAND FREE ENERGY PREDICTED BY IDOCK:   -0.25 KCAL/MOL
REMARK 927      BINDING AFFINITY PREDICTED BY RF-SCORE:    0.00 PKD
ROOT
HETATM    1  N   UNL     1      -8.773  12.099  66.316  1.00  0.00    -0.397 NA 
HETATM    2  H2  UNL     1      -8.642  11.224  65.807  1.00  0.00     0.000 HD 
HETATM    3  C   UNL     1     -10.101  12.156  66.932  1.00  0.00    -0.206 C  
HETATM    4  H1  UNL     1      -8.585  12.903  65.716  1.00  0.00     0.000 HD 
ENDROOT
BRANCH   3   5
HETATM    5  C   UNL     1     -10.385  10.943  67.836  1.00  0.00    -0.187 C  
BRANCH   5   6
HETATM    6  N   UNL     1      -9.797  11.116  69.169  1.00  0.00    -0.400 NA 
HETATM    7  H   UNL     1     -10.504  11.058  69.901  1.00  0.00     0.000 HD 
BRANCH   6   8
HETATM    8  C   UNL     1      -8.704  10.161  69.398  1.00  0.00    -0.176 C  
BRANCH   8   9
HETATM    9  C   UNL     1      -9.070   8.771  68.842  1.00  0.00    -0.141 C  
BRANCH   9  10
HETATM   10  N   UNL     1      -9.579   7.879  69.899  1.00  0.00    -0.168 NA 
HETATM   11  H   UNL     1      -9.508   8.305  70.824  1.00  0.00     0.000 HD 
BRANCH  10  12
HETATM   12  C   UNL     1     -10.956   7.460  69.590  1.00  0.00    -0.172 C  
BRANCH  12  13
HETATM   13  C   UNL     1     -10.997   6.022  69.039  1.00  0.00    -0.339 C  
HETATM   14  N   UNL     1     -10.338   5.061  69.931  1.00  0.00    -0.273 NA 
HETATM   15  H1  UNL     1     -10.365   4.110  69.566  1.00  0.00     0.000 HD 
HETATM   16  H2  UNL     1     -10.729   5.106  70.872  1.00  0.00     0.000 HD 
ENDBRANCH  12  13
ENDBRANCH  10  12
ENDBRANCH   9  10
ENDBRANCH   8   9
ENDBRANCH   6   8
ENDBRANCH   5   6
ENDBRANCH   3   5
TORSDOF 7
ENDMDL
MODEL      255
REMARK 921   NORMALIZED FREE ENERGY PREDICTED BY IDOCK:   -1.55 KCAL/MOL
REMARK 922        TOTAL FREE ENERGY PREDICTED BY IDOCK:   -2.69 KCAL/MOL
REMARK 923 INTER-LIGAND FREE ENERGY PREDICTED BY IDOCK:   -2.71 KCAL/MOL
REMARK 924 INTRA-LIGAND FREE ENERGY PREDICTED BY IDOCK:    0.02 KCAL/MOL
REMARK 927      BINDING AFFINITY PREDICTED BY RF-SCORE:    0.00 PKD
ROOT
HETATM    1  N   UNL     1     -12.259  13.877  67.795  1.00  0.00    -0.489 NA 
HETATM    2  H2  UNL     1     -12.167  14.671  68.430  1.00  0.00     0.000 HD 
HETATM    3  C   UNL     1     -12.133  14.302  66.398  1.00  0.00    -0.419 C  
HETATM    4  H1  UNL     1     -13.123  13.365  67.971  1.00  0.00     0.000 HD 
ENDROOT
BRANCH   3   5
HETATM    5  C   UNL     1     -10.829  15.076  66.132  1.00  0.00    -0.329 C  
BRANCH   5   6
HETATM    6  N   UNL     1      -9.670  14.396  66.722  1.00  0.00    -0.260 NA 
HETATM    7  H   UNL     1      -8.879  14.379  66.079  1.00  0.00     0.000 HD 
BRANCH   6   8
HETATM    8  C   UNL     1      -9.303  14.991  68.014  1.00  0.00    -0.185 C  
BRANCH   8   9
HETATM    9  C   UNL     1      -9.221  16.526  67.903  1.00  0.00    -0.211 C  
BRANCH   9  10
HETATM   10  N   UNL     1      -7.953  16.960  67.290  1.00  0.00    -0.168 NA 
HETATM   11  H   UNL     1      -8.073  17.224  66.311  1.00  0.00     0.000 HD 
BRANCH  10  12
HETATM   12  C   UNL     1      -7.351  18.045  68.082  1.00  0.00    -0.250 C  
BRANCH  12  13
HETATM   13  C   UNL     1      -5.972  17.639  68.636  1.00  0.00    -0.179 C  
HETATM   14  N   UNL     1      -6.068  16.952  69.929  1.00  0.00    -0.224 NA 
HETATM   15  H1  UNL     1      -5.155  16.684  70.295  1.00  0.00     0.000 HD 
HETATM   16  H2  UNL     1      -6.692  16.147  69.871  1.00  0.00     0.000 HD 
ENDBRANCH  12  13
ENDBRANCH  10  12
ENDBRANCH   9  10
ENDBRANCH   8   9
ENDBRANCH   6   8
ENDBRANCH   5   6
ENDBRANCH   3   5
TORSDOF 7
ENDMDL
MODEL      256
REMARK 921   NORMALIZED FREE ENERGY PREDICTED BY IDOCK:   -1.54 KCAL/MOL
REMARK 922        TOTAL FREE ENERGY PREDICTED BY IDOCK:   -2.68 KCAL/MOL
REMARK 923 INTER-LIGAND FREE ENERGY PREDICTED BY IDOCK:   -2.65 KCAL/MOL
REMARK 924 INTRA-LIGAND FREE ENERGY PREDICTED BY IDOCK:   -0.03 KCAL/MOL
REMARK 927      BINDING AFFINITY PREDICTED BY RF-SCORE:    0.00 PKD
ROOT
HETATM    1  N   UNL     1      -5.703   5.524  68.096  1.00  0.00    -0.012 NA 
HETATM    2  H2  UNL     1      -5.894   5.723  67.114  1.00  0.00     0.000 HD 
HETATM    3  C   UNL     1      -6.367   6.495  68.969  1.00  0.00    -0.035 C  
HETATM    4  H1  UNL     1      -4.700   5.464  68.269  1.00  0.00     0.000 HD 
ENDROOT
BRANCH   3   5
HETATM    5  C   UNL     1      -7.882   6.586  68.708  1.00  0.00    -0.110 C  
BRANCH   5   6
HETATM    6  N   UNL     1      -8.651   6.454  69.950  1.00  0.00    -0.137 NA 
HETATM    7  H   UNL     1      -8.354   7.134  70.648  1.00  0.00     0.000 HD 
BRANCH   6   8
HETATM    8  C   UNL     1     -10.096   6.539  69.694  1.00  0.00    -0.181 C  
BRANCH   8   9
HETATM    9  C   UNL     1     -10.377   7.390  68.440  1.00  0.00    -0.194 C  
BRANCH   9  10
HETATM   10  N   UNL     1     -11.176   6.650  67.447  1.00  0.00    -0.702 NA 
HETATM   11  H   UNL     1     -11.930   7.221  67.063  1.00  0.00     0.000 HD 
BRANCH  10  12
HETATM   12  C   UNL     1     -10.303   6.109  66.392  1.00  0.00    -0.037 C  
BRANCH  12  13
HETATM   13  C   UNL     1     -10.569   4.611  66.154  1.00  0.00    -0.156 C  
HETATM   14  N   UNL     1     -11.306   4.363  64.910  1.00  0.00    -1.085 NA 
HETATM   15  H1  UNL     1     -11.481   3.371  64.753  1.00  0.00     0.000 HD 
HETATM   16  H2  UNL     1     -10.830   4.784  64.112  1.00  0.00     0.000 HD 
ENDBRANCH  12  13
ENDBRANCH  10  12
ENDBRANCH   9  10
ENDBRANCH   8   9
ENDBRANCH   6   8
ENDBRANCH   5   6
ENDBRANCH   3   5
TORSDOF 7
ENDMDL
MODEL      257
REMARK 921   NORMALIZED FREE ENERGY PREDICTED BY IDOCK:   -1.54 KCAL/MOL
REMARK 922        TOTAL FREE ENERGY PREDICTED BY IDOCK:   -2.68 KCAL/MOL
REMARK 923 INTER-LIGAND FREE ENERGY PREDICTED BY IDOCK:   -2.54 KCAL/MOL
REMARK 924 INTRA-LIGAND FREE ENERGY PREDICTED BY IDOCK:   -0.13 KCAL/MOL
REMARK 927      BINDING AFFINITY PREDICTED BY RF-SCORE:    0.00 PKD
ROOT
HETATM    1  N   UNL     1     -10.504   6.292  68.649  1.00  0.00    -0.205 NA 
HETATM    2  H2  UNL     1      -9.656   5.870  69.029  1.00  0.00     0.000 HD 
HETATM    3  C   UNL     1     -10.715   7.636  69.195  1.00  0.00    -0.141 C  
HETATM    4  H1  UNL     1     -11.310   5.682  68.789  1.00  0.00     0.000 HD 
ENDROOT
BRANCH   3   5
HETATM    5  C   UNL     1      -9.498   8.555  68.985  1.00  0.00    -0.150 C  
BRANCH   5   6
HETATM    6  N   UNL     1      -9.607   9.782  69.782  1.00  0.00    -0.218 NA 
HETATM    7  H   UNL     1      -8.803   9.901  70.397  1.00  0.00     0.000 HD 
BRANCH   6   8
HETATM    8  C   UNL     1      -9.809  10.958  68.925  1.00  0.00    -0.192 C  
BRANCH   8   9
HETATM    9  C   UNL     1      -9.466  10.629  67.459  1.00  0.00    -0.153 C  
BRANCH   9  10
HETATM   10  N   UNL     1     -10.212  11.484  66.519  1.00  0.00    -0.212 NA 
HETATM   11  H   UNL     1     -11.219  11.320  66.571  1.00  0.00     0.000 HD 
BRANCH  10  12
HETATM   12  C   UNL     1      -9.874  12.900  66.742  1.00  0.00    -0.241 C  
BRANCH  12  13
HETATM   13  C   UNL     1     -10.672  13.824  65.804  1.00  0.00    -0.281 C  
HETATM   14  N   UNL     1     -10.140  13.829  64.437  1.00  0.00    -0.752 NA 
HETATM   15  H1  UNL     1     -10.669  14.441  63.816  1.00  0.00     0.000 HD 
HETATM   16  H2  UNL     1     -10.086  12.882  64.061  1.00  0.00     0.000 HD 
ENDBRANCH  12  13
ENDBRANCH  10  12
ENDBRANCH   9  10
ENDBRANCH   8   9
ENDBRANCH   6   8
ENDBRANCH   5   6
ENDBRANCH   3   5
TORSDOF 7
ENDMDL
MODEL      258
REMARK 921   NORMALIZED FREE ENERGY PREDICTED BY IDOCK:   -1.54 KCAL/MOL
REMARK 922        TOTAL FREE ENERGY PREDICTED BY IDOCK:   -2.67 KCAL/MOL
REMARK 923 INTER-LIGAND FREE ENERGY PREDICTED BY IDOCK:   -2.51 KCAL/MOL
REMARK 924 INTRA-LIGAND FREE ENERGY PREDICTED BY IDOCK:   -0.16 KCAL/MOL
REMARK 927      BINDING AFFINITY PREDICTED BY RF-SCORE:    0.00 PKD
ROOT
HETATM    1  N   UNL     1      -7.703  10.723  65.520  1.00  0.00    -0.324 NA 
HETATM    2  H2  UNL     1      -6.958  10.373  64.918  1.00  0.00     0.000 HD 
HETATM    3  C   UNL     1      -8.799   9.755  65.620  1.00  0.00    -0.154 C  
HETATM    4  H1  UNL     1      -8.020  11.643  65.214  1.00  0.00     0.000 HD 
ENDROOT
BRANCH   3   5
HETATM    5  C   UNL     1      -8.320   8.367  66.082  1.00  0.00    -0.125 C  
BRANCH   5   6
HETATM    6  N   UNL     1      -9.422   7.400  66.112  1.00  0.00    -0.389 NA 
HETATM    7  H   UNL     1      -9.101   6.474  66.394  1.00  0.00     0.000 HD 
BRANCH   6   8
HETATM    8  C   UNL     1     -10.523   7.871  66.963  1.00  0.00    -0.349 C  
BRANCH   8   9
HETATM    9  C   UNL     1     -10.656   6.988  68.219  1.00  0.00    -0.196 C  
BRANCH   9  10
HETATM   10  N   UNL     1      -9.748   7.428  69.293  1.00  0.00    -0.164 NA 
HETATM   11  H   UNL     1      -9.215   8.256  69.026  1.00  0.00     0.000 HD 
BRANCH  10  12
HETATM   12  C   UNL     1     -10.501   7.637  70.541  1.00  0.00    -0.220 C  
BRANCH  12  13
HETATM   13  C   UNL     1      -9.875   8.755  71.396  1.00  0.00    -0.283 C  
HETATM   14  N   UNL     1      -9.382   9.872  70.582  1.00  0.00    -0.305 NA 
HETATM   15  H1  UNL     1      -8.967  10.612  71.148  1.00  0.00     0.000 HD 
HETATM   16  H2  UNL     1     -10.117  10.239  69.978  1.00  0.00     0.000 HD 
ENDBRANCH  12  13
ENDBRANCH  10  12
ENDBRANCH   9  10
ENDBRANCH   8   9
ENDBRANCH   6   8
ENDBRANCH   5   6
ENDBRANCH   3   5
TORSDOF 7
ENDMDL
MODEL      259
REMARK 921   NORMALIZED FREE ENERGY PREDICTED BY IDOCK:   -1.51 KCAL/MOL
REMARK 922        TOTAL FREE ENERGY PREDICTED BY IDOCK:   -2.63 KCAL/MOL
REMARK 923 INTER-LIGAND FREE ENERGY PREDICTED BY IDOCK:   -2.51 KCAL/MOL
REMARK 924 INTRA-LIGAND FREE ENERGY PREDICTED BY IDOCK:   -0.12 KCAL/MOL
REMARK 927      BINDING AFFINITY PREDICTED BY RF-SCORE:    0.00 PKD
ROOT
HETATM    1  N   UNL     1      -9.694   4.604  71.225  1.00  0.00    -0.171 NA 
HETATM    2  H2  UNL     1     -10.458   4.745  70.563  1.00  0.00     0.000 HD 
HETATM    3  C   UNL     1      -9.297   5.868  71.849  1.00  0.00    -0.151 C  
HETATM    4  H1  UNL     1      -8.911   4.123  70.783  1.00  0.00     0.000 HD 
ENDROOT
BRANCH   3   5
HETATM    5  C   UNL     1     -10.480   6.595  72.516  1.00  0.00    -0.205 C  
BRANCH   5   6
HETATM    6  N   UNL     1     -11.034   7.635  71.642  1.00  0.00    -0.231 NA 
HETATM    7  H   UNL     1     -11.955   7.937  71.957  1.00  0.00     0.000 HD 
BRANCH   6   8
HETATM    8  C   UNL     1     -10.109   8.770  71.511  1.00  0.00    -0.301 C  
BRANCH   8   9
HETATM    9  C   UNL     1      -9.804   9.054  70.027  1.00  0.00    -0.184 C  
BRANCH   9  10
HETATM   10  N   UNL     1     -10.505  10.259  69.549  1.00  0.00    -0.229 NA 
HETATM   11  H   UNL     1     -10.649  10.939  70.297  1.00  0.00     0.000 HD 
BRANCH  10  12
HETATM   12  C   UNL     1      -9.785  10.846  68.406  1.00  0.00    -0.176 C  
BRANCH  12  13
HETATM   13  C   UNL     1     -10.745  11.184  67.250  1.00  0.00    -0.258 C  
HETATM   14  N   UNL     1     -12.024  11.724  67.724  1.00  0.00    -0.600 NA 
HETATM   15  H1  UNL     1     -12.660  11.948  66.959  1.00  0.00     0.000 HD 
HETATM   16  H2  UNL     1     -11.880  12.531  68.331  1.00  0.00     0.000 HD 
ENDBRANCH  12  13
ENDBRANCH  10  12
ENDBRANCH   9  10
ENDBRANCH   8   9
ENDBRANCH   6   8
ENDBRANCH   5   6
ENDBRANCH   3   5
TORSDOF 7
ENDMDL
MODEL      260
REMARK 921   NORMALIZED FREE ENERGY PREDICTED BY IDOCK:   -1.48 KCAL/MOL
REMARK 922        TOTAL FREE ENERGY PREDICTED BY IDOCK:   -2.59 KCAL/MOL
REMARK 923 INTER-LIGAND FREE ENERGY PREDICTED BY IDOCK:   -2.41 KCAL/MOL
REMARK 924 INTRA-LIGAND FREE ENERGY PREDICTED BY IDOCK:   -0.18 KCAL/MOL
REMARK 927      BINDING AFFINITY PREDICTED BY RF-SCORE:    0.00 PKD
ROOT
HETATM    1  N   UNL     1      -6.276  10.834  65.096  1.00  0.00    -0.360 NA 
HETATM    2  H2  UNL     1      -6.292  11.854  65.058  1.00  0.00     0.000 HD 
HETATM    3  C   UNL     1      -6.832  10.346  66.362  1.00  0.00    -0.112 C  
HETATM    4  H1  UNL     1      -5.339  10.475  64.916  1.00  0.00     0.000 HD 
ENDROOT
BRANCH   3   5
HETATM    5  C   UNL     1      -8.246  10.889  66.634  1.00  0.00    -0.145 C  
BRANCH   5   6
HETATM    6  N   UNL     1      -9.193   9.805  66.919  1.00  0.00    -0.145 NA 
HETATM    7  H   UNL     1      -9.642   9.466  66.068  1.00  0.00     0.000 HD 
BRANCH   6   8
HETATM    8  C   UNL     1      -8.545   8.712  67.658  1.00  0.00    -0.136 C  
BRANCH   8   9
HETATM    9  C   UNL     1      -9.470   8.187  68.774  1.00  0.00    -0.148 C  
BRANCH   9  10
HETATM   10  N   UNL     1     -10.549   9.143  69.081  1.00  0.00    -0.253 NA 
HETATM   11  H   UNL     1     -11.271   9.148  68.359  1.00  0.00     0.000 HD 
BRANCH  10  12
HETATM   12  C   UNL     1     -11.108   8.867  70.415  1.00  0.00    -0.239 C  
BRANCH  12  13
HETATM   13  C   UNL     1     -11.397   7.366  70.605  1.00  0.00    -0.281 C  
HETATM   14  N   UNL     1     -12.823   7.095  70.825  1.00  0.00    -0.591 NA 
HETATM   15  H1  UNL     1     -13.014   6.101  70.951  1.00  0.00     0.000 HD 
HETATM   16  H2  UNL     1     -13.391   7.487  70.074  1.00  0.00     0.000 HD 
ENDBRANCH  12  13
ENDBRANCH  10  12
ENDBRANCH   9  10
ENDBRANCH   8   9
ENDBRANCH   6   8
ENDBRANCH   5   6
ENDBRANCH   3   5
TORSDOF 7
ENDMDL
MODEL      261
REMARK 921   NORMALIZED FREE ENERGY PREDICTED BY IDOCK:   -1.48 KCAL/MOL
REMARK 922        TOTAL FREE ENERGY PREDICTED BY IDOCK:   -2.58 KCAL/MOL
REMARK 923 INTER-LIGAND FREE ENERGY PREDICTED BY IDOCK:   -2.41 KCAL/MOL
REMARK 924 INTRA-LIGAND FREE ENERGY PREDICTED BY IDOCK:   -0.17 KCAL/MOL
REMARK 927      BINDING AFFINITY PREDICTED BY RF-SCORE:    0.00 PKD
ROOT
HETATM    1  N   UNL     1      -8.701   6.179  70.953  1.00  0.00    -0.135 NA 
HETATM    2  H2  UNL     1      -9.334   6.208  71.752  1.00  0.00     0.000 HD 
HETATM    3  C   UNL     1      -9.434   6.332  69.693  1.00  0.00    -0.146 C  
HETATM    4  H1  UNL     1      -8.127   5.336  70.971  1.00  0.00     0.000 HD 
ENDROOT
BRANCH   3   5
HETATM    5  C   UNL     1     -10.301   7.604  69.666  1.00  0.00    -0.213 C  
BRANCH   5   6
HETATM    6  N   UNL     1      -9.911   8.544  70.724  1.00  0.00    -0.175 NA 
HETATM    7  H   UNL     1      -8.905   8.713  70.722  1.00  0.00     0.000 HD 
BRANCH   6   8
HETATM    8  C   UNL     1     -10.669   9.799  70.629  1.00  0.00    -0.326 C  
BRANCH   8   9
HETATM    9  C   UNL     1     -10.429  10.477  69.265  1.00  0.00    -0.235 C  
BRANCH   9  10
HETATM   10  N   UNL     1      -9.094  11.096  69.193  1.00  0.00    -0.395 NA 
HETATM   11  H   UNL     1      -8.397  10.562  69.714  1.00  0.00     0.000 HD 
BRANCH  10  12
HETATM   12  C   UNL     1      -8.699  11.290  67.787  1.00  0.00    -0.134 C  
BRANCH  12  13
HETATM   13  C   UNL     1      -9.855  11.873  66.953  1.00  0.00    -0.202 C  
HETATM   14  N   UNL     1      -9.409  12.937  66.046  1.00  0.00    -0.453 NA 
HETATM   15  H1  UNL     1     -10.174  13.323  65.494  1.00  0.00     0.000 HD 
HETATM   16  H2  UNL     1      -8.649  12.614  65.447  1.00  0.00     0.000 HD 
ENDBRANCH  12  13
ENDBRANCH  10  12
ENDBRANCH   9  10
ENDBRANCH   8   9
ENDBRANCH   6   8
ENDBRANCH   5   6
ENDBRANCH   3   5
TORSDOF 7
ENDMDL
MODEL      262
REMARK 921   NORMALIZED FREE ENERGY PREDICTED BY IDOCK:   -1.47 KCAL/MOL
REMARK 922        TOTAL FREE ENERGY PREDICTED BY IDOCK:   -2.58 KCAL/MOL
REMARK 923 INTER-LIGAND FREE ENERGY PREDICTED BY IDOCK:   -2.43 KCAL/MOL
REMARK 924 INTRA-LIGAND FREE ENERGY PREDICTED BY IDOCK:   -0.15 KCAL/MOL
REMARK 927      BINDING AFFINITY PREDICTED BY RF-SCORE:    0.00 PKD
ROOT
HETATM    1  N   UNL     1      -8.377   8.566  73.232  1.00  0.00    -0.395 NA 
HETATM    2  H2  UNL     1      -8.707   9.530  73.274  1.00  0.00     0.000 HD 
HETATM    3  C   UNL     1      -9.344   7.650  73.843  1.00  0.00    -0.213 C  
HETATM    4  H1  UNL     1      -7.446   8.481  73.641  1.00  0.00     0.000 HD 
ENDROOT
BRANCH   3   5
HETATM    5  C   UNL     1     -10.749   7.780  73.227  1.00  0.00    -0.272 C  
BRANCH   5   6
HETATM    6  N   UNL     1     -11.247   6.487  72.745  1.00  0.00    -0.364 NA 
HETATM    7  H   UNL     1     -12.042   6.163  73.296  1.00  0.00     0.000 HD 
BRANCH   6   8
HETATM    8  C   UNL     1     -11.569   6.539  71.313  1.00  0.00    -0.327 C  
BRANCH   8   9
HETATM    9  C   UNL     1     -10.281   6.605  70.468  1.00  0.00    -0.189 C  
BRANCH   9  10
HETATM   10  N   UNL     1     -10.222   5.514  69.479  1.00  0.00    -0.236 NA 
HETATM   11  H   UNL     1     -10.287   5.863  68.522  1.00  0.00     0.000 HD 
BRANCH  10  12
HETATM   12  C   UNL     1      -9.009   4.705  69.688  1.00  0.00    -0.094 C  
BRANCH  12  13
HETATM   13  C   UNL     1      -9.352   3.213  69.865  1.00  0.00    -0.158 C  
HETATM   14  N   UNL     1      -9.295   2.473  68.599  1.00  0.00    -0.183 NA 
HETATM   15  H1  UNL     1      -9.522   1.485  68.716  1.00  0.00     0.000 HD 
HETATM   16  H2  UNL     1      -8.390   2.591  68.144  1.00  0.00     0.000 HD 
ENDBRANCH  12  13
ENDBRANCH  10  12
ENDBRANCH   9  10
ENDBRANCH   8   9
ENDBRANCH   6   8
ENDBRANCH   5   6
ENDBRANCH   3   5
TORSDOF 7
ENDMDL
MODEL      263
REMARK 921   NORMALIZED FREE ENERGY PREDICTED BY IDOCK:   -1.47 KCAL/MOL
REMARK 922        TOTAL FREE ENERGY PREDICTED BY IDOCK:   -2.58 KCAL/MOL
REMARK 923 INTER-LIGAND FREE ENERGY PREDICTED BY IDOCK:   -2.44 KCAL/MOL
REMARK 924 INTRA-LIGAND FREE ENERGY PREDICTED BY IDOCK:   -0.14 KCAL/MOL
REMARK 927      BINDING AFFINITY PREDICTED BY RF-SCORE:    0.00 PKD
ROOT
HETATM    1  N   UNL     1      -9.467   3.752  71.751  1.00  0.00    -0.135 NA 
HETATM    2  H2  UNL     1     -10.183   3.776  71.025  1.00  0.00     0.000 HD 
HETATM    3  C   UNL     1      -9.299   5.069  72.370  1.00  0.00    -0.137 C  
HETATM    4  H1  UNL     1      -8.591   3.375  71.389  1.00  0.00     0.000 HD 
ENDROOT
BRANCH   3   5
HETATM    5  C   UNL     1     -10.621   5.639  72.915  1.00  0.00    -0.232 C  
BRANCH   5   6
HETATM    6  N   UNL     1     -11.255   6.545  71.951  1.00  0.00    -0.259 NA 
HETATM    7  H   UNL     1     -12.245   6.677  72.156  1.00  0.00     0.000 HD 
BRANCH   6   8
HETATM    8  C   UNL     1     -10.544   7.828  71.877  1.00  0.00    -0.223 C  
BRANCH   8   9
HETATM    9  C   UNL     1     -10.250   8.204  70.411  1.00  0.00    -0.201 C  
BRANCH   9  10
HETATM   10  N   UNL     1      -9.793   7.040  69.632  1.00  0.00    -0.164 NA 
HETATM   11  H   UNL     1     -10.213   6.171  69.963  1.00  0.00     0.000 HD 
BRANCH  10  12
HETATM   12  C   UNL     1     -10.042   7.260  68.197  1.00  0.00    -0.173 C  
BRANCH  12  13
HETATM   13  C   UNL     1     -10.191   5.926  67.441  1.00  0.00    -0.194 C  
HETATM   14  N   UNL     1     -11.248   5.974  66.425  1.00  0.00    -0.722 NA 
HETATM   15  H1  UNL     1     -11.346   5.091  65.924  1.00  0.00     0.000 HD 
HETATM   16  H2  UNL     1     -11.101   6.749  65.778  1.00  0.00     0.000 HD 
ENDBRANCH  12  13
ENDBRANCH  10  12
ENDBRANCH   9  10
ENDBRANCH   8   9
ENDBRANCH   6   8
ENDBRANCH   5   6
ENDBRANCH   3   5
TORSDOF 7
ENDMDL
MODEL      264
REMARK 921   NORMALIZED FREE ENERGY PREDICTED BY IDOCK:   -1.46 KCAL/MOL
REMARK 922        TOTAL FREE ENERGY PREDICTED BY IDOCK:   -2.57 KCAL/MOL
REMARK 923 INTER-LIGAND FREE ENERGY PREDICTED BY IDOCK:   -2.01 KCAL/MOL
REMARK 924 INTRA-LIGAND FREE ENERGY PREDICTED BY IDOCK:   -0.56 KCAL/MOL
REMARK 927      BINDING AFFINITY PREDICTED BY RF-SCORE:    0.00 PKD
ROOT
HETATM    1  N   UNL     1      -9.789   4.489  66.988  1.00  0.00    -0.205 NA 
HETATM    2  H2  UNL     1     -10.063   4.353  67.961  1.00  0.00     0.000 HD 
HETATM    3  C   UNL     1     -10.719   5.391  66.301  1.00  0.00    -0.169 C  
HETATM    4  H1  UNL     1      -9.686   3.595  66.508  1.00  0.00     0.000 HD 
ENDROOT
BRANCH   3   5
HETATM    5  C   UNL     1     -10.876   6.740  67.025  1.00  0.00    -0.383 C  
BRANCH   5   6
HETATM    6  N   UNL     1     -11.548   6.580  68.320  1.00  0.00    -0.498 NA 
HETATM    7  H   UNL     1     -11.763   5.602  68.512  1.00  0.00     0.000 HD 
BRANCH   6   8
HETATM    8  C   UNL     1     -10.763   7.183  69.406  1.00  0.00    -0.231 C  
BRANCH   8   9
HETATM    9  C   UNL     1      -9.405   7.687  68.880  1.00  0.00    -0.145 C  
BRANCH   9  10
HETATM   10  N   UNL     1      -8.296   7.289  69.766  1.00  0.00    -0.133 NA 
HETATM   11  H   UNL     1      -8.084   8.009  70.458  1.00  0.00     0.000 HD 
BRANCH  10  12
HETATM   12  C   UNL     1      -8.590   5.991  70.396  1.00  0.00    -0.133 C  
BRANCH  12  13
HETATM   13  C   UNL     1      -7.480   4.962  70.110  1.00  0.00    -0.059 C  
HETATM   14  N   UNL     1      -7.988   3.764  69.432  1.00  0.00    -0.055 NA 
HETATM   15  H1  UNL     1      -7.253   3.083  69.243  1.00  0.00     0.000 HD 
HETATM   16  H2  UNL     1      -8.490   4.010  68.579  1.00  0.00     0.000 HD 
ENDBRANCH  12  13
ENDBRANCH  10  12
ENDBRANCH   9  10
ENDBRANCH   8   9
ENDBRANCH   6   8
ENDBRANCH   5   6
ENDBRANCH   3   5
TORSDOF 7
ENDMDL
MODEL      265
REMARK 921   NORMALIZED FREE ENERGY PREDICTED BY IDOCK:   -1.46 KCAL/MOL
REMARK 922        TOTAL FREE ENERGY PREDICTED BY IDOCK:   -2.56 KCAL/MOL
REMARK 923 INTER-LIGAND FREE ENERGY PREDICTED BY IDOCK:   -2.38 KCAL/MOL
REMARK 924 INTRA-LIGAND FREE ENERGY PREDICTED BY IDOCK:   -0.18 KCAL/MOL
REMARK 927      BINDING AFFINITY PREDICTED BY RF-SCORE:    0.00 PKD
ROOT
HETATM    1  N   UNL     1      -9.435   4.131  70.165  1.00  0.00    -0.166 NA 
HETATM    2  H2  UNL     1      -9.961   3.479  70.747  1.00  0.00     0.000 HD 
HETATM    3  C   UNL     1      -9.908   5.505  70.353  1.00  0.00    -0.197 C  
HETATM    4  H1  UNL     1      -9.449   3.843  69.186  1.00  0.00     0.000 HD 
ENDROOT
BRANCH   3   5
HETATM    5  C   UNL     1      -9.887   5.940  71.830  1.00  0.00    -0.163 C  
BRANCH   5   6
HETATM    6  N   UNL     1     -10.888   6.979  72.099  1.00  0.00    -0.219 NA 
HETATM    7  H   UNL     1     -10.599   7.587  72.865  1.00  0.00     0.000 HD 
BRANCH   6   8
HETATM    8  C   UNL     1     -11.197   7.749  70.886  1.00  0.00    -0.271 C  
BRANCH   8   9
HETATM    9  C   UNL     1     -11.798   9.120  71.252  1.00  0.00    -0.327 C  
BRANCH   9  10
HETATM   10  N   UNL     1     -11.014  10.229  70.679  1.00  0.00    -0.393 NA 
HETATM   11  H   UNL     1     -10.016  10.013  70.646  1.00  0.00     0.000 HD 
BRANCH  10  12
HETATM   12  C   UNL     1     -11.541  10.593  69.354  1.00  0.00    -0.280 C  
BRANCH  12  13
HETATM   13  C   UNL     1     -10.414  10.705  68.310  1.00  0.00    -0.187 C  
HETATM   14  N   UNL     1      -9.080  10.669  68.921  1.00  0.00    -0.173 NA 
HETATM   15  H1  UNL     1      -8.334  10.743  68.230  1.00  0.00     0.000 HD 
HETATM   16  H2  UNL     1      -8.964   9.837  69.499  1.00  0.00     0.000 HD 
ENDBRANCH  12  13
ENDBRANCH  10  12
ENDBRANCH   9  10
ENDBRANCH   8   9
ENDBRANCH   6   8
ENDBRANCH   5   6
ENDBRANCH   3   5
TORSDOF 7
ENDMDL
MODEL      266
REMARK 921   NORMALIZED FREE ENERGY PREDICTED BY IDOCK:   -1.45 KCAL/MOL
REMARK 922        TOTAL FREE ENERGY PREDICTED BY IDOCK:   -2.55 KCAL/MOL
REMARK 923 INTER-LIGAND FREE ENERGY PREDICTED BY IDOCK:   -2.46 KCAL/MOL
REMARK 924 INTRA-LIGAND FREE ENERGY PREDICTED BY IDOCK:   -0.10 KCAL/MOL
REMARK 927      BINDING AFFINITY PREDICTED BY RF-SCORE:    0.00 PKD
ROOT
HETATM    1  N   UNL     1     -11.775   1.616  63.243  1.00  0.00    -0.550 NA 
HETATM    2  H2  UNL     1     -12.322   1.978  62.461  1.00  0.00     0.000 HD 
HETATM    3  C   UNL     1     -10.512   2.346  63.386  1.00  0.00    -0.189 C  
HETATM    4  H1  UNL     1     -11.638   0.609  63.159  1.00  0.00     0.000 HD 
ENDROOT
BRANCH   3   5
HETATM    5  C   UNL     1     -10.719   3.866  63.512  1.00  0.00    -0.149 C  
BRANCH   5   6
HETATM    6  N   UNL     1     -11.183   4.236  64.854  1.00  0.00    -1.021 NA 
HETATM    7  H   UNL     1     -11.916   3.608  65.184  1.00  0.00     0.000 HD 
BRANCH   6   8
HETATM    8  C   UNL     1     -10.065   4.306  65.805  1.00  0.00    -0.212 C  
BRANCH   8   9
HETATM    9  C   UNL     1      -8.942   5.210  65.258  1.00  0.00    -0.142 C  
BRANCH   9  10
HETATM   10  N   UNL     1      -7.634   4.869  65.844  1.00  0.00    -0.089 NA 
HETATM   11  H   UNL     1      -7.234   4.030  65.421  1.00  0.00     0.000 HD 
BRANCH  10  12
HETATM   12  C   UNL     1      -6.720   6.019  65.752  1.00  0.00    -0.048 C  
BRANCH  12  13
HETATM   13  C   UNL     1      -5.806   5.915  64.516  1.00  0.00    -0.025 C  
HETATM   14  N   UNL     1      -6.441   6.447  63.304  1.00  0.00    -0.033 NA 
HETATM   15  H1  UNL     1      -5.836   6.378  62.486  1.00  0.00     0.000 HD 
HETATM   16  H2  UNL     1      -6.759   7.405  63.446  1.00  0.00     0.000 HD 
ENDBRANCH  12  13
ENDBRANCH  10  12
ENDBRANCH   9  10
ENDBRANCH   8   9
ENDBRANCH   6   8
ENDBRANCH   5   6
ENDBRANCH   3   5
TORSDOF 7
ENDMDL
MODEL      267
REMARK 921   NORMALIZED FREE ENERGY PREDICTED BY IDOCK:   -1.45 KCAL/MOL
REMARK 922        TOTAL FREE ENERGY PREDICTED BY IDOCK:   -2.55 KCAL/MOL
REMARK 923 INTER-LIGAND FREE ENERGY PREDICTED BY IDOCK:   -2.26 KCAL/MOL
REMARK 924 INTRA-LIGAND FREE ENERGY PREDICTED BY IDOCK:   -0.29 KCAL/MOL
REMARK 927      BINDING AFFINITY PREDICTED BY RF-SCORE:    0.00 PKD
ROOT
HETATM    1  N   UNL     1      -7.086   8.273  64.914  1.00  0.00    -0.077 NA 
HETATM    2  H2  UNL     1      -6.566   7.937  65.724  1.00  0.00     0.000 HD 
HETATM    3  C   UNL     1      -8.531   8.127  65.117  1.00  0.00    -0.116 C  
HETATM    4  H1  UNL     1      -6.764   7.821  64.058  1.00  0.00     0.000 HD 
ENDROOT
BRANCH   3   5
HETATM    5  C   UNL     1      -9.017   8.808  66.409  1.00  0.00    -0.158 C  
BRANCH   5   6
HETATM    6  N   UNL     1      -7.932   8.942  67.388  1.00  0.00    -0.101 NA 
HETATM    7  H   UNL     1      -7.805   9.911  67.675  1.00  0.00     0.000 HD 
BRANCH   6   8
HETATM    8  C   UNL     1      -8.146   8.060  68.544  1.00  0.00    -0.125 C  
BRANCH   8   9
HETATM    9  C   UNL     1      -9.621   8.093  68.988  1.00  0.00    -0.156 C  
BRANCH   9  10
HETATM   10  N   UNL     1      -9.759   8.543  70.385  1.00  0.00    -0.172 NA 
HETATM   11  H   UNL     1      -8.894   8.953  70.740  1.00  0.00     0.000 HD 
BRANCH  10  12
HETATM   12  C   UNL     1     -10.898   9.468  70.510  1.00  0.00    -0.292 C  
BRANCH  12  13
HETATM   13  C   UNL     1     -10.859  10.561  69.425  1.00  0.00    -0.249 C  
HETATM   14  N   UNL     1     -12.167  10.770  68.794  1.00  0.00    -0.814 NA 
HETATM   15  H1  UNL     1     -12.141  11.493  68.076  1.00  0.00     0.000 HD 
HETATM   16  H2  UNL     1     -12.883  10.970  69.492  1.00  0.00     0.000 HD 
ENDBRANCH  12  13
ENDBRANCH  10  12
ENDBRANCH   9  10
ENDBRANCH   8   9
ENDBRANCH   6   8
ENDBRANCH   5   6
ENDBRANCH   3   5
TORSDOF 7
ENDMDL
MODEL      268
REMARK 921   NORMALIZED FREE ENERGY PREDICTED BY IDOCK:   -1.45 KCAL/MOL
REMARK 922        TOTAL FREE ENERGY PREDICTED BY IDOCK:   -2.54 KCAL/MOL
REMARK 923 INTER-LIGAND FREE ENERGY PREDICTED BY IDOCK:   -2.41 KCAL/MOL
REMARK 924 INTRA-LIGAND FREE ENERGY PREDICTED BY IDOCK:   -0.14 KCAL/MOL
REMARK 927      BINDING AFFINITY PREDICTED BY RF-SCORE:    0.00 PKD
ROOT
HETATM    1  N   UNL     1      -9.360   1.769  70.305  1.00  0.00    -0.106 NA 
HETATM    2  H2  UNL     1     -10.290   1.457  70.584  1.00  0.00     0.000 HD 
HETATM    3  C   UNL     1      -9.380   3.172  69.882  1.00  0.00    -0.158 C  
HETATM    4  H1  UNL     1      -8.965   1.152  69.595  1.00  0.00     0.000 HD 
ENDROOT
BRANCH   3   5
HETATM    5  C   UNL     1      -9.977   4.103  70.953  1.00  0.00    -0.136 C  
BRANCH   5   6
HETATM    6  N   UNL     1     -10.443   5.365  70.369  1.00  0.00    -0.280 NA 
HETATM    7  H   UNL     1     -11.380   5.274  69.978  1.00  0.00     0.000 HD 
BRANCH   6   8
HETATM    8  C   UNL     1     -10.371   6.463  71.344  1.00  0.00    -0.206 C  
BRANCH   8   9
HETATM    9  C   UNL     1      -9.129   7.339  71.085  1.00  0.00    -0.152 C  
BRANCH   9  10
HETATM   10  N   UNL     1      -9.259   8.666  71.713  1.00  0.00    -0.247 NA 
HETATM   11  H   UNL     1      -8.506   9.295  71.432  1.00  0.00     0.000 HD 
BRANCH  10  12
HETATM   12  C   UNL     1     -10.587   9.235  71.430  1.00  0.00    -0.347 C  
BRANCH  12  13
HETATM   13  C   UNL     1     -10.606   9.973  70.078  1.00  0.00    -0.293 C  
HETATM   14  N   UNL     1     -11.969  10.281  69.628  1.00  0.00    -0.481 NA 
HETATM   15  H1  UNL     1     -11.982  10.770  68.733  1.00  0.00     0.000 HD 
HETATM   16  H2  UNL     1     -12.482  10.802  70.339  1.00  0.00     0.000 HD 
ENDBRANCH  12  13
ENDBRANCH  10  12
ENDBRANCH   9  10
ENDBRANCH   8   9
ENDBRANCH   6   8
ENDBRANCH   5   6
ENDBRANCH   3   5
TORSDOF 7
ENDMDL
MODEL      269
REMARK 921   NORMALIZED FREE ENERGY PREDICTED BY IDOCK:   -1.43 KCAL/MOL
REMARK 922        TOTAL FREE ENERGY PREDICTED BY IDOCK:   -2.52 KCAL/MOL
REMARK 923 INTER-LIGAND FREE ENERGY PREDICTED BY IDOCK:   -2.17 KCAL/MOL
REMARK 924 INTRA-LIGAND FREE ENERGY PREDICTED BY IDOCK:   -0.35 KCAL/MOL
REMARK 927      BINDING AFFINITY PREDICTED BY RF-SCORE:    0.00 PKD
ROOT
HETATM    1  N   UNL     1      -7.384   6.670  70.464  1.00  0.00    -0.080 NA 
HETATM    2  H2  UNL     1      -7.692   7.595  70.764  1.00  0.00     0.000 HD 
HETATM    3  C   UNL     1      -7.932   5.624  71.333  1.00  0.00    -0.113 C  
HETATM    4  H1  UNL     1      -6.367   6.627  70.395  1.00  0.00     0.000 HD 
ENDROOT
BRANCH   3   5
HETATM    5  C   UNL     1      -9.467   5.688  71.438  1.00  0.00    -0.147 C  
BRANCH   5   6
HETATM    6  N   UNL     1     -10.014   6.792  70.641  1.00  0.00    -0.187 NA 
HETATM    7  H   UNL     1      -9.304   7.209  70.041  1.00  0.00     0.000 HD 
BRANCH   6   8
HETATM    8  C   UNL     1     -11.188   6.361  69.868  1.00  0.00    -0.420 C  
BRANCH   8   9
HETATM    9  C   UNL     1     -10.756   5.733  68.529  1.00  0.00    -0.217 C  
BRANCH   9  10
HETATM   10  N   UNL     1      -9.722   6.540  67.857  1.00  0.00    -0.121 NA 
HETATM   11  H   UNL     1      -9.068   5.960  67.330  1.00  0.00     0.000 HD 
BRANCH  10  12
HETATM   12  C   UNL     1     -10.350   7.568  67.011  1.00  0.00    -0.324 C  
BRANCH  12  13
HETATM   13  C   UNL     1      -9.349   8.150  65.994  1.00  0.00    -0.117 C  
HETATM   14  N   UNL     1      -9.795   9.434  65.442  1.00  0.00    -0.445 NA 
HETATM   15  H1  UNL     1      -9.132   9.819  64.769  1.00  0.00     0.000 HD 
HETATM   16  H2  UNL     1      -9.995  10.103  66.185  1.00  0.00     0.000 HD 
ENDBRANCH  12  13
ENDBRANCH  10  12
ENDBRANCH   9  10
ENDBRANCH   8   9
ENDBRANCH   6   8
ENDBRANCH   5   6
ENDBRANCH   3   5
TORSDOF 7
ENDMDL
MODEL      270
REMARK 921   NORMALIZED FREE ENERGY PREDICTED BY IDOCK:   -1.41 KCAL/MOL
REMARK 922        TOTAL FREE ENERGY PREDICTED BY IDOCK:   -2.49 KCAL/MOL
REMARK 923 INTER-LIGAND FREE ENERGY PREDICTED BY IDOCK:   -2.35 KCAL/MOL
REMARK 924 INTRA-LIGAND FREE ENERGY PREDICTED BY IDOCK:   -0.14 KCAL/MOL
REMARK 927      BINDING AFFINITY PREDICTED BY RF-SCORE:    0.00 PKD
ROOT
HETATM    1  N   UNL     1     -10.058  14.876  66.410  1.00  0.00    -0.273 NA 
HETATM    2  H2  UNL     1      -9.346  14.717  65.697  1.00  0.00     0.000 HD 
HETATM    3  C   UNL     1     -11.115  13.865  66.335  1.00  0.00    -0.309 C  
HETATM    4  H1  UNL     1     -10.423  15.828  66.357  1.00  0.00     0.000 HD 
ENDROOT
BRANCH   3   5
HETATM    5  C   UNL     1     -10.565  12.429  66.413  1.00  0.00    -0.244 C  
BRANCH   5   6
HETATM    6  N   UNL     1      -9.504  12.205  65.425  1.00  0.00    -0.432 NA 
HETATM    7  H   UNL     1      -8.842  12.979  65.404  1.00  0.00     0.000 HD 
BRANCH   6   8
HETATM    8  C   UNL     1      -8.826  10.921  65.652  1.00  0.00    -0.190 C  
BRANCH   8   9
HETATM    9  C   UNL     1      -9.607   9.769  64.990  1.00  0.00    -0.264 C  
BRANCH   9  10
HETATM   10  N   UNL     1      -8.787   8.550  64.876  1.00  0.00    -0.408 NA 
HETATM   11  H   UNL     1      -8.983   8.038  64.015  1.00  0.00     0.000 HD 
BRANCH  10  12
HETATM   12  C   UNL     1      -7.359   8.884  65.004  1.00  0.00    -0.095 C  
BRANCH  12  13
HETATM   13  C   UNL     1      -6.604   8.646  63.683  1.00  0.00    -0.088 C  
HETATM   14  N   UNL     1      -5.147   8.696  63.854  1.00  0.00    -0.051 NA 
HETATM   15  H1  UNL     1      -4.647   8.538  62.980  1.00  0.00     0.000 HD 
HETATM   16  H2  UNL     1      -4.840   8.044  64.576  1.00  0.00     0.000 HD 
ENDBRANCH  12  13
ENDBRANCH  10  12
ENDBRANCH   9  10
ENDBRANCH   8   9
ENDBRANCH   6   8
ENDBRANCH   5   6
ENDBRANCH   3   5
TORSDOF 7
ENDMDL
MODEL      271
REMARK 921   NORMALIZED FREE ENERGY PREDICTED BY IDOCK:   -1.40 KCAL/MOL
REMARK 922        TOTAL FREE ENERGY PREDICTED BY IDOCK:   -2.47 KCAL/MOL
REMARK 923 INTER-LIGAND FREE ENERGY PREDICTED BY IDOCK:   -2.21 KCAL/MOL
REMARK 924 INTRA-LIGAND FREE ENERGY PREDICTED BY IDOCK:   -0.27 KCAL/MOL
REMARK 927      BINDING AFFINITY PREDICTED BY RF-SCORE:    0.00 PKD
ROOT
HETATM    1  N   UNL     1      -6.872  11.845  68.036  1.00  0.00    -0.067 NA 
HETATM    2  H2  UNL     1      -6.824  12.458  68.850  1.00  0.00     0.000 HD 
HETATM    3  C   UNL     1      -7.126  10.457  68.435  1.00  0.00    -0.078 C  
HETATM    4  H1  UNL     1      -6.037  11.938  67.458  1.00  0.00     0.000 HD 
ENDROOT
BRANCH   3   5
HETATM    5  C   UNL     1      -8.386  10.316  69.309  1.00  0.00    -0.163 C  
BRANCH   5   6
HETATM    6  N   UNL     1      -9.111   9.076  69.012  1.00  0.00    -0.142 NA 
HETATM    7  H   UNL     1      -9.070   8.422  69.793  1.00  0.00     0.000 HD 
BRANCH   6   8
HETATM    8  C   UNL     1     -10.498   9.352  68.611  1.00  0.00    -0.209 C  
BRANCH   8   9
HETATM    9  C   UNL     1     -10.622   9.394  67.076  1.00  0.00    -0.201 C  
BRANCH   9  10
HETATM   10  N   UNL     1     -10.615  10.776  66.566  1.00  0.00    -0.240 NA 
HETATM   11  H   UNL     1     -10.503  11.459  67.317  1.00  0.00     0.000 HD 
BRANCH  10  12
HETATM   12  C   UNL     1      -9.584  10.929  65.526  1.00  0.00    -0.221 C  
BRANCH  12  13
HETATM   13  C   UNL     1     -10.018  11.938  64.446  1.00  0.00    -0.234 C  
HETATM   14  N   UNL     1      -9.190  11.855  63.237  1.00  0.00    -0.649 NA 
HETATM   15  H1  UNL     1      -9.478  12.522  62.522  1.00  0.00     0.000 HD 
HETATM   16  H2  UNL     1      -9.174  10.904  62.868  1.00  0.00     0.000 HD 
ENDBRANCH  12  13
ENDBRANCH  10  12
ENDBRANCH   9  10
ENDBRANCH   8   9
ENDBRANCH   6   8
ENDBRANCH   5   6
ENDBRANCH   3   5
TORSDOF 7
ENDMDL
MODEL      272
REMARK 921   NORMALIZED FREE ENERGY PREDICTED BY IDOCK:   -1.40 KCAL/MOL
REMARK 922        TOTAL FREE ENERGY PREDICTED BY IDOCK:   -2.47 KCAL/MOL
REMARK 923 INTER-LIGAND FREE ENERGY PREDICTED BY IDOCK:   -2.37 KCAL/MOL
REMARK 924 INTRA-LIGAND FREE ENERGY PREDICTED BY IDOCK:   -0.10 KCAL/MOL
REMARK 927      BINDING AFFINITY PREDICTED BY RF-SCORE:    0.00 PKD
ROOT
HETATM    1  N   UNL     1      -8.940  14.561  67.577  1.00  0.00    -0.180 NA 
HETATM    2  H2  UNL     1      -8.045  14.462  67.096  1.00  0.00     0.000 HD 
HETATM    3  C   UNL     1      -9.796  13.395  67.341  1.00  0.00    -0.227 C  
HETATM    4  H1  UNL     1      -9.396  15.438  67.324  1.00  0.00     0.000 HD 
ENDROOT
BRANCH   3   5
HETATM    5  C   UNL     1      -9.108  12.071  67.721  1.00  0.00    -0.187 C  
BRANCH   5   6
HETATM    6  N   UNL     1      -9.662  10.941  66.967  1.00  0.00    -0.173 NA 
HETATM    7  H   UNL     1      -9.423  10.998  65.978  1.00  0.00     0.000 HD 
BRANCH   6   8
HETATM    8  C   UNL     1      -9.247   9.657  67.549  1.00  0.00    -0.133 C  
BRANCH   8   9
HETATM    9  C   UNL     1     -10.352   9.093  68.464  1.00  0.00    -0.207 C  
BRANCH   9  10
HETATM   10  N   UNL     1     -10.175   9.527  69.862  1.00  0.00    -0.214 NA 
HETATM   11  H   UNL     1     -10.732  10.355  70.077  1.00  0.00     0.000 HD 
BRANCH  10  12
HETATM   12  C   UNL     1     -10.467   8.413  70.780  1.00  0.00    -0.197 C  
BRANCH  12  13
HETATM   13  C   UNL     1     -11.888   8.523  71.364  1.00  0.00    -0.296 C  
HETATM   14  N   UNL     1     -12.731   7.376  71.005  1.00  0.00    -0.558 NA 
HETATM   15  H1  UNL     1     -13.671   7.449  71.392  1.00  0.00     0.000 HD 
HETATM   16  H2  UNL     1     -12.289   6.497  71.274  1.00  0.00     0.000 HD 
ENDBRANCH  12  13
ENDBRANCH  10  12
ENDBRANCH   9  10
ENDBRANCH   8   9
ENDBRANCH   6   8
ENDBRANCH   5   6
ENDBRANCH   3   5
TORSDOF 7
ENDMDL
MODEL      273
REMARK 921   NORMALIZED FREE ENERGY PREDICTED BY IDOCK:   -1.39 KCAL/MOL
REMARK 922        TOTAL FREE ENERGY PREDICTED BY IDOCK:   -2.46 KCAL/MOL
REMARK 923 INTER-LIGAND FREE ENERGY PREDICTED BY IDOCK:   -2.28 KCAL/MOL
REMARK 924 INTRA-LIGAND FREE ENERGY PREDICTED BY IDOCK:   -0.18 KCAL/MOL
REMARK 927      BINDING AFFINITY PREDICTED BY RF-SCORE:    0.00 PKD
ROOT
HETATM    1  N   UNL     1      -8.697  10.696  69.479  1.00  0.00    -0.388 NA 
HETATM    2  H2  UNL     1      -9.441  10.956  70.127  1.00  0.00     0.000 HD 
HETATM    3  C   UNL     1      -7.638   9.950  70.165  1.00  0.00    -0.175 C  
HETATM    4  H1  UNL     1      -8.341  11.513  68.983  1.00  0.00     0.000 HD 
ENDROOT
BRANCH   3   5
HETATM    5  C   UNL     1      -8.175   8.718  70.915  1.00  0.00    -0.161 C  
BRANCH   5   6
HETATM    6  N   UNL     1      -9.323   9.061  71.760  1.00  0.00    -0.346 NA 
HETATM    7  H   UNL     1      -9.571  10.046  71.673  1.00  0.00     0.000 HD 
BRANCH   6   8
HETATM    8  C   UNL     1     -10.472   8.189  71.479  1.00  0.00    -0.221 C  
BRANCH   8   9
HETATM    9  C   UNL     1     -10.027   6.716  71.386  1.00  0.00    -0.183 C  
BRANCH   9  10
HETATM   10  N   UNL     1      -9.999   6.071  72.711  1.00  0.00    -0.174 NA 
HETATM   11  H   UNL     1      -9.724   6.723  73.447  1.00  0.00     0.000 HD 
BRANCH  10  12
HETATM   12  C   UNL     1     -11.297   5.436  72.995  1.00  0.00    -0.293 C  
BRANCH  12  13
HETATM   13  C   UNL     1     -11.128   3.951  73.365  1.00  0.00    -0.232 C  
HETATM   14  N   UNL     1      -9.868   3.689  74.070  1.00  0.00    -0.109 NA 
HETATM   15  H1  UNL     1      -9.757   2.705  74.315  1.00  0.00     0.000 HD 
HETATM   16  H2  UNL     1      -9.776   4.286  74.892  1.00  0.00     0.000 HD 
ENDBRANCH  12  13
ENDBRANCH  10  12
ENDBRANCH   9  10
ENDBRANCH   8   9
ENDBRANCH   6   8
ENDBRANCH   5   6
ENDBRANCH   3   5
TORSDOF 7
ENDMDL
MODEL      274
REMARK 921   NORMALIZED FREE ENERGY PREDICTED BY IDOCK:   -1.38 KCAL/MOL
REMARK 922        TOTAL FREE ENERGY PREDICTED BY IDOCK:   -2.45 KCAL/MOL
REMARK 923 INTER-LIGAND FREE ENERGY PREDICTED BY IDOCK:   -2.27 KCAL/MOL
REMARK 924 INTRA-LIGAND FREE ENERGY PREDICTED BY IDOCK:   -0.19 KCAL/MOL
REMARK 927      BINDING AFFINITY PREDICTED BY RF-SCORE:    0.00 PKD
ROOT
HETATM    1  N   UNL     1      -6.026   7.673  66.944  1.00  0.00    -0.045 NA 
HETATM    2  H2  UNL     1      -6.985   7.324  66.942  1.00  0.00     0.000 HD 
HETATM    3  C   UNL     1      -5.786   8.560  65.802  1.00  0.00    -0.047 C  
HETATM    4  H1  UNL     1      -5.357   6.905  66.989  1.00  0.00     0.000 HD 
ENDROOT
BRANCH   3   5
HETATM    5  C   UNL     1      -6.797   9.719  65.733  1.00  0.00    -0.098 C  
BRANCH   5   6
HETATM    6  N   UNL     1      -7.976   9.359  64.938  1.00  0.00    -0.114 NA 
HETATM    7  H   UNL     1      -7.911   8.405  64.582  1.00  0.00     0.000 HD 
BRANCH   6   8
HETATM    8  C   UNL     1      -9.217   9.567  65.698  1.00  0.00    -0.223 C  
BRANCH   8   9
HETATM    9  C   UNL     1      -9.357  11.045  66.114  1.00  0.00    -0.191 C  
BRANCH   9  10
HETATM   10  N   UNL     1      -9.711  11.901  64.968  1.00  0.00    -0.379 NA 
HETATM   11  H   UNL     1      -9.129  11.707  64.153  1.00  0.00     0.000 HD 
BRANCH  10  12
HETATM   12  C   UNL     1     -11.146  11.775  64.662  1.00  0.00    -0.303 C  
BRANCH  12  13
HETATM   13  C   UNL     1     -11.997  12.686  65.566  1.00  0.00    -0.456 C  
HETATM   14  N   UNL     1     -12.243  14.001  64.963  1.00  0.00    -0.412 NA 
HETATM   15  H1  UNL     1     -12.807  14.604  65.561  1.00  0.00     0.000 HD 
HETATM   16  H2  UNL     1     -12.661  13.907  64.037  1.00  0.00     0.000 HD 
ENDBRANCH  12  13
ENDBRANCH  10  12
ENDBRANCH   9  10
ENDBRANCH   8   9
ENDBRANCH   6   8
ENDBRANCH   5   6
ENDBRANCH   3   5
TORSDOF 7
ENDMDL
MODEL      275
REMARK 921   NORMALIZED FREE ENERGY PREDICTED BY IDOCK:   -1.36 KCAL/MOL
REMARK 922        TOTAL FREE ENERGY PREDICTED BY IDOCK:   -2.42 KCAL/MOL
REMARK 923 INTER-LIGAND FREE ENERGY PREDICTED BY IDOCK:   -2.17 KCAL/MOL
REMARK 924 INTRA-LIGAND FREE ENERGY PREDICTED BY IDOCK:   -0.24 KCAL/MOL
REMARK 927      BINDING AFFINITY PREDICTED BY RF-SCORE:    0.00 PKD
ROOT
HETATM    1  N   UNL     1      -6.247   7.441  63.837  1.00  0.00    -0.048 NA 
HETATM    2  H2  UNL     1      -5.507   7.633  63.161  1.00  0.00     0.000 HD 
HETATM    3  C   UNL     1      -6.728   8.679  64.457  1.00  0.00    -0.066 C  
HETATM    4  H1  UNL     1      -5.946   6.750  64.524  1.00  0.00     0.000 HD 
ENDROOT
BRANCH   3   5
HETATM    5  C   UNL     1      -7.182   9.722  63.420  1.00  0.00    -0.123 C  
BRANCH   5   6
HETATM    6  N   UNL     1      -7.901  10.833  64.053  1.00  0.00    -0.346 NA 
HETATM    7  H   UNL     1      -8.549  11.277  63.403  1.00  0.00     0.000 HD 
BRANCH   6   8
HETATM    8  C   UNL     1      -8.581  10.397  65.280  1.00  0.00    -0.176 C  
BRANCH   8   9
HETATM    9  C   UNL     1     -10.110  10.519  65.127  1.00  0.00    -0.314 C  
BRANCH   9  10
HETATM   10  N   UNL     1     -10.718  11.222  66.271  1.00  0.00    -0.268 NA 
HETATM   11  H   UNL     1     -10.569  10.722  67.148  1.00  0.00     0.000 HD 
BRANCH  10  12
HETATM   12  C   UNL     1     -10.225  12.608  66.336  1.00  0.00    -0.251 C  
BRANCH  12  13
HETATM   13  C   UNL     1     -10.061  13.080  67.793  1.00  0.00    -0.229 C  
HETATM   14  N   UNL     1      -8.983  12.371  68.492  1.00  0.00    -0.355 NA 
HETATM   15  H1  UNL     1      -8.874  12.684  69.457  1.00  0.00     0.000 HD 
HETATM   16  H2  UNL     1      -8.103  12.444  67.980  1.00  0.00     0.000 HD 
ENDBRANCH  12  13
ENDBRANCH  10  12
ENDBRANCH   9  10
ENDBRANCH   8   9
ENDBRANCH   6   8
ENDBRANCH   5   6
ENDBRANCH   3   5
TORSDOF 7
ENDMDL
MODEL      276
REMARK 921   NORMALIZED FREE ENERGY PREDICTED BY IDOCK:   -1.34 KCAL/MOL
REMARK 922        TOTAL FREE ENERGY PREDICTED BY IDOCK:   -2.40 KCAL/MOL
REMARK 923 INTER-LIGAND FREE ENERGY PREDICTED BY IDOCK:   -2.20 KCAL/MOL
REMARK 924 INTRA-LIGAND FREE ENERGY PREDICTED BY IDOCK:   -0.20 KCAL/MOL
REMARK 927      BINDING AFFINITY PREDICTED BY RF-SCORE:    0.00 PKD
ROOT
HETATM    1  N   UNL     1      -5.276   6.196  68.951  1.00  0.00    -0.004 NA 
HETATM    2  H2  UNL     1      -5.168   6.353  67.949  1.00  0.00     0.000 HD 
HETATM    3  C   UNL     1      -5.855   7.370  69.609  1.00  0.00    -0.023 C  
HETATM    4  H1  UNL     1      -4.394   5.906  69.373  1.00  0.00     0.000 HD 
ENDROOT
BRANCH   3   5
HETATM    5  C   UNL     1      -7.187   7.808  68.971  1.00  0.00    -0.080 C  
BRANCH   5   6
HETATM    6  N   UNL     1      -7.862   6.685  68.312  1.00  0.00    -0.108 NA 
HETATM    7  H   UNL     1      -7.532   5.788  68.668  1.00  0.00     0.000 HD 
BRANCH   6   8
HETATM    8  C   UNL     1      -9.323   6.803  68.419  1.00  0.00    -0.124 C  
BRANCH   8   9
HETATM    9  C   UNL     1      -9.719   7.455  69.758  1.00  0.00    -0.170 C  
BRANCH   9  10
HETATM   10  N   UNL     1     -11.039   8.104  69.678  1.00  0.00    -0.443 NA 
HETATM   11  H   UNL     1     -11.654   7.813  70.440  1.00  0.00     0.000 HD 
BRANCH  10  12
HETATM   12  C   UNL     1     -10.884   9.568  69.627  1.00  0.00    -0.235 C  
BRANCH  12  13
HETATM   13  C   UNL     1     -11.058  10.102  68.192  1.00  0.00    -0.230 C  
HETATM   14  N   UNL     1     -12.146  11.081  68.088  1.00  0.00    -0.780 NA 
HETATM   15  H1  UNL     1     -12.262  11.435  67.139  1.00  0.00     0.000 HD 
HETATM   16  H2  UNL     1     -12.018  11.844  68.752  1.00  0.00     0.000 HD 
ENDBRANCH  12  13
ENDBRANCH  10  12
ENDBRANCH   9  10
ENDBRANCH   8   9
ENDBRANCH   6   8
ENDBRANCH   5   6
ENDBRANCH   3   5
TORSDOF 7
ENDMDL
MODEL      277
REMARK 921   NORMALIZED FREE ENERGY PREDICTED BY IDOCK:   -1.29 KCAL/MOL
REMARK 922        TOTAL FREE ENERGY PREDICTED BY IDOCK:   -2.32 KCAL/MOL
REMARK 923 INTER-LIGAND FREE ENERGY PREDICTED BY IDOCK:   -2.25 KCAL/MOL
REMARK 924 INTRA-LIGAND FREE ENERGY PREDICTED BY IDOCK:   -0.07 KCAL/MOL
REMARK 927      BINDING AFFINITY PREDICTED BY RF-SCORE:    0.00 PKD
ROOT
HETATM    1  N   UNL     1      -6.969   7.338  64.719  1.00  0.00    -0.050 NA 
HETATM    2  H2  UNL     1      -7.721   7.419  64.035  1.00  0.00     0.000 HD 
HETATM    3  C   UNL     1      -7.359   7.928  66.003  1.00  0.00    -0.074 C  
HETATM    4  H1  UNL     1      -6.100   7.731  64.357  1.00  0.00     0.000 HD 
ENDROOT
BRANCH   3   5
HETATM    5  C   UNL     1      -8.671   7.336  66.550  1.00  0.00    -0.133 C  
BRANCH   5   6
HETATM    6  N   UNL     1      -9.043   7.944  67.832  1.00  0.00    -0.132 NA 
HETATM    7  H   UNL     1      -8.325   8.589  68.163  1.00  0.00     0.000 HD 
BRANCH   6   8
HETATM    8  C   UNL     1     -10.358   8.594  67.753  1.00  0.00    -0.242 C  
BRANCH   8   9
HETATM    9  C   UNL     1     -10.342   9.945  68.496  1.00  0.00    -0.196 C  
BRANCH   9  10
HETATM   10  N   UNL     1     -11.702  10.385  68.854  1.00  0.00    -0.522 NA 
HETATM   11  H   UNL     1     -12.419   9.818  68.399  1.00  0.00     0.000 HD 
BRANCH  10  12
HETATM   12  C   UNL     1     -11.862  10.402  70.318  1.00  0.00    -0.312 C  
BRANCH  12  13
HETATM   13  C   UNL     1     -12.121   8.989  70.872  1.00  0.00    -0.198 C  
HETATM   14  N   UNL     1     -12.792   9.014  72.177  1.00  0.00    -0.389 NA 
HETATM   15  H1  UNL     1     -12.964   8.078  72.544  1.00  0.00     0.000 HD 
HETATM   16  H2  UNL     1     -13.654   9.557  72.136  1.00  0.00     0.000 HD 
ENDBRANCH  12  13
ENDBRANCH  10  12
ENDBRANCH   9  10
ENDBRANCH   8   9
ENDBRANCH   6   8
ENDBRANCH   5   6
ENDBRANCH   3   5
TORSDOF 7
ENDMDL
MODEL      278
REMARK 921   NORMALIZED FREE ENERGY PREDICTED BY IDOCK:   -1.28 KCAL/MOL
REMARK 922        TOTAL FREE ENERGY PREDICTED BY IDOCK:   -2.31 KCAL/MOL
REMARK 923 INTER-LIGAND FREE ENERGY PREDICTED BY IDOCK:   -2.11 KCAL/MOL
REMARK 924 INTRA-LIGAND FREE ENERGY PREDICTED BY IDOCK:   -0.20 KCAL/MOL
REMARK 927      BINDING AFFINITY PREDICTED BY RF-SCORE:    0.00 PKD
ROOT
HETATM    1  N   UNL     1      -8.362   2.561  73.245  1.00  0.00    -0.066 NA 
HETATM    2  H2  UNL     1      -9.183   2.035  72.946  1.00  0.00     0.000 HD 
HETATM    3  C   UNL     1      -8.580   4.003  73.103  1.00  0.00    -0.092 C  
HETATM    4  H1  UNL     1      -7.525   2.242  72.756  1.00  0.00     0.000 HD 
ENDROOT
BRANCH   3   5
HETATM    5  C   UNL     1      -9.843   4.484  73.840  1.00  0.00    -0.146 C  
BRANCH   5   6
HETATM    6  N   UNL     1     -10.871   4.945  72.901  1.00  0.00    -0.232 NA 
HETATM    7  H   UNL     1     -11.334   5.789  73.237  1.00  0.00     0.000 HD 
BRANCH   6   8
HETATM    8  C   UNL     1     -10.316   5.134  71.553  1.00  0.00    -0.208 C  
BRANCH   8   9
HETATM    9  C   UNL     1     -11.167   6.138  70.751  1.00  0.00    -0.306 C  
BRANCH   9  10
HETATM   10  N   UNL     1     -10.730   7.527  70.979  1.00  0.00    -0.229 NA 
HETATM   11  H   UNL     1     -10.430   7.679  71.942  1.00  0.00     0.000 HD 
BRANCH  10  12
HETATM   12  C   UNL     1      -9.682   7.895  70.012  1.00  0.00    -0.179 C  
BRANCH  12  13
HETATM   13  C   UNL     1     -10.205   7.835  68.564  1.00  0.00    -0.204 C  
HETATM   14  N   UNL     1     -11.135   8.929  68.260  1.00  0.00    -0.446 NA 
HETATM   15  H1  UNL     1     -11.481   8.890  67.301  1.00  0.00     0.000 HD 
HETATM   16  H2  UNL     1     -10.714   9.836  68.462  1.00  0.00     0.000 HD 
ENDBRANCH  12  13
ENDBRANCH  10  12
ENDBRANCH   9  10
ENDBRANCH   8   9
ENDBRANCH   6   8
ENDBRANCH   5   6
ENDBRANCH   3   5
TORSDOF 7
ENDMDL
MODEL      279
REMARK 921   NORMALIZED FREE ENERGY PREDICTED BY IDOCK:   -1.25 KCAL/MOL
REMARK 922        TOTAL FREE ENERGY PREDICTED BY IDOCK:   -2.27 KCAL/MOL
REMARK 923 INTER-LIGAND FREE ENERGY PREDICTED BY IDOCK:   -2.09 KCAL/MOL
REMARK 924 INTRA-LIGAND FREE ENERGY PREDICTED BY IDOCK:   -0.19 KCAL/MOL
REMARK 927      BINDING AFFINITY PREDICTED BY RF-SCORE:    0.00 PKD
ROOT
HETATM    1  N   UNL     1      -8.566   7.894  63.804  1.00  0.00    -0.360 NA 
HETATM    2  H2  UNL     1      -9.421   8.359  63.500  1.00  0.00     0.000 HD 
HETATM    3  C   UNL     1      -8.014   8.534  65.002  1.00  0.00    -0.131 C  
HETATM    4  H1  UNL     1      -7.888   7.840  63.043  1.00  0.00     0.000 HD 
ENDROOT
BRANCH   3   5
HETATM    5  C   UNL     1      -9.037   8.617  66.150  1.00  0.00    -0.201 C  
BRANCH   5   6
HETATM    6  N   UNL     1      -9.591   9.969  66.280  1.00  0.00    -0.189 NA 
HETATM    7  H   UNL     1      -9.944  10.140  67.221  1.00  0.00     0.000 HD 
BRANCH   6   8
HETATM    8  C   UNL     1      -8.612  10.988  65.878  1.00  0.00    -0.165 C  
BRANCH   8   9
HETATM    9  C   UNL     1      -9.320  12.305  65.502  1.00  0.00     0.068 C  
BRANCH   9  10
HETATM   10  N   UNL     1     -10.380  12.647  66.467  1.00  0.00    -0.239 NA 
HETATM   11  H   UNL     1     -10.118  12.404  67.424  1.00  0.00     0.000 HD 
BRANCH  10  12
HETATM   12  C   UNL     1     -10.743  14.069  66.341  1.00  0.00    -0.278 C  
BRANCH  12  13
HETATM   13  C   UNL     1      -9.531  14.984  66.597  1.00  0.00    -0.266 C  
HETATM   14  N   UNL     1      -9.691  16.308  65.986  1.00  0.00    -0.325 NA 
HETATM   15  H1  UNL     1      -8.888  16.914  66.155  1.00  0.00     0.000 HD 
HETATM   16  H2  UNL     1     -10.557  16.751  66.290  1.00  0.00     0.000 HD 
ENDBRANCH  12  13
ENDBRANCH  10  12
ENDBRANCH   9  10
ENDBRANCH   8   9
ENDBRANCH   6   8
ENDBRANCH   5   6
ENDBRANCH   3   5
TORSDOF 7
ENDMDL
MODEL      280
REMARK 921   NORMALIZED FREE ENERGY PREDICTED BY IDOCK:   -1.22 KCAL/MOL
REMARK 922        TOTAL FREE ENERGY PREDICTED BY IDOCK:   -2.22 KCAL/MOL
REMARK 923 INTER-LIGAND FREE ENERGY PREDICTED BY IDOCK:   -2.09 KCAL/MOL
REMARK 924 INTRA-LIGAND FREE ENERGY PREDICTED BY IDOCK:   -0.13 KCAL/MOL
REMARK 927      BINDING AFFINITY PREDICTED BY RF-SCORE:    0.00 PKD
ROOT
HETATM    1  N   UNL     1      -5.946   7.436  67.102  1.00  0.00    -0.040 NA 
HETATM    2  H2  UNL     1      -6.766   6.844  66.972  1.00  0.00     0.000 HD 
HETATM    3  C   UNL     1      -6.237   8.827  66.746  1.00  0.00    -0.059 C  
HETATM    4  H1  UNL     1      -5.142   7.063  66.596  1.00  0.00     0.000 HD 
ENDROOT
BRANCH   3   5
HETATM    5  C   UNL     1      -7.450   9.390  67.509  1.00  0.00    -0.091 C  
BRANCH   5   6
HETATM    6  N   UNL     1      -7.356  10.845  67.673  1.00  0.00    -0.092 NA 
HETATM    7  H   UNL     1      -6.457  11.200  67.348  1.00  0.00     0.000 HD 
BRANCH   6   8
HETATM    8  C   UNL     1      -8.477  11.530  67.015  1.00  0.00    -0.164 C  
BRANCH   8   9
HETATM    9  C   UNL     1      -9.820  11.086  67.628  1.00  0.00    -0.172 C  
BRANCH   9  10
HETATM   10  N   UNL     1     -10.203  11.934  68.771  1.00  0.00    -0.348 NA 
HETATM   11  H   UNL     1      -9.528  12.682  68.934  1.00  0.00     0.000 HD 
BRANCH  10  12
HETATM   12  C   UNL     1     -11.567  12.456  68.581  1.00  0.00    -0.319 C  
BRANCH  12  13
HETATM   13  C   UNL     1     -11.562  13.764  67.769  1.00  0.00    -0.346 C  
HETATM   14  N   UNL     1     -12.527  14.744  68.280  1.00  0.00    -0.459 NA 
HETATM   15  H1  UNL     1     -12.524  15.610  67.742  1.00  0.00     0.000 HD 
HETATM   16  H2  UNL     1     -12.375  14.927  69.272  1.00  0.00     0.000 HD 
ENDBRANCH  12  13
ENDBRANCH  10  12
ENDBRANCH   9  10
ENDBRANCH   8   9
ENDBRANCH   6   8
ENDBRANCH   5   6
ENDBRANCH   3   5
TORSDOF 7
ENDMDL
MODEL      281
REMARK 921   NORMALIZED FREE ENERGY PREDICTED BY IDOCK:   -1.20 KCAL/MOL
REMARK 922        TOTAL FREE ENERGY PREDICTED BY IDOCK:   -2.20 KCAL/MOL
REMARK 923 INTER-LIGAND FREE ENERGY PREDICTED BY IDOCK:   -2.01 KCAL/MOL
REMARK 924 INTRA-LIGAND FREE ENERGY PREDICTED BY IDOCK:   -0.19 KCAL/MOL
REMARK 927      BINDING AFFINITY PREDICTED BY RF-SCORE:    0.00 PKD
ROOT
HETATM    1  N   UNL     1      -9.837  14.627  66.487  1.00  0.00    -0.263 NA 
HETATM    2  H2  UNL     1      -9.026  14.730  65.876  1.00  0.00     0.000 HD 
HETATM    3  C   UNL     1     -10.620  13.441  66.128  1.00  0.00    -0.292 C  
HETATM    4  H1  UNL     1     -10.399  15.478  66.496  1.00  0.00     0.000 HD 
ENDROOT
BRANCH   3   5
HETATM    5  C   UNL     1      -9.771  12.156  66.114  1.00  0.00    -0.240 C  
BRANCH   5   6
HETATM    6  N   UNL     1     -10.446  11.073  65.390  1.00  0.00    -0.261 NA 
HETATM    7  H   UNL     1     -10.653  11.338  64.428  1.00  0.00     0.000 HD 
BRANCH   6   8
HETATM    8  C   UNL     1      -9.671   9.826  65.451  1.00  0.00    -0.313 C  
BRANCH   8   9
HETATM    9  C   UNL     1     -10.157   8.940  66.615  1.00  0.00    -0.287 C  
BRANCH   9  10
HETATM   10  N   UNL     1      -9.200   8.939  67.736  1.00  0.00    -0.140 NA 
HETATM   11  H   UNL     1      -9.228   8.064  68.260  1.00  0.00     0.000 HD 
BRANCH  10  12
HETATM   12  C   UNL     1      -7.846   9.246  67.248  1.00  0.00    -0.099 C  
BRANCH  12  13
HETATM   13  C   UNL     1      -6.869   8.089  67.532  1.00  0.00    -0.070 C  
HETATM   14  N   UNL     1      -6.056   8.324  68.731  1.00  0.00    -0.043 NA 
HETATM   15  H1  UNL     1      -5.410   7.558  68.919  1.00  0.00     0.000 HD 
HETATM   16  H2  UNL     1      -6.645   8.517  69.541  1.00  0.00     0.000 HD 
ENDBRANCH  12  13
ENDBRANCH  10  12
ENDBRANCH   9  10
ENDBRANCH   8   9
ENDBRANCH   6   8
ENDBRANCH   5   6
ENDBRANCH   3   5
TORSDOF 7
ENDMDL
MODEL      282
REMARK 921   NORMALIZED FREE ENERGY PREDICTED BY IDOCK:   -1.09 KCAL/MOL
REMARK 922        TOTAL FREE ENERGY PREDICTED BY IDOCK:   -2.04 KCAL/MOL
REMARK 923 INTER-LIGAND FREE ENERGY PREDICTED BY IDOCK:   -1.68 KCAL/MOL
REMARK 924 INTRA-LIGAND FREE ENERGY PREDICTED BY IDOCK:   -0.37 KCAL/MOL
REMARK 927      BINDING AFFINITY PREDICTED BY RF-SCORE:    0.00 PKD
ROOT
HETATM    1  N   UNL     1     -11.366   2.015  63.459  1.00  0.00    -0.600 NA 
HETATM    2  H2  UNL     1     -11.310   2.775  62.782  1.00  0.00     0.000 HD 
HETATM    3  C   UNL     1     -10.075   1.802  64.120  1.00  0.00     0.025 C  
HETATM    4  H1  UNL     1     -11.729   1.165  63.028  1.00  0.00     0.000 HD 
ENDROOT
BRANCH   3   5
HETATM    5  C   UNL     1      -9.527   3.085  64.771  1.00  0.00    -0.143 C  
BRANCH   5   6
HETATM    6  N   UNL     1      -9.769   3.100  66.218  1.00  0.00    -0.404 NA 
HETATM    7  H   UNL     1     -10.739   2.876  66.437  1.00  0.00     0.000 HD 
BRANCH   6   8
HETATM    8  C   UNL     1      -8.837   2.211  66.924  1.00  0.00    -0.133 C  
BRANCH   8   9
HETATM    9  C   UNL     1      -7.418   2.814  66.942  1.00  0.00    -0.070 C  
BRANCH   9  10
HETATM   10  N   UNL     1      -7.453   4.283  67.057  1.00  0.00    -0.077 NA 
HETATM   11  H   UNL     1      -8.318   4.675  66.682  1.00  0.00     0.000 HD 
BRANCH  10  12
HETATM   12  C   UNL     1      -7.225   4.689  68.454  1.00  0.00    -0.064 C  
BRANCH  12  13
HETATM   13  C   UNL     1      -8.294   5.691  68.930  1.00  0.00    -0.103 C  
HETATM   14  N   UNL     1      -9.438   5.767  68.014  1.00  0.00    -0.109 NA 
HETATM   15  H1  UNL     1     -10.146   6.430  68.330  1.00  0.00     0.000 HD 
HETATM   16  H2  UNL     1      -9.843   4.844  67.856  1.00  0.00     0.000 HD 
ENDBRANCH  12  13
ENDBRANCH  10  12
ENDBRANCH   9  10
ENDBRANCH   8   9
ENDBRANCH   6   8
ENDBRANCH   5   6
ENDBRANCH   3   5
TORSDOF 7
ENDMDL
MODEL      283
REMARK 921   NORMALIZED FREE ENERGY PREDICTED BY IDOCK:   -1.09 KCAL/MOL
REMARK 922        TOTAL FREE ENERGY PREDICTED BY IDOCK:   -2.04 KCAL/MOL
REMARK 923 INTER-LIGAND FREE ENERGY PREDICTED BY IDOCK:   -1.88 KCAL/MOL
REMARK 924 INTRA-LIGAND FREE ENERGY PREDICTED BY IDOCK:   -0.17 KCAL/MOL
REMARK 927      BINDING AFFINITY PREDICTED BY RF-SCORE:    0.00 PKD
ROOT
HETATM    1  N   UNL     1      -6.897  11.788  68.616  1.00  0.00    -0.075 NA 
HETATM    2  H2  UNL     1      -6.988  12.434  69.400  1.00  0.00     0.000 HD 
HETATM    3  C   UNL     1      -6.931  10.396  69.073  1.00  0.00    -0.071 C  
HETATM    4  H1  UNL     1      -6.065  11.998  68.064  1.00  0.00     0.000 HD 
ENDROOT
BRANCH   3   5
HETATM    5  C   UNL     1      -8.186  10.079  69.907  1.00  0.00    -0.159 C  
BRANCH   5   6
HETATM    6  N   UNL     1      -8.577   8.671  69.777  1.00  0.00    -0.128 NA 
HETATM    7  H   UNL     1      -8.401   8.153  70.638  1.00  0.00     0.000 HD 
BRANCH   6   8
HETATM    8  C   UNL     1      -9.976   8.543  69.347  1.00  0.00    -0.194 C  
BRANCH   8   9
HETATM    9  C   UNL     1     -10.059   8.345  67.820  1.00  0.00    -0.207 C  
BRANCH   9  10
HETATM   10  N   UNL     1     -10.442   9.589  67.129  1.00  0.00    -0.260 NA 
HETATM   11  H   UNL     1     -11.045   9.409  66.326  1.00  0.00     0.000 HD 
BRANCH  10  12
HETATM   12  C   UNL     1     -11.057  10.530  68.080  1.00  0.00    -0.300 C  
BRANCH  12  13
HETATM   13  C   UNL     1     -10.806  11.992  67.667  1.00  0.00    -0.231 C  
HETATM   14  N   UNL     1     -11.095  12.937  68.752  1.00  0.00    -0.253 NA 
HETATM   15  H1  UNL     1     -10.928  13.906  68.480  1.00  0.00     0.000 HD 
HETATM   16  H2  UNL     1     -10.573  12.698  69.596  1.00  0.00     0.000 HD 
ENDBRANCH  12  13
ENDBRANCH  10  12
ENDBRANCH   9  10
ENDBRANCH   8   9
ENDBRANCH   6   8
ENDBRANCH   5   6
ENDBRANCH   3   5
TORSDOF 7
ENDMDL
MODEL      284
REMARK 921   NORMALIZED FREE ENERGY PREDICTED BY IDOCK:   -1.08 KCAL/MOL
REMARK 922        TOTAL FREE ENERGY PREDICTED BY IDOCK:   -2.03 KCAL/MOL
REMARK 923 INTER-LIGAND FREE ENERGY PREDICTED BY IDOCK:   -1.91 KCAL/MOL
REMARK 924 INTRA-LIGAND FREE ENERGY PREDICTED BY IDOCK:   -0.12 KCAL/MOL
REMARK 927      BINDING AFFINITY PREDICTED BY RF-SCORE:    0.00 PKD
ROOT
HETATM    1  N   UNL     1      -6.033   7.978  67.816  1.00  0.00    -0.045 NA 
HETATM    2  H2  UNL     1      -6.644   7.719  68.591  1.00  0.00     0.000 HD 
HETATM    3  C   UNL     1      -6.806   8.219  66.594  1.00  0.00    -0.068 C  
HETATM    4  H1  UNL     1      -5.297   7.286  67.683  1.00  0.00     0.000 HD 
ENDROOT
BRANCH   3   5
HETATM    5  C   UNL     1      -7.918   9.263  66.795  1.00  0.00    -0.108 C  
BRANCH   5   6
HETATM    6  N   UNL     1      -9.152   8.646  67.294  1.00  0.00    -0.131 NA 
HETATM    7  H   UNL     1      -9.980   9.093  66.902  1.00  0.00     0.000 HD 
BRANCH   6   8
HETATM    8  C   UNL     1      -9.158   7.196  67.056  1.00  0.00    -0.134 C  
BRANCH   8   9
HETATM    9  C   UNL     1      -9.713   6.446  68.282  1.00  0.00    -0.127 C  
BRANCH   9  10
HETATM   10  N   UNL     1     -11.131   6.768  68.521  1.00  0.00    -0.502 NA 
HETATM   11  H   UNL     1     -11.756   6.126  68.032  1.00  0.00     0.000 HD 
BRANCH  10  12
HETATM   12  C   UNL     1     -11.406   6.809  69.967  1.00  0.00    -0.342 C  
BRANCH  12  13
HETATM   13  C   UNL     1     -10.880   8.110  70.604  1.00  0.00    -0.233 C  
HETATM   14  N   UNL     1     -10.527   7.938  72.018  1.00  0.00    -0.218 NA 
HETATM   15  H1  UNL     1     -10.179   8.798  72.439  1.00  0.00     0.000 HD 
HETATM   16  H2  UNL     1      -9.863   7.173  72.140  1.00  0.00     0.000 HD 
ENDBRANCH  12  13
ENDBRANCH  10  12
ENDBRANCH   9  10
ENDBRANCH   8   9
ENDBRANCH   6   8
ENDBRANCH   5   6
ENDBRANCH   3   5
TORSDOF 7
ENDMDL
MODEL      285
REMARK 921   NORMALIZED FREE ENERGY PREDICTED BY IDOCK:   -1.04 KCAL/MOL
REMARK 922        TOTAL FREE ENERGY PREDICTED BY IDOCK:   -1.98 KCAL/MOL
REMARK 923 INTER-LIGAND FREE ENERGY PREDICTED BY IDOCK:   -2.04 KCAL/MOL
REMARK 924 INTRA-LIGAND FREE ENERGY PREDICTED BY IDOCK:    0.06 KCAL/MOL
REMARK 927      BINDING AFFINITY PREDICTED BY RF-SCORE:    0.00 PKD
ROOT
HETATM    1  N   UNL     1      -7.274   6.895  67.328  1.00  0.00    -0.087 NA 
HETATM    2  H2  UNL     1      -6.528   6.740  68.007  1.00  0.00     0.000 HD 
HETATM    3  C   UNL     1      -8.569   6.457  67.859  1.00  0.00    -0.116 C  
HETATM    4  H1  UNL     1      -7.052   6.459  66.433  1.00  0.00     0.000 HD 
ENDROOT
BRANCH   3   5
HETATM    5  C   UNL     1      -8.905   7.114  69.210  1.00  0.00    -0.136 C  
BRANCH   5   6
HETATM    6  N   UNL     1      -9.851   8.224  69.049  1.00  0.00    -0.172 NA 
HETATM    7  H   UNL     1      -9.753   8.911  69.796  1.00  0.00     0.000 HD 
BRANCH   6   8
HETATM    8  C   UNL     1      -9.722   8.846  67.723  1.00  0.00    -0.160 C  
BRANCH   8   9
HETATM    9  C   UNL     1     -10.853   9.866  67.490  1.00  0.00    -0.243 C  
BRANCH   9  10
HETATM   10  N   UNL     1     -10.346  11.250  67.486  1.00  0.00    -0.188 NA 
HETATM   11  H   UNL     1     -10.890  11.854  66.868  1.00  0.00     0.000 HD 
BRANCH  10  12
HETATM   12  C   UNL     1     -10.292  11.775  68.860  1.00  0.00    -0.128 C  
BRANCH  12  13
HETATM   13  C   UNL     1     -11.624  11.551  69.602  1.00  0.00    -0.333 C  
HETATM   14  N   UNL     1     -12.059  12.740  70.343  1.00  0.00    -0.472 NA 
HETATM   15  H1  UNL     1     -12.940  12.592  70.834  1.00  0.00     0.000 HD 
HETATM   16  H2  UNL     1     -12.110  13.555  69.732  1.00  0.00     0.000 HD 
ENDBRANCH  12  13
ENDBRANCH  10  12
ENDBRANCH   9  10
ENDBRANCH   8   9
ENDBRANCH   6   8
ENDBRANCH   5   6
ENDBRANCH   3   5
TORSDOF 7
ENDMDL
MODEL      286
REMARK 921   NORMALIZED FREE ENERGY PREDICTED BY IDOCK:   -0.99 KCAL/MOL
REMARK 922        TOTAL FREE ENERGY PREDICTED BY IDOCK:   -1.90 KCAL/MOL
REMARK 923 INTER-LIGAND FREE ENERGY PREDICTED BY IDOCK:   -1.72 KCAL/MOL
REMARK 924 INTRA-LIGAND FREE ENERGY PREDICTED BY IDOCK:   -0.17 KCAL/MOL
REMARK 927      BINDING AFFINITY PREDICTED BY RF-SCORE:    0.00 PKD
ROOT
HETATM    1  N   UNL     1      -6.770   3.892  73.910  1.00  0.00    -0.047 NA 
HETATM    2  H2  UNL     1      -6.751   3.073  73.301  1.00  0.00     0.000 HD 
HETATM    3  C   UNL     1      -7.138   5.097  73.162  1.00  0.00    -0.085 C  
HETATM    4  H1  UNL     1      -5.887   3.997  74.410  1.00  0.00     0.000 HD 
ENDROOT
BRANCH   3   5
HETATM    5  C   UNL     1      -8.471   4.938  72.407  1.00  0.00    -0.120 C  
BRANCH   5   6
HETATM    6  N   UNL     1      -9.139   6.230  72.217  1.00  0.00    -0.141 NA 
HETATM    7  H   UNL     1      -9.018   6.837  73.027  1.00  0.00     0.000 HD 
BRANCH   6   8
HETATM    8  C   UNL     1      -8.692   6.886  70.980  1.00  0.00    -0.136 C  
BRANCH   8   9
HETATM    9  C   UNL     1      -7.936   8.190  71.299  1.00  0.00    -0.099 C  
BRANCH   9  10
HETATM   10  N   UNL     1      -8.762   9.380  71.026  1.00  0.00    -0.296 NA 
HETATM   11  H   UNL     1      -8.265  10.246  71.239  1.00  0.00     0.000 HD 
BRANCH  10  12
HETATM   12  C   UNL     1      -9.250   9.352  69.637  1.00  0.00    -0.185 C  
BRANCH  12  13
HETATM   13  C   UNL     1     -10.715   9.816  69.545  1.00  0.00    -0.233 C  
HETATM   14  N   UNL     1     -11.206  10.374  70.811  1.00  0.00    -0.381 NA 
HETATM   15  H1  UNL     1     -12.176  10.682  70.750  1.00  0.00     0.000 HD 
HETATM   16  H2  UNL     1     -10.601  11.127  71.139  1.00  0.00     0.000 HD 
ENDBRANCH  12  13
ENDBRANCH  10  12
ENDBRANCH   9  10
ENDBRANCH   8   9
ENDBRANCH   6   8
ENDBRANCH   5   6
ENDBRANCH   3   5
TORSDOF 7
ENDMDL
MODEL      287
REMARK 921   NORMALIZED FREE ENERGY PREDICTED BY IDOCK:   -0.98 KCAL/MOL
REMARK 922        TOTAL FREE ENERGY PREDICTED BY IDOCK:   -1.88 KCAL/MOL
REMARK 923 INTER-LIGAND FREE ENERGY PREDICTED BY IDOCK:   -1.80 KCAL/MOL
REMARK 924 INTRA-LIGAND FREE ENERGY PREDICTED BY IDOCK:   -0.09 KCAL/MOL
REMARK 927      BINDING AFFINITY PREDICTED BY RF-SCORE:    0.00 PKD
ROOT
HETATM    1  N   UNL     1     -13.088   6.649  71.673  1.00  0.00    -0.252 NA 
HETATM    2  H2  UNL     1     -12.901   5.685  71.397  1.00  0.00     0.000 HD 
HETATM    3  C   UNL     1     -11.967   7.207  72.434  1.00  0.00    -0.142 C  
HETATM    4  H1  UNL     1     -13.974   6.721  72.173  1.00  0.00     0.000 HD 
ENDROOT
BRANCH   3   5
HETATM    5  C   UNL     1     -10.629   7.096  71.679  1.00  0.00    -0.207 C  
BRANCH   5   6
HETATM    6  N   UNL     1     -10.777   7.461  70.266  1.00  0.00    -0.232 NA 
HETATM    7  H   UNL     1     -11.682   7.894  70.083  1.00  0.00     0.000 HD 
BRANCH   6   8
HETATM    8  C   UNL     1      -9.670   8.316  69.816  1.00  0.00    -0.180 C  
BRANCH   8   9
HETATM    9  C   UNL     1     -10.069   9.103  68.552  1.00  0.00    -0.191 C  
BRANCH   9  10
HETATM   10  N   UNL     1      -8.909   9.774  67.940  1.00  0.00    -0.122 NA 
HETATM   11  H   UNL     1      -8.153   9.119  67.737  1.00  0.00     0.000 HD 
BRANCH  10  12
HETATM   12  C   UNL     1      -9.327  10.519  66.740  1.00  0.00    -0.157 C  
BRANCH  12  13
HETATM   13  C   UNL     1      -8.253  10.462  65.638  1.00  0.00    -0.158 C  
HETATM   14  N   UNL     1      -8.472   9.355  64.700  1.00  0.00    -0.156 NA 
HETATM   15  H1  UNL     1      -7.760   9.317  63.971  1.00  0.00     0.000 HD 
HETATM   16  H2  UNL     1      -9.408   9.393  64.299  1.00  0.00     0.000 HD 
ENDBRANCH  12  13
ENDBRANCH  10  12
ENDBRANCH   9  10
ENDBRANCH   8   9
ENDBRANCH   6   8
ENDBRANCH   5   6
ENDBRANCH   3   5
TORSDOF 7
ENDMDL
MODEL      288
REMARK 921   NORMALIZED FREE ENERGY PREDICTED BY IDOCK:   -0.95 KCAL/MOL
REMARK 922        TOTAL FREE ENERGY PREDICTED BY IDOCK:   -1.85 KCAL/MOL
REMARK 923 INTER-LIGAND FREE ENERGY PREDICTED BY IDOCK:   -1.65 KCAL/MOL
REMARK 924 INTRA-LIGAND FREE ENERGY PREDICTED BY IDOCK:   -0.20 KCAL/MOL
REMARK 927      BINDING AFFINITY PREDICTED BY RF-SCORE:    0.00 PKD
ROOT
HETATM    1  N   UNL     1     -11.059   2.051  63.361  1.00  0.00    -0.423 NA 
HETATM    2  H2  UNL     1     -11.063   2.720  62.590  1.00  0.00     0.000 HD 
HETATM    3  C   UNL     1      -9.728   1.954  63.968  1.00  0.00    -0.130 C  
HETATM    4  H1  UNL     1     -11.419   1.145  63.061  1.00  0.00     0.000 HD 
ENDROOT
BRANCH   3   5
HETATM    5  C   UNL     1      -9.184   3.322  64.419  1.00  0.00    -0.134 C  
BRANCH   5   6
HETATM    6  N   UNL     1      -7.990   3.704  63.657  1.00  0.00    -0.086 NA 
HETATM    7  H   UNL     1      -7.336   2.927  63.571  1.00  0.00     0.000 HD 
BRANCH   6   8
HETATM    8  C   UNL     1      -8.350   4.255  62.342  1.00  0.00    -0.079 C  
BRANCH   8   9
HETATM    9  C   UNL     1      -8.967   5.659  62.492  1.00  0.00     0.199 C  
BRANCH   9  10
HETATM   10  N   UNL     1      -8.146   6.526  63.356  1.00  0.00    -0.268 NA 
HETATM   11  H   UNL     1      -7.456   5.992  63.886  1.00  0.00     0.000 HD 
BRANCH  10  12
HETATM   12  C   UNL     1      -7.522   7.595  62.559  1.00  0.00    -0.100 C  
BRANCH  12  13
HETATM   13  C   UNL     1      -8.351   8.892  62.609  1.00  0.00    -0.203 C  
HETATM   14  N   UNL     1      -8.986   9.101  63.916  1.00  0.00    -0.426 NA 
HETATM   15  H1  UNL     1      -9.534   9.960  63.949  1.00  0.00     0.000 HD 
HETATM   16  H2  UNL     1      -8.296   9.076  64.667  1.00  0.00     0.000 HD 
ENDBRANCH  12  13
ENDBRANCH  10  12
ENDBRANCH   9  10
ENDBRANCH   8   9
ENDBRANCH   6   8
ENDBRANCH   5   6
ENDBRANCH   3   5
TORSDOF 7
ENDMDL
MODEL      289
REMARK 921   NORMALIZED FREE ENERGY PREDICTED BY IDOCK:   -0.95 KCAL/MOL
REMARK 922        TOTAL FREE ENERGY PREDICTED BY IDOCK:   -1.84 KCAL/MOL
REMARK 923 INTER-LIGAND FREE ENERGY PREDICTED BY IDOCK:   -1.63 KCAL/MOL
REMARK 924 INTRA-LIGAND FREE ENERGY PREDICTED BY IDOCK:   -0.21 KCAL/MOL
REMARK 927      BINDING AFFINITY PREDICTED BY RF-SCORE:    0.00 PKD
ROOT
HETATM    1  N   UNL     1      -8.469   7.767  63.909  1.00  0.00    -0.369 NA 
HETATM    2  H2  UNL     1      -9.199   8.268  64.415  1.00  0.00     0.000 HD 
HETATM    3  C   UNL     1      -7.778   6.816  64.784  1.00  0.00    -0.111 C  
HETATM    4  H1  UNL     1      -7.827   8.416  63.453  1.00  0.00     0.000 HD 
ENDROOT
BRANCH   3   5
HETATM    5  C   UNL     1      -8.746   5.837  65.473  1.00  0.00    -0.138 C  
BRANCH   5   6
HETATM    6  N   UNL     1      -8.959   6.192  66.881  1.00  0.00    -0.116 NA 
HETATM    7  H   UNL     1      -9.110   5.364  67.457  1.00  0.00     0.000 HD 
BRANCH   6   8
HETATM    8  C   UNL     1      -7.855   7.013  67.396  1.00  0.00    -0.111 C  
BRANCH   8   9
HETATM    9  C   UNL     1      -8.094   7.378  68.875  1.00  0.00    -0.127 C  
BRANCH   9  10
HETATM   10  N   UNL     1      -9.490   7.780  69.119  1.00  0.00    -0.151 NA 
HETATM   11  H   UNL     1     -10.141   7.287  68.506  1.00  0.00     0.000 HD 
BRANCH  10  12
HETATM   12  C   UNL     1      -9.830   7.601  70.540  1.00  0.00    -0.183 C  
BRANCH  12  13
HETATM   13  C   UNL     1      -9.564   6.157  71.005  1.00  0.00    -0.175 C  
HETATM   14  N   UNL     1      -9.350   6.067  72.454  1.00  0.00    -0.146 NA 
HETATM   15  H1  UNL     1      -9.174   5.111  72.763  1.00  0.00     0.000 HD 
HETATM   16  H2  UNL     1     -10.128   6.481  72.967  1.00  0.00     0.000 HD 
ENDBRANCH  12  13
ENDBRANCH  10  12
ENDBRANCH   9  10
ENDBRANCH   8   9
ENDBRANCH   6   8
ENDBRANCH   5   6
ENDBRANCH   3   5
TORSDOF 7
ENDMDL
MODEL      290
REMARK 921   NORMALIZED FREE ENERGY PREDICTED BY IDOCK:   -0.94 KCAL/MOL
REMARK 922        TOTAL FREE ENERGY PREDICTED BY IDOCK:   -1.84 KCAL/MOL
REMARK 923 INTER-LIGAND FREE ENERGY PREDICTED BY IDOCK:   -1.72 KCAL/MOL
REMARK 924 INTRA-LIGAND FREE ENERGY PREDICTED BY IDOCK:   -0.11 KCAL/MOL
REMARK 927      BINDING AFFINITY PREDICTED BY RF-SCORE:    0.00 PKD
ROOT
HETATM    1  N   UNL     1      -7.594   3.306  72.946  1.00  0.00    -0.054 NA 
HETATM    2  H2  UNL     1      -8.394   2.692  72.791  1.00  0.00     0.000 HD 
HETATM    3  C   UNL     1      -8.023   4.695  73.131  1.00  0.00    -0.100 C  
HETATM    4  H1  UNL     1      -6.906   3.206  72.199  1.00  0.00     0.000 HD 
ENDROOT
BRANCH   3   5
HETATM    5  C   UNL     1      -9.062   4.847  74.257  1.00  0.00    -0.111 C  
BRANCH   5   6
HETATM    6  N   UNL     1      -9.731   6.151  74.200  1.00  0.00    -0.188 NA 
HETATM    7  H   UNL     1      -9.058   6.916  74.153  1.00  0.00     0.000 HD 
BRANCH   6   8
HETATM    8  C   UNL     1     -10.691   6.210  73.089  1.00  0.00    -0.260 C  
BRANCH   8   9
HETATM    9  C   UNL     1     -10.475   7.485  72.250  1.00  0.00    -0.230 C  
BRANCH   9  10
HETATM   10  N   UNL     1     -10.691   7.235  70.814  1.00  0.00    -0.228 NA 
HETATM   11  H   UNL     1     -11.669   7.027  70.606  1.00  0.00     0.000 HD 
BRANCH  10  12
HETATM   12  C   UNL     1     -10.189   8.368  70.019  1.00  0.00    -0.202 C  
BRANCH  12  13
HETATM   13  C   UNL     1      -9.255   9.269  70.850  1.00  0.00    -0.233 C  
HETATM   14  N   UNL     1      -7.837   8.977  70.611  1.00  0.00    -0.117 NA 
HETATM   15  H1  UNL     1      -7.219   9.573  71.161  1.00  0.00     0.000 HD 
HETATM   16  H2  UNL     1      -7.613   9.032  69.617  1.00  0.00     0.000 HD 
ENDBRANCH  12  13
ENDBRANCH  10  12
ENDBRANCH   9  10
ENDBRANCH   8   9
ENDBRANCH   6   8
ENDBRANCH   5   6
ENDBRANCH   3   5
TORSDOF 7
ENDMDL
MODEL      291
REMARK 921   NORMALIZED FREE ENERGY PREDICTED BY IDOCK:   -0.91 KCAL/MOL
REMARK 922        TOTAL FREE ENERGY PREDICTED BY IDOCK:   -1.79 KCAL/MOL
REMARK 923 INTER-LIGAND FREE ENERGY PREDICTED BY IDOCK:   -1.63 KCAL/MOL
REMARK 924 INTRA-LIGAND FREE ENERGY PREDICTED BY IDOCK:   -0.16 KCAL/MOL
REMARK 927      BINDING AFFINITY PREDICTED BY RF-SCORE:    0.00 PKD
ROOT
HETATM    1  N   UNL     1      -6.352   4.506  69.645  1.00  0.00    -0.027 NA 
HETATM    2  H2  UNL     1      -5.986   4.940  68.797  1.00  0.00     0.000 HD 
HETATM    3  C   UNL     1      -7.265   5.411  70.349  1.00  0.00    -0.063 C  
HETATM    4  H1  UNL     1      -5.596   4.171  70.242  1.00  0.00     0.000 HD 
ENDROOT
BRANCH   3   5
HETATM    5  C   UNL     1      -8.406   5.917  69.447  1.00  0.00    -0.114 C  
BRANCH   5   6
HETATM    6  N   UNL     1      -8.401   7.381  69.343  1.00  0.00    -0.131 NA 
HETATM    7  H   UNL     1      -8.219   7.819  70.245  1.00  0.00     0.000 HD 
BRANCH   6   8
HETATM    8  C   UNL     1      -7.453   7.840  68.319  1.00  0.00    -0.104 C  
BRANCH   8   9
HETATM    9  C   UNL     1      -8.010   9.068  67.573  1.00  0.00    -0.101 C  
BRANCH   9  10
HETATM   10  N   UNL     1      -9.313   8.780  66.947  1.00  0.00    -0.157 NA 
HETATM   11  H   UNL     1     -10.089   9.162  67.489  1.00  0.00     0.000 HD 
BRANCH  10  12
HETATM   12  C   UNL     1      -9.325   9.259  65.555  1.00  0.00    -0.238 C  
BRANCH  12  13
HETATM   13  C   UNL     1     -10.027  10.625  65.436  1.00  0.00    -0.281 C  
HETATM   14  N   UNL     1      -9.105  11.695  65.040  1.00  0.00    -0.412 NA 
HETATM   15  H1  UNL     1      -9.569  12.600  64.961  1.00  0.00     0.000 HD 
HETATM   16  H2  UNL     1      -8.614  11.457  64.178  1.00  0.00     0.000 HD 
ENDBRANCH  12  13
ENDBRANCH  10  12
ENDBRANCH   9  10
ENDBRANCH   8   9
ENDBRANCH   6   8
ENDBRANCH   5   6
ENDBRANCH   3   5
TORSDOF 7
ENDMDL
MODEL      292
REMARK 921   NORMALIZED FREE ENERGY PREDICTED BY IDOCK:   -0.90 KCAL/MOL
REMARK 922        TOTAL FREE ENERGY PREDICTED BY IDOCK:   -1.77 KCAL/MOL
REMARK 923 INTER-LIGAND FREE ENERGY PREDICTED BY IDOCK:   -1.72 KCAL/MOL
REMARK 924 INTRA-LIGAND FREE ENERGY PREDICTED BY IDOCK:   -0.06 KCAL/MOL
REMARK 927      BINDING AFFINITY PREDICTED BY RF-SCORE:    0.00 PKD
ROOT
HETATM    1  N   UNL     1      -6.990   7.880  66.486  1.00  0.00    -0.070 NA 
HETATM    2  H2  UNL     1      -7.532   7.193  67.010  1.00  0.00     0.000 HD 
HETATM    3  C   UNL     1      -6.931   9.160  67.198  1.00  0.00    -0.081 C  
HETATM    4  H1  UNL     1      -7.344   7.979  65.535  1.00  0.00     0.000 HD 
ENDROOT
BRANCH   3   5
HETATM    5  C   UNL     1      -6.397   9.012  68.635  1.00  0.00    -0.053 C  
BRANCH   5   6
HETATM    6  N   UNL     1      -7.095   9.908  69.563  1.00  0.00    -0.071 NA 
HETATM    7  H   UNL     1      -6.896  10.887  69.359  1.00  0.00     0.000 HD 
BRANCH   6   8
HETATM    8  C   UNL     1      -8.540   9.643  69.577  1.00  0.00    -0.172 C  
BRANCH   8   9
HETATM    9  C   UNL     1      -8.946   8.906  70.868  1.00  0.00    -0.222 C  
BRANCH   9  10
HETATM   10  N   UNL     1     -10.320   9.244  71.280  1.00  0.00    -0.325 NA 
HETATM   11  H   UNL     1     -10.852   9.668  70.519  1.00  0.00     0.000 HD 
BRANCH  10  12
HETATM   12  C   UNL     1     -10.994   8.055  71.826  1.00  0.00    -0.251 C  
BRANCH  12  13
HETATM   13  C   UNL     1     -11.073   6.923  70.784  1.00  0.00    -0.275 C  
HETATM   14  N   UNL     1     -10.157   5.817  71.089  1.00  0.00    -0.195 NA 
HETATM   15  H1  UNL     1     -10.209   5.068  70.400  1.00  0.00     0.000 HD 
HETATM   16  H2  UNL     1     -10.314   5.461  72.032  1.00  0.00     0.000 HD 
ENDBRANCH  12  13
ENDBRANCH  10  12
ENDBRANCH   9  10
ENDBRANCH   8   9
ENDBRANCH   6   8
ENDBRANCH   5   6
ENDBRANCH   3   5
TORSDOF 7
ENDMDL
MODEL      293
REMARK 921   NORMALIZED FREE ENERGY PREDICTED BY IDOCK:   -0.87 KCAL/MOL
REMARK 922        TOTAL FREE ENERGY PREDICTED BY IDOCK:   -1.73 KCAL/MOL
REMARK 923 INTER-LIGAND FREE ENERGY PREDICTED BY IDOCK:   -1.55 KCAL/MOL
REMARK 924 INTRA-LIGAND FREE ENERGY PREDICTED BY IDOCK:   -0.18 KCAL/MOL
REMARK 927      BINDING AFFINITY PREDICTED BY RF-SCORE:    0.00 PKD
ROOT
HETATM    1  N   UNL     1      -5.818   4.342  69.845  1.00  0.00    -0.017 NA 
HETATM    2  H2  UNL     1      -5.693   4.377  68.833  1.00  0.00     0.000 HD 
HETATM    3  C   UNL     1      -7.017   5.079  70.255  1.00  0.00    -0.052 C  
HETATM    4  H1  UNL     1      -4.978   4.662  70.329  1.00  0.00     0.000 HD 
ENDROOT
BRANCH   3   5
HETATM    5  C   UNL     1      -8.283   4.597  69.524  1.00  0.00    -0.068 C  
BRANCH   5   6
HETATM    6  N   UNL     1      -8.171   4.782  68.073  1.00  0.00    -0.095 NA 
HETATM    7  H   UNL     1      -7.265   4.468  67.725  1.00  0.00     0.000 HD 
BRANCH   6   8
HETATM    8  C   UNL     1      -9.278   4.125  67.364  1.00  0.00    -0.157 C  
BRANCH   8   9
HETATM    9  C   UNL     1     -10.391   5.139  67.037  1.00  0.00    -0.217 C  
BRANCH   9  10
HETATM   10  N   UNL     1      -9.878   6.279  66.257  1.00  0.00    -0.369 NA 
HETATM   11  H   UNL     1     -10.190   6.247  65.285  1.00  0.00     0.000 HD 
BRANCH  10  12
HETATM   12  C   UNL     1     -10.241   7.547  66.910  1.00  0.00    -0.289 C  
BRANCH  12  13
HETATM   13  C   UNL     1      -9.014   8.460  67.089  1.00  0.00    -0.137 C  
HETATM   14  N   UNL     1      -9.007   9.581  66.142  1.00  0.00    -0.150 NA 
HETATM   15  H1  UNL     1      -8.194  10.186  66.261  1.00  0.00     0.000 HD 
HETATM   16  H2  UNL     1      -9.874  10.115  66.199  1.00  0.00     0.000 HD 
ENDBRANCH  12  13
ENDBRANCH  10  12
ENDBRANCH   9  10
ENDBRANCH   8   9
ENDBRANCH   6   8
ENDBRANCH   5   6
ENDBRANCH   3   5
TORSDOF 7
ENDMDL
MODEL      294
REMARK 921   NORMALIZED FREE ENERGY PREDICTED BY IDOCK:   -0.85 KCAL/MOL
REMARK 922        TOTAL FREE ENERGY PREDICTED BY IDOCK:   -1.70 KCAL/MOL
REMARK 923 INTER-LIGAND FREE ENERGY PREDICTED BY IDOCK:   -1.53 KCAL/MOL
REMARK 924 INTRA-LIGAND FREE ENERGY PREDICTED BY IDOCK:   -0.17 KCAL/MOL
REMARK 927      BINDING AFFINITY PREDICTED BY RF-SCORE:    0.00 PKD
ROOT
HETATM    1  N   UNL     1     -13.088   6.649  71.673  1.00  0.00    -0.252 NA 
HETATM    2  H2  UNL     1     -12.901   5.685  71.397  1.00  0.00     0.000 HD 
HETATM    3  C   UNL     1     -11.967   7.207  72.434  1.00  0.00    -0.142 C  
HETATM    4  H1  UNL     1     -13.974   6.721  72.173  1.00  0.00     0.000 HD 
ENDROOT
BRANCH   3   5
HETATM    5  C   UNL     1     -10.629   7.096  71.679  1.00  0.00    -0.207 C  
BRANCH   5   6
HETATM    6  N   UNL     1     -10.777   7.461  70.266  1.00  0.00    -0.232 NA 
HETATM    7  H   UNL     1     -11.682   7.894  70.083  1.00  0.00     0.000 HD 
BRANCH   6   8
HETATM    8  C   UNL     1      -9.670   8.316  69.816  1.00  0.00    -0.180 C  
BRANCH   8   9
HETATM    9  C   UNL     1     -10.069   9.103  68.552  1.00  0.00    -0.191 C  
BRANCH   9  10
HETATM   10  N   UNL     1      -8.909   9.774  67.940  1.00  0.00    -0.122 NA 
HETATM   11  H   UNL     1      -8.545  10.522  68.532  1.00  0.00     0.000 HD 
BRANCH  10  12
HETATM   12  C   UNL     1      -7.871   8.787  67.600  1.00  0.00    -0.102 C  
BRANCH  12  13
HETATM   13  C   UNL     1      -6.457   9.355  67.826  1.00  0.00    -0.059 C  
HETATM   14  N   UNL     1      -5.937   9.046  69.163  1.00  0.00    -0.042 NA 
HETATM   15  H1  UNL     1      -5.001   9.422  69.313  1.00  0.00     0.000 HD 
HETATM   16  H2  UNL     1      -5.963   8.043  69.344  1.00  0.00     0.000 HD 
ENDBRANCH  12  13
ENDBRANCH  10  12
ENDBRANCH   9  10
ENDBRANCH   8   9
ENDBRANCH   6   8
ENDBRANCH   5   6
ENDBRANCH   3   5
TORSDOF 7
ENDMDL
MODEL      295
REMARK 921   NORMALIZED FREE ENERGY PREDICTED BY IDOCK:   -0.85 KCAL/MOL
REMARK 922        TOTAL FREE ENERGY PREDICTED BY IDOCK:   -1.70 KCAL/MOL
REMARK 923 INTER-LIGAND FREE ENERGY PREDICTED BY IDOCK:   -1.54 KCAL/MOL
REMARK 924 INTRA-LIGAND FREE ENERGY PREDICTED BY IDOCK:   -0.16 KCAL/MOL
REMARK 927      BINDING AFFINITY PREDICTED BY RF-SCORE:    0.00 PKD
ROOT
HETATM    1  N   UNL     1      -6.323   6.878  66.315  1.00  0.00    -0.048 NA 
HETATM    2  H2  UNL     1      -7.205   6.762  66.813  1.00  0.00     0.000 HD 
HETATM    3  C   UNL     1      -6.187   8.242  65.795  1.00  0.00    -0.052 C  
HETATM    4  H1  UNL     1      -6.217   6.170  65.588  1.00  0.00     0.000 HD 
ENDROOT
BRANCH   3   5
HETATM    5  C   UNL     1      -6.348   9.310  66.892  1.00  0.00    -0.066 C  
BRANCH   5   6
HETATM    6  N   UNL     1      -6.047  10.653  66.383  1.00  0.00    -0.088 NA 
HETATM    7  H   UNL     1      -5.525  10.614  65.508  1.00  0.00     0.000 HD 
BRANCH   6   8
HETATM    8  C   UNL     1      -7.270  11.458  66.246  1.00  0.00     0.075 C  
BRANCH   8   9
HETATM    9  C   UNL     1      -8.430  10.822  67.036  1.00  0.00    -0.128 C  
BRANCH   9  10
HETATM   10  N   UNL     1      -9.686  11.572  66.857  1.00  0.00    -0.185 NA 
HETATM   11  H   UNL     1      -9.519  12.572  66.740  1.00  0.00     0.000 HD 
BRANCH  10  12
HETATM   12  C   UNL     1     -10.459  11.009  65.737  1.00  0.00    -0.228 C  
BRANCH  12  13
HETATM   13  C   UNL     1     -10.560  12.004  64.566  1.00  0.00    -0.313 C  
HETATM   14  N   UNL     1     -10.188  11.397  63.282  1.00  0.00    -0.507 NA 
HETATM   15  H1  UNL     1     -10.255  12.056  62.507  1.00  0.00     0.000 HD 
HETATM   16  H2  UNL     1     -10.738  10.558  63.100  1.00  0.00     0.000 HD 
ENDBRANCH  12  13
ENDBRANCH  10  12
ENDBRANCH   9  10
ENDBRANCH   8   9
ENDBRANCH   6   8
ENDBRANCH   5   6
ENDBRANCH   3   5
TORSDOF 7
ENDMDL
MODEL      296
REMARK 921   NORMALIZED FREE ENERGY PREDICTED BY IDOCK:   -0.56 KCAL/MOL
REMARK 922        TOTAL FREE ENERGY PREDICTED BY IDOCK:   -1.30 KCAL/MOL
REMARK 923 INTER-LIGAND FREE ENERGY PREDICTED BY IDOCK:   -1.38 KCAL/MOL
REMARK 924 INTRA-LIGAND FREE ENERGY PREDICTED BY IDOCK:    0.08 KCAL/MOL
REMARK 927      BINDING AFFINITY PREDICTED BY RF-SCORE:    0.00 PKD
ROOT
HETATM    1  N   UNL     1      -6.833  11.804  68.482  1.00  0.00    -0.069 NA 
HETATM    2  H2  UNL     1      -7.423  12.123  69.251  1.00  0.00     0.000 HD 
HETATM    3  C   UNL     1      -6.848  10.342  68.379  1.00  0.00    -0.061 C  
HETATM    4  H1  UNL     1      -5.889  12.180  68.564  1.00  0.00     0.000 HD 
ENDROOT
BRANCH   3   5
HETATM    5  C   UNL     1      -8.274   9.774  68.257  1.00  0.00    -0.105 C  
BRANCH   5   6
HETATM    6  N   UNL     1      -8.267   8.419  67.693  1.00  0.00    -0.124 NA 
HETATM    7  H   UNL     1      -8.790   7.768  68.278  1.00  0.00     0.000 HD 
BRANCH   6   8
HETATM    8  C   UNL     1      -8.757   8.415  66.308  1.00  0.00    -0.142 C  
BRANCH   8   9
HETATM    9  C   UNL     1      -7.616   8.072  65.329  1.00  0.00    -0.085 C  
BRANCH   9  10
HETATM   10  N   UNL     1      -7.712   6.683  64.846  1.00  0.00    -0.102 NA 
HETATM   11  H   UNL     1      -6.792   6.276  64.670  1.00  0.00     0.000 HD 
BRANCH  10  12
HETATM   12  C   UNL     1      -8.501   5.871  65.787  1.00  0.00    -0.148 C  
BRANCH  12  13
HETATM   13  C   UNL     1      -9.033   4.590  65.117  1.00  0.00    -0.147 C  
HETATM   14  N   UNL     1     -10.032   3.900  65.942  1.00  0.00    -0.395 NA 
HETATM   15  H1  UNL     1     -10.384   3.052  65.498  1.00  0.00     0.000 HD 
HETATM   16  H2  UNL     1     -10.795   4.527  66.195  1.00  0.00     0.000 HD 
ENDBRANCH  12  13
ENDBRANCH  10  12
ENDBRANCH   9  10
ENDBRANCH   8   9
ENDBRANCH   6   8
ENDBRANCH   5   6
ENDBRANCH   3   5
TORSDOF 7
ENDMDL
