MODEL        1
REMARK 921   NORMALIZED FREE ENERGY PREDICTED BY IDOCK:   -7.56 KCAL/MOL
REMARK 922        TOTAL FREE ENERGY PREDICTED BY IDOCK:   -8.87 KCAL/MOL
REMARK 923 INTER-LIGAND FREE ENERGY PREDICTED BY IDOCK:   -8.44 KCAL/MOL
REMARK 924 INTRA-LIGAND FREE ENERGY PREDICTED BY IDOCK:   -0.43 KCAL/MOL
REMARK 927      BINDING AFFINITY PREDICTED BY RF-SCORE:    0.00 PKD
ROOT
HETATM    1  O5* UNL     1     -11.546  16.559  63.706  1.00  0.00    -1.617 OA 
HETATM    2  H5* UNL     1     -11.540  17.485  63.496  1.00  0.00     0.000 HD 
HETATM    3  C5* UNL     1     -10.796  16.286  64.889  1.00  0.00    -0.296 C  
ENDROOT
BRANCH   3   4
HETATM    4  C4* UNL     1     -10.807  14.796  65.227  1.00  0.00    -0.383 C  
HETATM    5  O4* UNL     1     -10.833  14.584  66.650  1.00  0.00    -0.300 OA 
HETATM    6  C1* UNL     1     -11.314  13.243  66.827  1.00  0.00    -0.327 C  
HETATM    7  C2* UNL     1     -12.365  13.031  65.741  1.00  0.00    -0.477 C  
HETATM    8  H3* UNL     1     -12.434  12.945  63.095  1.00  0.00     0.000 HD 
HETATM    9  O3* UNL     1     -11.682  13.411  63.441  1.00  0.00    -0.361 OA 
HETATM   10  C3* UNL     1     -12.016  14.048  64.671  1.00  0.00    -0.430 C  
BRANCH   6  11
HETATM   11  N   UNL     1     -11.793  13.013  68.189  1.00  0.00    -0.348 N  
HETATM   12  C   UNL     1     -12.040  14.057  69.064  1.00  0.00    -0.323 C  
HETATM   13  C   UNL     1     -12.579  14.989  71.302  1.00  0.00    -0.339 C  
HETATM   14  C   UNL     1     -12.357  13.870  70.354  1.00  0.00    -0.433 C  
HETATM   15  C   UNL     1     -12.450  12.491  70.846  1.00  0.00    -0.269 C  
HETATM   16  O   UNL     1     -12.665  12.201  72.016  1.00  0.00    -0.185 OA 
HETATM   17  N   UNL     1     -12.266  11.510  69.909  1.00  0.00    -0.279 N  
HETATM   18  F   UNL     1     -12.777  14.645  72.596  1.00  0.00    -0.367 F  
HETATM   19  F   UNL     1     -11.521  15.846  71.298  1.00  0.00    -0.347 F  
HETATM   20  F   UNL     1     -13.659  15.730  70.934  1.00  0.00    -0.546 F  
HETATM   21  C   UNL     1     -11.885  11.691  68.607  1.00  0.00    -0.308 C  
HETATM   22  H   UNL     1     -12.430  10.549  70.210  1.00  0.00     0.000 HD 
HETATM   23  O   UNL     1     -11.636  10.721  67.894  1.00  0.00    -0.504 OA 
ENDBRANCH   6  11
ENDBRANCH   3   4
TORSDOF 2
ENDMDL
MODEL        2
REMARK 921   NORMALIZED FREE ENERGY PREDICTED BY IDOCK:   -7.40 KCAL/MOL
REMARK 922        TOTAL FREE ENERGY PREDICTED BY IDOCK:   -8.69 KCAL/MOL
REMARK 923 INTER-LIGAND FREE ENERGY PREDICTED BY IDOCK:   -8.26 KCAL/MOL
REMARK 924 INTRA-LIGAND FREE ENERGY PREDICTED BY IDOCK:   -0.43 KCAL/MOL
REMARK 927      BINDING AFFINITY PREDICTED BY RF-SCORE:    0.00 PKD
ROOT
HETATM    1  O5* UNL     1     -11.365  12.050  70.074  1.00  0.00    -0.496 OA 
HETATM    2  H5* UNL     1     -11.219  12.124  71.010  1.00  0.00     0.000 HD 
HETATM    3  C5* UNL     1     -11.144  10.717  69.614  1.00  0.00    -0.279 C  
ENDROOT
BRANCH   3   4
HETATM    4  C4* UNL     1     -11.379  10.599  68.109  1.00  0.00    -0.284 C  
HETATM    5  O4* UNL     1     -11.789  11.857  67.544  1.00  0.00    -0.552 OA 
HETATM    6  C1* UNL     1     -11.515  11.753  66.139  1.00  0.00    -0.220 C  
HETATM    7  C2* UNL     1     -10.219  10.954  66.027  1.00  0.00    -0.311 C  
HETATM    8  H3* UNL     1      -9.391   8.505  66.599  1.00  0.00     0.000 HD 
HETATM    9  O3* UNL     1     -10.162   8.770  67.086  1.00  0.00    -0.227 OA 
HETATM   10  C3* UNL     1     -10.140  10.174  67.325  1.00  0.00    -0.206 C  
BRANCH   6  11
HETATM   11  N   UNL     1     -11.478  13.064  65.493  1.00  0.00    -0.311 N  
HETATM   12  C   UNL     1     -10.794  14.133  66.047  1.00  0.00    -0.297 C  
HETATM   13  C   UNL     1     -10.151  16.530  66.160  1.00  0.00    -0.348 C  
HETATM   14  C   UNL     1     -10.849  15.375  65.543  1.00  0.00    -0.384 C  
HETATM   15  C   UNL     1     -11.669  15.596  64.346  1.00  0.00    -0.218 C  
HETATM   16  O   UNL     1     -11.847  16.697  63.840  1.00  0.00    -1.047 OA 
HETATM   17  N   UNL     1     -12.256  14.481  63.812  1.00  0.00    -1.047 N  
HETATM   18  F   UNL     1     -10.394  17.741  65.607  1.00  0.00    -0.325 F  
HETATM   19  F   UNL     1     -10.477  16.645  67.477  1.00  0.00    -0.286 F  
HETATM   20  F   UNL     1      -8.802  16.356  66.125  1.00  0.00    -0.282 F  
HETATM   21  C   UNL     1     -12.254  13.223  64.352  1.00  0.00    -0.390 C  
HETATM   22  H   UNL     1     -12.743  14.599  62.923  1.00  0.00     0.000 HD 
HETATM   23  O   UNL     1     -12.920  12.327  63.837  1.00  0.00    -0.753 OA 
ENDBRANCH   6  11
ENDBRANCH   3   4
TORSDOF 2
ENDMDL
MODEL        3
REMARK 921   NORMALIZED FREE ENERGY PREDICTED BY IDOCK:   -7.11 KCAL/MOL
REMARK 922        TOTAL FREE ENERGY PREDICTED BY IDOCK:   -8.38 KCAL/MOL
REMARK 923 INTER-LIGAND FREE ENERGY PREDICTED BY IDOCK:   -7.83 KCAL/MOL
REMARK 924 INTRA-LIGAND FREE ENERGY PREDICTED BY IDOCK:   -0.55 KCAL/MOL
REMARK 927      BINDING AFFINITY PREDICTED BY RF-SCORE:    0.00 PKD
ROOT
HETATM    1  O5* UNL     1     -11.458  16.623  63.942  1.00  0.00    -1.604 OA 
HETATM    2  H5* UNL     1     -11.435  17.557  64.110  1.00  0.00     0.000 HD 
HETATM    3  C5* UNL     1     -10.824  15.887  64.987  1.00  0.00    -0.426 C  
ENDROOT
BRANCH   3   4
HETATM    4  C4* UNL     1     -10.861  14.384  64.716  1.00  0.00    -0.399 C  
HETATM    5  O4* UNL     1     -10.236  13.647  65.782  1.00  0.00    -0.293 OA 
HETATM    6  C1* UNL     1     -10.741  12.307  65.666  1.00  0.00    -0.267 C  
HETATM    7  C2* UNL     1     -12.199  12.448  65.235  1.00  0.00    -0.418 C  
HETATM    8  H3* UNL     1     -13.523  13.369  63.136  1.00  0.00     0.000 HD 
HETATM    9  O3* UNL     1     -12.645  13.721  63.216  1.00  0.00    -0.830 OA 
HETATM   10  C3* UNL     1     -12.273  13.818  64.588  1.00  0.00    -0.406 C  
BRANCH   6  11
HETATM   11  N   UNL     1     -10.542  11.543  66.897  1.00  0.00    -0.235 N  
HETATM   12  C   UNL     1     -11.438  11.607  67.950  1.00  0.00    -0.311 C  
HETATM   13  C   UNL     1     -12.154  11.122  70.279  1.00  0.00    -0.377 C  
HETATM   14  C   UNL     1     -11.215  11.018  69.135  1.00  0.00    -0.318 C  
HETATM   15  C   UNL     1      -9.966  10.269  69.306  1.00  0.00    -0.227 C  
HETATM   16  O   UNL     1      -9.626   9.749  70.361  1.00  0.00    -0.252 OA 
HETATM   17  N   UNL     1      -9.164  10.187  68.199  1.00  0.00    -0.134 N  
HETATM   18  F   UNL     1     -11.740  10.573  71.444  1.00  0.00    -0.403 F  
HETATM   19  F   UNL     1     -12.438  12.425  70.556  1.00  0.00    -0.378 F  
HETATM   20  F   UNL     1     -13.347  10.537  69.982  1.00  0.00    -0.239 F  
HETATM   21  C   UNL     1      -9.354  10.833  67.008  1.00  0.00    -0.156 C  
HETATM   22  H   UNL     1      -8.343   9.584  68.270  1.00  0.00     0.000 HD 
HETATM   23  O   UNL     1      -8.498  10.773  66.128  1.00  0.00    -0.156 OA 
ENDBRANCH   6  11
ENDBRANCH   3   4
TORSDOF 2
ENDMDL
MODEL        4
REMARK 921   NORMALIZED FREE ENERGY PREDICTED BY IDOCK:   -7.08 KCAL/MOL
REMARK 922        TOTAL FREE ENERGY PREDICTED BY IDOCK:   -8.34 KCAL/MOL
REMARK 923 INTER-LIGAND FREE ENERGY PREDICTED BY IDOCK:   -7.89 KCAL/MOL
REMARK 924 INTRA-LIGAND FREE ENERGY PREDICTED BY IDOCK:   -0.45 KCAL/MOL
REMARK 927      BINDING AFFINITY PREDICTED BY RF-SCORE:    0.00 PKD
ROOT
HETATM    1  O5* UNL     1     -12.469  14.368  63.293  1.00  0.00    -1.099 OA 
HETATM    2  H5* UNL     1     -12.977  14.354  62.490  1.00  0.00     0.000 HD 
HETATM    3  C5* UNL     1     -11.921  13.084  63.587  1.00  0.00    -0.539 C  
ENDROOT
BRANCH   3   4
HETATM    4  C4* UNL     1     -11.104  13.106  64.878  1.00  0.00    -0.314 C  
HETATM    5  O4* UNL     1     -10.219  14.239  64.916  1.00  0.00    -0.413 OA 
HETATM    6  C1* UNL     1      -9.888  14.419  66.302  1.00  0.00    -0.304 C  
HETATM    7  C2* UNL     1     -11.159  14.086  67.079  1.00  0.00    -0.312 C  
HETATM    8  H3* UNL     1     -12.685  11.962  67.487  1.00  0.00     0.000 HD 
HETATM    9  O3* UNL     1     -12.156  11.904  66.701  1.00  0.00    -0.587 OA 
HETATM   10  C3* UNL     1     -11.956  13.199  66.142  1.00  0.00    -0.422 C  
BRANCH   6  11
HETATM   11  N   UNL     1      -9.348  15.753  66.563  1.00  0.00    -0.259 N  
HETATM   12  C   UNL     1     -10.116  16.894  66.416  1.00  0.00    -0.322 C  
HETATM   13  C   UNL     1     -10.425  19.358  66.325  1.00  0.00    -0.493 C  
HETATM   14  C   UNL     1      -9.612  18.133  66.525  1.00  0.00    -0.318 C  
HETATM   15  C   UNL     1      -8.182  18.270  66.823  1.00  0.00    -0.253 C  
HETATM   16  O   UNL     1      -7.601  19.346  66.879  1.00  0.00    -0.234 OA 
HETATM   17  N   UNL     1      -7.502  17.099  67.029  1.00  0.00    -0.173 N  
HETATM   18  F   UNL     1      -9.754  20.532  66.353  1.00  0.00    -0.482 F  
HETATM   19  F   UNL     1     -11.069  19.321  65.126  1.00  0.00    -0.422 F  
HETATM   20  F   UNL     1     -11.402  19.452  67.269  1.00  0.00    -0.542 F  
HETATM   21  C   UNL     1      -7.994  15.833  66.860  1.00  0.00    -0.250 C  
HETATM   22  H   UNL     1      -6.533  17.179  67.338  1.00  0.00     0.000 HD 
HETATM   23  O   UNL     1      -7.248  14.861  66.961  1.00  0.00    -0.148 OA 
ENDBRANCH   6  11
ENDBRANCH   3   4
TORSDOF 2
ENDMDL
MODEL        5
REMARK 921   NORMALIZED FREE ENERGY PREDICTED BY IDOCK:   -7.06 KCAL/MOL
REMARK 922        TOTAL FREE ENERGY PREDICTED BY IDOCK:   -8.32 KCAL/MOL
REMARK 923 INTER-LIGAND FREE ENERGY PREDICTED BY IDOCK:   -8.50 KCAL/MOL
REMARK 924 INTRA-LIGAND FREE ENERGY PREDICTED BY IDOCK:    0.18 KCAL/MOL
REMARK 927      BINDING AFFINITY PREDICTED BY RF-SCORE:    0.00 PKD
ROOT
HETATM    1  O5* UNL     1     -11.561  16.651  63.837  1.00  0.00    -1.582 OA 
HETATM    2  H5* UNL     1     -11.395  17.541  63.551  1.00  0.00     0.000 HD 
HETATM    3  C5* UNL     1     -10.673  16.264  64.885  1.00  0.00    -0.234 C  
ENDROOT
BRANCH   3   4
HETATM    4  C4* UNL     1     -10.941  14.832  65.346  1.00  0.00    -0.359 C  
HETATM    5  O4* UNL     1     -10.810  14.710  66.773  1.00  0.00    -0.300 OA 
HETATM    6  C1* UNL     1     -11.526  13.515  67.121  1.00  0.00    -0.338 C  
HETATM    7  C2* UNL     1     -12.740  13.474  66.197  1.00  0.00    -0.232 C  
HETATM    8  H3* UNL     1     -13.195  13.258  63.598  1.00  0.00     0.000 HD 
HETATM    9  O3* UNL     1     -12.323  13.570  63.806  1.00  0.00    -0.661 OA 
HETATM   10  C3* UNL     1     -12.343  14.331  65.010  1.00  0.00    -0.428 C  
BRANCH   6  11
HETATM   11  N   UNL     1     -11.846  13.470  68.548  1.00  0.00    -0.348 N  
HETATM   12  C   UNL     1     -11.997  12.272  69.225  1.00  0.00    -0.253 C  
HETATM   13  C   UNL     1     -12.618  10.916  71.212  1.00  0.00    -0.421 C  
HETATM   14  C   UNL     1     -12.414  12.201  70.498  1.00  0.00    -0.282 C  
HETATM   15  C   UNL     1     -12.712  13.457  71.196  1.00  0.00    -0.328 C  
HETATM   16  O   UNL     1     -13.162  13.510  72.333  1.00  0.00    -0.465 OA 
HETATM   17  N   UNL     1     -12.469  14.603  70.488  1.00  0.00    -0.329 N  
HETATM   18  F   UNL     1     -13.152  10.999  72.452  1.00  0.00    -0.534 F  
HETATM   19  F   UNL     1     -13.439  10.093  70.503  1.00  0.00    -0.402 F  
HETATM   20  F   UNL     1     -11.442  10.243  71.345  1.00  0.00    -0.413 F  
HETATM   21  C   UNL     1     -12.102  14.683  69.172  1.00  0.00    -0.248 C  
HETATM   22  H   UNL     1     -12.572  15.485  70.991  1.00  0.00     0.000 HD 
HETATM   23  O   UNL     1     -12.030  15.777  68.615  1.00  0.00    -0.344 OA 
ENDBRANCH   6  11
ENDBRANCH   3   4
TORSDOF 2
ENDMDL
MODEL        6
REMARK 921   NORMALIZED FREE ENERGY PREDICTED BY IDOCK:   -7.05 KCAL/MOL
REMARK 922        TOTAL FREE ENERGY PREDICTED BY IDOCK:   -8.30 KCAL/MOL
REMARK 923 INTER-LIGAND FREE ENERGY PREDICTED BY IDOCK:   -7.81 KCAL/MOL
REMARK 924 INTRA-LIGAND FREE ENERGY PREDICTED BY IDOCK:   -0.49 KCAL/MOL
REMARK 927      BINDING AFFINITY PREDICTED BY RF-SCORE:    0.00 PKD
ROOT
HETATM    1  O5* UNL     1      -7.649  21.264  67.064  1.00  0.00    -0.741 OA 
HETATM    2  H5* UNL     1      -6.757  21.589  67.067  1.00  0.00     0.000 HD 
HETATM    3  C5* UNL     1      -7.724  19.944  66.526  1.00  0.00    -0.295 C  
ENDROOT
BRANCH   3   4
HETATM    4  C4* UNL     1      -9.160  19.421  66.521  1.00  0.00    -0.356 C  
HETATM    5  O4* UNL     1      -9.273  18.215  65.745  1.00  0.00    -0.469 OA 
HETATM    6  C1* UNL     1     -10.482  17.585  66.195  1.00  0.00    -0.288 C  
HETATM    7  C2* UNL     1     -10.555  17.847  67.697  1.00  0.00    -0.398 C  
HETATM    8  H3* UNL     1     -10.791  19.947  69.292  1.00  0.00     0.000 HD 
HETATM    9  O3* UNL     1     -10.459  20.161  68.429  1.00  0.00    -0.373 OA 
HETATM   10  C3* UNL     1      -9.693  19.077  67.909  1.00  0.00    -0.326 C  
BRANCH   6  11
HETATM   11  N   UNL     1     -10.530  16.171  65.822  1.00  0.00    -0.358 N  
HETATM   12  C   UNL     1      -9.915  15.193  66.584  1.00  0.00    -0.251 C  
HETATM   13  C   UNL     1      -9.138  12.869  66.995  1.00  0.00    -0.228 C  
HETATM   14  C   UNL     1      -9.834  13.910  66.199  1.00  0.00    -0.316 C  
HETATM   15  C   UNL     1     -10.437  13.539  64.915  1.00  0.00    -0.402 C  
HETATM   16  O   UNL     1     -10.366  12.416  64.432  1.00  0.00    -0.313 OA 
HETATM   17  N   UNL     1     -11.091  14.542  64.251  1.00  0.00    -0.604 N  
HETATM   18  F   UNL     1      -9.040  11.646  66.424  1.00  0.00    -0.184 F  
HETATM   19  F   UNL     1      -7.864  13.253  67.285  1.00  0.00    -0.155 F  
HETATM   20  F   UNL     1      -9.753  12.683  68.195  1.00  0.00    -0.194 F  
HETATM   21  C   UNL     1     -11.126  15.863  64.607  1.00  0.00    -0.354 C  
HETATM   22  H   UNL     1     -11.604  14.279  63.409  1.00  0.00     0.000 HD 
HETATM   23  O   UNL     1     -11.649  16.691  63.863  1.00  0.00    -1.204 OA 
ENDBRANCH   6  11
ENDBRANCH   3   4
TORSDOF 2
ENDMDL
MODEL        7
REMARK 921   NORMALIZED FREE ENERGY PREDICTED BY IDOCK:   -7.03 KCAL/MOL
REMARK 922        TOTAL FREE ENERGY PREDICTED BY IDOCK:   -8.28 KCAL/MOL
REMARK 923 INTER-LIGAND FREE ENERGY PREDICTED BY IDOCK:   -7.87 KCAL/MOL
REMARK 924 INTRA-LIGAND FREE ENERGY PREDICTED BY IDOCK:   -0.41 KCAL/MOL
REMARK 927      BINDING AFFINITY PREDICTED BY RF-SCORE:    0.00 PKD
ROOT
HETATM    1  O5* UNL     1      -6.939  18.236  65.365  1.00  0.00    -0.523 OA 
HETATM    2  H5* UNL     1      -5.995  18.338  65.371  1.00  0.00     0.000 HD 
HETATM    3  C5* UNL     1      -7.429  17.815  66.638  1.00  0.00    -0.228 C  
ENDROOT
BRANCH   3   4
HETATM    4  C4* UNL     1      -8.948  17.653  66.627  1.00  0.00    -0.265 C  
HETATM    5  O4* UNL     1      -9.366  16.722  65.612  1.00  0.00    -0.511 OA 
HETATM    6  C1* UNL     1     -10.682  16.298  66.001  1.00  0.00    -0.214 C  
HETATM    7  C2* UNL     1     -10.656  16.209  67.525  1.00  0.00    -0.314 C  
HETATM    8  H3* UNL     1     -10.344  17.870  69.563  1.00  0.00     0.000 HD 
HETATM    9  O3* UNL     1      -9.989  18.200  68.746  1.00  0.00    -0.366 OA 
HETATM   10  C3* UNL     1      -9.519  17.123  67.940  1.00  0.00    -0.257 C  
BRANCH   6  11
HETATM   11  N   UNL     1     -11.077  15.063  65.327  1.00  0.00    -0.367 N  
HETATM   12  C   UNL     1     -10.552  13.833  65.687  1.00  0.00    -0.298 C  
HETATM   13  C   UNL     1     -10.204  11.395  65.364  1.00  0.00    -0.270 C  
HETATM   14  C   UNL     1     -10.800  12.705  65.004  1.00  0.00    -0.321 C  
HETATM   15  C   UNL     1     -11.674  12.790  63.829  1.00  0.00    -0.493 C  
HETATM   16  O   UNL     1     -11.915  11.842  63.093  1.00  0.00    -0.370 OA 
HETATM   17  N   UNL     1     -12.214  14.023  63.576  1.00  0.00    -1.079 N  
HETATM   18  F   UNL     1     -10.454  10.371  64.515  1.00  0.00    -0.422 F  
HETATM   19  F   UNL     1      -8.849  11.487  65.455  1.00  0.00    -0.169 F  
HETATM   20  F   UNL     1     -10.632  10.988  66.591  1.00  0.00    -0.266 F  
HETATM   21  C   UNL     1     -11.920  15.189  64.231  1.00  0.00    -0.262 C  
HETATM   22  H   UNL     1     -12.904  14.078  62.827  1.00  0.00     0.000 HD 
HETATM   23  O   UNL     1     -12.383  16.256  63.832  1.00  0.00    -0.874 OA 
ENDBRANCH   6  11
ENDBRANCH   3   4
TORSDOF 2
ENDMDL
MODEL        8
REMARK 921   NORMALIZED FREE ENERGY PREDICTED BY IDOCK:   -6.96 KCAL/MOL
REMARK 922        TOTAL FREE ENERGY PREDICTED BY IDOCK:   -8.21 KCAL/MOL
REMARK 923 INTER-LIGAND FREE ENERGY PREDICTED BY IDOCK:   -7.62 KCAL/MOL
REMARK 924 INTRA-LIGAND FREE ENERGY PREDICTED BY IDOCK:   -0.59 KCAL/MOL
REMARK 927      BINDING AFFINITY PREDICTED BY RF-SCORE:    0.00 PKD
ROOT
HETATM    1  O5* UNL     1      -6.718  19.456  68.092  1.00  0.00    -0.246 OA 
HETATM    2  H5* UNL     1      -5.845  19.365  68.453  1.00  0.00     0.000 HD 
HETATM    3  C5* UNL     1      -6.996  18.440  67.128  1.00  0.00    -0.198 C  
ENDROOT
BRANCH   3   4
HETATM    4  C4* UNL     1      -8.401  18.588  66.548  1.00  0.00    -0.281 C  
HETATM    5  O4* UNL     1      -8.906  17.325  66.078  1.00  0.00    -0.495 OA 
HETATM    6  C1* UNL     1     -10.332  17.484  66.016  1.00  0.00    -0.306 C  
HETATM    7  C2* UNL     1     -10.706  18.355  67.212  1.00  0.00    -0.389 C  
HETATM    8  H3* UNL     1     -10.241  20.828  68.034  1.00  0.00     0.000 HD 
HETATM    9  O3* UNL     1      -9.601  20.509  67.410  1.00  0.00    -0.425 OA 
HETATM   10  C3* UNL     1      -9.430  19.101  67.552  1.00  0.00    -0.307 C  
BRANCH   6  11
HETATM   11  N   UNL     1     -11.020  16.195  65.963  1.00  0.00    -0.136 N  
HETATM   12  C   UNL     1     -11.040  15.332  67.046  1.00  0.00    -0.305 C  
HETATM   13  C   UNL     1     -11.536  13.153  68.130  1.00  0.00    -0.339 C  
HETATM   14  C   UNL     1     -11.553  14.094  66.983  1.00  0.00    -0.404 C  
HETATM   15  C   UNL     1     -12.124  13.649  65.707  1.00  0.00    -0.428 C  
HETATM   16  O   UNL     1     -12.558  12.521  65.515  1.00  0.00    -0.642 OA 
HETATM   17  N   UNL     1     -12.137  14.581  64.704  1.00  0.00    -0.459 N  
HETATM   18  F   UNL     1     -11.985  11.900  67.883  1.00  0.00    -0.388 F  
HETATM   19  F   UNL     1     -10.274  13.010  68.621  1.00  0.00    -0.232 F  
HETATM   20  F   UNL     1     -12.284  13.631  69.162  1.00  0.00    -0.356 F  
HETATM   21  C   UNL     1     -11.563  15.823  64.740  1.00  0.00    -0.173 C  
HETATM   22  H   UNL     1     -12.622  14.324  63.844  1.00  0.00     0.000 HD 
HETATM   23  O   UNL     1     -11.538  16.523  63.730  1.00  0.00    -1.109 OA 
ENDBRANCH   6  11
ENDBRANCH   3   4
TORSDOF 2
ENDMDL
MODEL        9
REMARK 921   NORMALIZED FREE ENERGY PREDICTED BY IDOCK:   -6.88 KCAL/MOL
REMARK 922        TOTAL FREE ENERGY PREDICTED BY IDOCK:   -8.11 KCAL/MOL
REMARK 923 INTER-LIGAND FREE ENERGY PREDICTED BY IDOCK:   -7.56 KCAL/MOL
REMARK 924 INTRA-LIGAND FREE ENERGY PREDICTED BY IDOCK:   -0.56 KCAL/MOL
REMARK 927      BINDING AFFINITY PREDICTED BY RF-SCORE:    0.00 PKD
ROOT
HETATM    1  O5* UNL     1     -12.259  11.424  62.888  1.00  0.00    -0.940 OA 
HETATM    2  H5* UNL     1     -12.951  11.116  62.315  1.00  0.00     0.000 HD 
HETATM    3  C5* UNL     1     -12.784  12.130  64.012  1.00  0.00    -0.344 C  
ENDROOT
BRANCH   3   4
HETATM    4  C4* UNL     1     -11.670  12.624  64.933  1.00  0.00    -0.353 C  
HETATM    5  O4* UNL     1     -12.203  13.144  66.164  1.00  0.00    -0.419 OA 
HETATM    6  C1* UNL     1     -11.109  13.120  67.093  1.00  0.00    -0.279 C  
HETATM    7  C2* UNL     1     -10.319  11.853  66.773  1.00  0.00    -0.238 C  
HETATM    8  H3* UNL     1      -8.908  10.905  64.744  1.00  0.00     0.000 HD 
HETATM    9  O3* UNL     1      -9.526  11.582  64.494  1.00  0.00    -0.190 OA 
HETATM   10  C3* UNL     1     -10.676  11.537  65.334  1.00  0.00    -0.278 C  
BRANCH   6  11
HETATM   11  N   UNL     1     -11.570  13.215  68.478  1.00  0.00    -0.303 N  
HETATM   12  C   UNL     1     -11.853  12.090  69.233  1.00  0.00    -0.318 C  
HETATM   13  C   UNL     1     -12.740  10.944  71.251  1.00  0.00    -0.437 C  
HETATM   14  C   UNL     1     -12.397  12.150  70.458  1.00  0.00    -0.358 C  
HETATM   15  C   UNL     1     -12.692  13.475  71.015  1.00  0.00    -0.322 C  
HETATM   16  O   UNL     1     -13.249  13.650  72.091  1.00  0.00    -0.393 OA 
HETATM   17  N   UNL     1     -12.318  14.542  70.243  1.00  0.00    -0.333 N  
HETATM   18  F   UNL     1     -13.389  11.161  72.419  1.00  0.00    -0.560 F  
HETATM   19  F   UNL     1     -13.532  10.101  70.532  1.00  0.00    -0.402 F  
HETATM   20  F   UNL     1     -11.623  10.231  71.560  1.00  0.00    -0.417 F  
HETATM   21  C   UNL     1     -11.819  14.489  68.970  1.00  0.00    -0.318 C  
HETATM   22  H   UNL     1     -12.421  15.469  70.658  1.00  0.00     0.000 HD 
HETATM   23  O   UNL     1     -11.631  15.525  68.334  1.00  0.00    -0.355 OA 
ENDBRANCH   6  11
ENDBRANCH   3   4
TORSDOF 2
ENDMDL
MODEL       10
REMARK 921   NORMALIZED FREE ENERGY PREDICTED BY IDOCK:   -6.81 KCAL/MOL
REMARK 922        TOTAL FREE ENERGY PREDICTED BY IDOCK:   -8.03 KCAL/MOL
REMARK 923 INTER-LIGAND FREE ENERGY PREDICTED BY IDOCK:   -7.58 KCAL/MOL
REMARK 924 INTRA-LIGAND FREE ENERGY PREDICTED BY IDOCK:   -0.46 KCAL/MOL
REMARK 927      BINDING AFFINITY PREDICTED BY RF-SCORE:    0.00 PKD
ROOT
HETATM    1  O5* UNL     1     -13.970   8.847  73.454  1.00  0.00    -1.236 OA 
HETATM    2  H5* UNL     1     -14.603   8.622  74.125  1.00  0.00     0.000 HD 
HETATM    3  C5* UNL     1     -14.325   8.285  72.191  1.00  0.00    -0.404 C  
ENDROOT
BRANCH   3   4
HETATM    4  C4* UNL     1     -13.307   8.647  71.111  1.00  0.00    -0.022 C  
HETATM    5  O4* UNL     1     -13.495   9.996  70.648  1.00  0.00    -0.260 OA 
HETATM    6  C1* UNL     1     -12.250  10.366  70.035  1.00  0.00    -0.189 C  
HETATM    7  C2* UNL     1     -11.160   9.716  70.883  1.00  0.00    -0.422 C  
HETATM    8  H3* UNL     1     -10.384   7.262  71.502  1.00  0.00     0.000 HD 
HETATM    9  O3* UNL     1     -11.286   7.313  71.209  1.00  0.00    -0.248 OA 
HETATM   10  C3* UNL     1     -11.857   8.564  71.581  1.00  0.00    -0.311 C  
BRANCH   6  11
HETATM   11  N   UNL     1     -12.125  11.815  69.890  1.00  0.00    -0.303 N  
HETATM   12  C   UNL     1     -12.363  12.679  70.946  1.00  0.00    -0.260 C  
HETATM   13  C   UNL     1     -12.677  14.938  71.929  1.00  0.00    -0.326 C  
HETATM   14  C   UNL     1     -12.380  14.014  70.808  1.00  0.00    -0.443 C  
HETATM   15  C   UNL     1     -12.124  14.571  69.475  1.00  0.00    -0.306 C  
HETATM   16  O   UNL     1     -12.180  15.766  69.218  1.00  0.00    -0.298 OA 
HETATM   17  N   UNL     1     -11.824  13.661  68.497  1.00  0.00    -0.356 N  
HETATM   18  F   UNL     1     -12.772  16.251  71.613  1.00  0.00    -0.482 F  
HETATM   19  F   UNL     1     -13.855  14.610  72.529  1.00  0.00    -0.456 F  
HETATM   20  F   UNL     1     -11.727  14.846  72.900  1.00  0.00    -0.410 F  
HETATM   21  C   UNL     1     -11.863  12.298  68.615  1.00  0.00    -0.305 C  
HETATM   22  H   UNL     1     -11.542  14.036  67.591  1.00  0.00     0.000 HD 
HETATM   23  O   UNL     1     -11.688  11.586  67.628  1.00  0.00    -0.538 OA 
ENDBRANCH   6  11
ENDBRANCH   3   4
TORSDOF 2
ENDMDL
MODEL       11
REMARK 921   NORMALIZED FREE ENERGY PREDICTED BY IDOCK:   -6.75 KCAL/MOL
REMARK 922        TOTAL FREE ENERGY PREDICTED BY IDOCK:   -7.97 KCAL/MOL
REMARK 923 INTER-LIGAND FREE ENERGY PREDICTED BY IDOCK:   -7.50 KCAL/MOL
REMARK 924 INTRA-LIGAND FREE ENERGY PREDICTED BY IDOCK:   -0.47 KCAL/MOL
REMARK 927      BINDING AFFINITY PREDICTED BY RF-SCORE:    0.00 PKD
ROOT
HETATM    1  O5* UNL     1     -13.160  15.380  74.057  1.00  0.00    -0.628 OA 
HETATM    2  H5* UNL     1     -13.185  15.947  74.818  1.00  0.00     0.000 HD 
HETATM    3  C5* UNL     1     -13.603  16.060  72.883  1.00  0.00    -0.432 C  
ENDROOT
BRANCH   3   4
HETATM    4  C4* UNL     1     -13.564  15.147  71.658  1.00  0.00    -0.467 C  
HETATM    5  O4* UNL     1     -13.089  15.852  70.497  1.00  0.00    -0.421 OA 
HETATM    6  C1* UNL     1     -12.649  14.833  69.585  1.00  0.00    -0.062 C  
HETATM    7  C2* UNL     1     -12.020  13.745  70.450  1.00  0.00    -0.385 C  
HETATM    8  H3* UNL     1     -12.817  12.045  72.317  1.00  0.00     0.000 HD 
HETATM    9  O3* UNL     1     -13.390  12.795  72.217  1.00  0.00    -0.532 OA 
HETATM   10  C3* UNL     1     -12.642  13.941  71.820  1.00  0.00    -0.254 C  
BRANCH   6  11
HETATM   11  N   UNL     1     -11.768  15.373  68.551  1.00  0.00    -0.357 N  
HETATM   12  C   UNL     1     -11.126  16.591  68.700  1.00  0.00    -0.329 C  
HETATM   13  C   UNL     1      -9.764  18.492  67.862  1.00  0.00    -0.314 C  
HETATM   14  C   UNL     1     -10.416  17.167  67.718  1.00  0.00    -0.362 C  
HETATM   15  C   UNL     1     -10.315  16.460  66.437  1.00  0.00    -0.313 C  
HETATM   16  O   UNL     1      -9.752  16.919  65.451  1.00  0.00    -0.506 OA 
HETATM   17  N   UNL     1     -10.913  15.229  66.387  1.00  0.00    -0.318 N  
HETATM   18  F   UNL     1      -9.181  18.995  66.750  1.00  0.00    -0.281 F  
HETATM   19  F   UNL     1     -10.660  19.430  68.276  1.00  0.00    -0.462 F  
HETATM   20  F   UNL     1      -8.796  18.455  68.819  1.00  0.00    -0.312 F  
HETATM   21  C   UNL     1     -11.688  14.662  67.361  1.00  0.00    -0.390 C  
HETATM   22  H   UNL     1     -10.765  14.680  65.539  1.00  0.00     0.000 HD 
HETATM   23  O   UNL     1     -12.269  13.599  67.150  1.00  0.00    -0.372 OA 
ENDBRANCH   6  11
ENDBRANCH   3   4
TORSDOF 2
ENDMDL
MODEL       12
REMARK 921   NORMALIZED FREE ENERGY PREDICTED BY IDOCK:   -6.73 KCAL/MOL
REMARK 922        TOTAL FREE ENERGY PREDICTED BY IDOCK:   -7.95 KCAL/MOL
REMARK 923 INTER-LIGAND FREE ENERGY PREDICTED BY IDOCK:   -7.38 KCAL/MOL
REMARK 924 INTRA-LIGAND FREE ENERGY PREDICTED BY IDOCK:   -0.57 KCAL/MOL
REMARK 927      BINDING AFFINITY PREDICTED BY RF-SCORE:    0.00 PKD
ROOT
HETATM    1  O5* UNL     1     -10.198  10.686  62.699  1.00  0.00    -0.751 OA 
HETATM    2  H5* UNL     1      -9.437  10.369  62.227  1.00  0.00     0.000 HD 
HETATM    3  C5* UNL     1      -9.829  11.331  63.917  1.00  0.00    -0.300 C  
ENDROOT
BRANCH   3   4
HETATM    4  C4* UNL     1     -11.053  11.840  64.675  1.00  0.00    -0.303 C  
HETATM    5  O4* UNL     1     -10.672  12.687  65.774  1.00  0.00    -0.260 OA 
HETATM    6  C1* UNL     1     -11.843  13.457  66.087  1.00  0.00    -0.385 C  
HETATM    7  C2* UNL     1     -12.513  13.756  64.749  1.00  0.00    -0.386 C  
HETATM    8  H3* UNL     1     -13.665  12.379  62.803  1.00  0.00     0.000 HD 
HETATM    9  O3* UNL     1     -13.073  11.862  63.335  1.00  0.00    -0.710 OA 
HETATM   10  C3* UNL     1     -12.005  12.672  63.818  1.00  0.00    -0.510 C  
BRANCH   6  11
HETATM   11  N   UNL     1     -11.518  14.640  66.882  1.00  0.00    -0.357 N  
HETATM   12  C   UNL     1     -10.895  15.745  66.328  1.00  0.00    -0.232 C  
HETATM   13  C   UNL     1      -9.766  17.953  66.472  1.00  0.00    -0.329 C  
HETATM   14  C   UNL     1     -10.473  16.788  67.059  1.00  0.00    -0.285 C  
HETATM   15  C   UNL     1     -10.695  16.748  68.508  1.00  0.00    -0.358 C  
HETATM   16  O   UNL     1     -10.294  17.609  69.280  1.00  0.00    -0.319 OA 
HETATM   17  N   UNL     1     -11.382  15.659  68.975  1.00  0.00    -0.306 N  
HETATM   18  F   UNL     1      -9.299  18.873  67.348  1.00  0.00    -0.286 F  
HETATM   19  F   UNL     1      -8.691  17.550  65.740  1.00  0.00    -0.158 F  
HETATM   20  F   UNL     1     -10.574  18.625  65.606  1.00  0.00    -0.466 F  
HETATM   21  C   UNL     1     -11.763  14.565  68.247  1.00  0.00    -0.335 C  
HETATM   22  H   UNL     1     -11.636  15.665  69.963  1.00  0.00     0.000 HD 
HETATM   23  O   UNL     1     -12.271  13.595  68.806  1.00  0.00    -0.339 OA 
ENDBRANCH   6  11
ENDBRANCH   3   4
TORSDOF 2
ENDMDL
MODEL       13
REMARK 921   NORMALIZED FREE ENERGY PREDICTED BY IDOCK:   -6.67 KCAL/MOL
REMARK 922        TOTAL FREE ENERGY PREDICTED BY IDOCK:   -7.88 KCAL/MOL
REMARK 923 INTER-LIGAND FREE ENERGY PREDICTED BY IDOCK:   -8.11 KCAL/MOL
REMARK 924 INTRA-LIGAND FREE ENERGY PREDICTED BY IDOCK:    0.23 KCAL/MOL
REMARK 927      BINDING AFFINITY PREDICTED BY RF-SCORE:    0.00 PKD
ROOT
HETATM    1  O5* UNL     1      -9.783  20.518  65.597  1.00  0.00    -0.607 OA 
HETATM    2  H5* UNL     1     -10.008  21.424  65.426  1.00  0.00     0.000 HD 
HETATM    3  C5* UNL     1      -9.771  20.237  66.996  1.00  0.00    -0.458 C  
ENDROOT
BRANCH   3   4
HETATM    4  C4* UNL     1      -9.409  18.778  67.271  1.00  0.00    -0.290 C  
HETATM    5  O4* UNL     1     -10.450  17.890  66.825  1.00  0.00    -0.346 OA 
HETATM    6  C1* UNL     1      -9.823  16.605  66.689  1.00  0.00    -0.274 C  
HETATM    7  C2* UNL     1      -8.417  16.882  66.163  1.00  0.00    -0.281 C  
HETATM    8  H3* UNL     1      -6.231  18.109  67.014  1.00  0.00     0.000 HD 
HETATM    9  O3* UNL     1      -7.023  18.396  67.452  1.00  0.00    -0.200 OA 
HETATM   10  C3* UNL     1      -8.136  18.317  66.566  1.00  0.00    -0.269 C  
BRANCH   6  11
HETATM   11  N   UNL     1     -10.615  15.699  65.860  1.00  0.00    -0.329 N  
HETATM   12  C   UNL     1     -10.632  14.332  66.081  1.00  0.00    -0.293 C  
HETATM   13  C   UNL     1     -11.230  11.999  65.472  1.00  0.00    -0.321 C  
HETATM   14  C   UNL     1     -11.247  13.467  65.259  1.00  0.00    -0.304 C  
HETATM   15  C   UNL     1     -11.936  14.008  64.082  1.00  0.00    -0.408 C  
HETATM   16  O   UNL     1     -12.471  13.310  63.230  1.00  0.00    -0.736 OA 
HETATM   17  N   UNL     1     -11.940  15.372  63.969  1.00  0.00    -0.949 N  
HETATM   18  F   UNL     1     -11.794  11.247  64.498  1.00  0.00    -0.179 F  
HETATM   19  F   UNL     1      -9.953  11.544  65.606  1.00  0.00    -0.228 F  
HETATM   20  F   UNL     1     -11.866  11.668  66.629  1.00  0.00    -0.358 F  
HETATM   21  C   UNL     1     -11.266  16.256  64.767  1.00  0.00    -0.259 C  
HETATM   22  H   UNL     1     -12.501  15.769  63.214  1.00  0.00     0.000 HD 
HETATM   23  O   UNL     1     -11.252  17.454  64.490  1.00  0.00    -1.018 OA 
ENDBRANCH   6  11
ENDBRANCH   3   4
TORSDOF 2
ENDMDL
MODEL       14
REMARK 921   NORMALIZED FREE ENERGY PREDICTED BY IDOCK:   -6.63 KCAL/MOL
REMARK 922        TOTAL FREE ENERGY PREDICTED BY IDOCK:   -7.83 KCAL/MOL
REMARK 923 INTER-LIGAND FREE ENERGY PREDICTED BY IDOCK:   -7.85 KCAL/MOL
REMARK 924 INTRA-LIGAND FREE ENERGY PREDICTED BY IDOCK:    0.02 KCAL/MOL
REMARK 927      BINDING AFFINITY PREDICTED BY RF-SCORE:    0.00 PKD
ROOT
HETATM    1  O5* UNL     1     -11.465  16.626  63.875  1.00  0.00    -1.604 OA 
HETATM    2  H5* UNL     1     -11.347  17.566  63.941  1.00  0.00     0.000 HD 
HETATM    3  C5* UNL     1     -10.702  15.933  64.862  1.00  0.00    -0.341 C  
ENDROOT
BRANCH   3   4
HETATM    4  C4* UNL     1     -10.892  14.420  64.757  1.00  0.00    -0.399 C  
HETATM    5  O4* UNL     1     -10.472  13.757  65.962  1.00  0.00    -0.285 OA 
HETATM    6  C1* UNL     1     -11.120  12.475  65.938  1.00  0.00    -0.299 C  
HETATM    7  C2* UNL     1     -12.499  12.718  65.329  1.00  0.00    -0.528 C  
HETATM    8  H3* UNL     1     -13.483  13.510  63.003  1.00  0.00     0.000 HD 
HETATM    9  O3* UNL     1     -12.581  13.774  63.144  1.00  0.00    -0.793 OA 
HETATM   10  C3* UNL     1     -12.341  13.997  64.530  1.00  0.00    -0.378 C  
BRANCH   6  11
HETATM   11  N   UNL     1     -11.141  11.851  67.260  1.00  0.00    -0.270 N  
HETATM   12  C   UNL     1     -10.717  10.549  67.461  1.00  0.00    -0.276 C  
HETATM   13  C   UNL     1     -10.429   8.503  68.839  1.00  0.00    -0.188 C  
HETATM   14  C   UNL     1     -10.844   9.912  68.635  1.00  0.00    -0.244 C  
HETATM   15  C   UNL     1     -11.453  10.643  69.751  1.00  0.00    -0.302 C  
HETATM   16  O   UNL     1     -11.681  10.144  70.846  1.00  0.00    -0.321 OA 
HETATM   17  N   UNL     1     -11.780  11.949  69.500  1.00  0.00    -0.322 N  
HETATM   18  F   UNL     1     -10.725   7.961  70.043  1.00  0.00    -0.227 F  
HETATM   19  F   UNL     1     -11.002   7.689  67.909  1.00  0.00    -0.234 F  
HETATM   20  F   UNL     1      -9.085   8.363  68.677  1.00  0.00    -0.138 F  
HETATM   21  C   UNL     1     -11.710  12.587  68.292  1.00  0.00    -0.340 C  
HETATM   22  H   UNL     1     -12.109  12.501  70.293  1.00  0.00     0.000 HD 
HETATM   23  O   UNL     1     -12.146  13.730  68.168  1.00  0.00    -0.364 OA 
ENDBRANCH   6  11
ENDBRANCH   3   4
TORSDOF 2
ENDMDL
MODEL       15
REMARK 921   NORMALIZED FREE ENERGY PREDICTED BY IDOCK:   -6.62 KCAL/MOL
REMARK 922        TOTAL FREE ENERGY PREDICTED BY IDOCK:   -7.83 KCAL/MOL
REMARK 923 INTER-LIGAND FREE ENERGY PREDICTED BY IDOCK:   -7.41 KCAL/MOL
REMARK 924 INTRA-LIGAND FREE ENERGY PREDICTED BY IDOCK:   -0.42 KCAL/MOL
REMARK 927      BINDING AFFINITY PREDICTED BY RF-SCORE:    0.00 PKD
ROOT
HETATM    1  O5* UNL     1      -9.928  10.476  62.455  1.00  0.00    -0.723 OA 
HETATM    2  H5* UNL     1      -9.176  10.436  61.876  1.00  0.00     0.000 HD 
HETATM    3  C5* UNL     1      -9.914  11.662  63.249  1.00  0.00    -0.419 C  
ENDROOT
BRANCH   3   4
HETATM    4  C4* UNL     1     -11.124  11.726  64.180  1.00  0.00    -0.374 C  
HETATM    5  O4* UNL     1     -10.744  12.151  65.501  1.00  0.00    -0.265 OA 
HETATM    6  C1* UNL     1     -11.954  12.625  66.112  1.00  0.00    -0.395 C  
HETATM    7  C2* UNL     1     -12.739  13.316  65.000  1.00  0.00    -0.438 C  
HETATM    8  H3* UNL     1     -13.896  12.625  62.721  1.00  0.00     0.000 HD 
HETATM    9  O3* UNL     1     -13.225  12.016  63.007  1.00  0.00    -0.427 OA 
HETATM   10  C3* UNL     1     -12.202  12.705  63.720  1.00  0.00    -0.514 C  
BRANCH   6  11
HETATM   11  N   UNL     1     -11.681  13.466  67.277  1.00  0.00    -0.358 N  
HETATM   12  C   UNL     1     -11.214  14.763  67.149  1.00  0.00    -0.343 C  
HETATM   13  C   UNL     1     -10.294  16.883  68.058  1.00  0.00    -0.334 C  
HETATM   14  C   UNL     1     -10.835  15.509  68.198  1.00  0.00    -0.296 C  
HETATM   15  C   UNL     1     -10.935  14.916  69.536  1.00  0.00    -0.273 C  
HETATM   16  O   UNL     1     -10.557  15.478  70.556  1.00  0.00    -0.323 OA 
HETATM   17  N   UNL     1     -11.475  13.659  69.591  1.00  0.00    -0.395 N  
HETATM   18  F   UNL     1      -9.847  17.468  69.194  1.00  0.00    -0.282 F  
HETATM   19  F   UNL     1      -9.247  16.905  67.187  1.00  0.00    -0.217 F  
HETATM   20  F   UNL     1     -11.229  17.724  67.537  1.00  0.00    -0.267 F  
HETATM   21  C   UNL     1     -11.807  12.869  68.524  1.00  0.00    -0.313 C  
HETATM   22  H   UNL     1     -11.648  13.274  70.520  1.00  0.00     0.000 HD 
HETATM   23  O   UNL     1     -12.173  11.709  68.703  1.00  0.00    -0.455 OA 
ENDBRANCH   6  11
ENDBRANCH   3   4
TORSDOF 2
ENDMDL
MODEL       16
REMARK 921   NORMALIZED FREE ENERGY PREDICTED BY IDOCK:   -6.60 KCAL/MOL
REMARK 922        TOTAL FREE ENERGY PREDICTED BY IDOCK:   -7.81 KCAL/MOL
REMARK 923 INTER-LIGAND FREE ENERGY PREDICTED BY IDOCK:   -7.27 KCAL/MOL
REMARK 924 INTRA-LIGAND FREE ENERGY PREDICTED BY IDOCK:   -0.54 KCAL/MOL
REMARK 927      BINDING AFFINITY PREDICTED BY RF-SCORE:    0.00 PKD
ROOT
HETATM    1  O5* UNL     1      -9.042  20.315  65.945  1.00  0.00    -0.584 OA 
HETATM    2  H5* UNL     1      -9.113  20.813  65.140  1.00  0.00     0.000 HD 
HETATM    3  C5* UNL     1     -10.320  19.884  66.409  1.00  0.00    -0.495 C  
ENDROOT
BRANCH   3   4
HETATM    4  C4* UNL     1     -10.205  19.083  67.705  1.00  0.00    -0.400 C  
HETATM    5  O4* UNL     1     -10.962  17.861  67.632  1.00  0.00    -0.310 OA 
HETATM    6  C1* UNL     1     -10.411  17.010  68.649  1.00  0.00    -0.363 C  
HETATM    7  C2* UNL     1      -8.910  17.285  68.654  1.00  0.00    -0.261 C  
HETATM    8  H3* UNL     1      -7.312  19.329  69.184  1.00  0.00     0.000 HD 
HETATM    9  O3* UNL     1      -8.201  19.586  68.972  1.00  0.00    -0.342 OA 
HETATM   10  C3* UNL     1      -8.775  18.668  68.046  1.00  0.00    -0.303 C  
BRANCH   6  11
HETATM   11  N   UNL     1     -10.772  15.609  68.438  1.00  0.00    -0.261 N  
HETATM   12  C   UNL     1     -10.986  15.091  67.173  1.00  0.00    -0.329 C  
HETATM   13  C   UNL     1     -11.712  13.306  65.605  1.00  0.00    -0.356 C  
HETATM   14  C   UNL     1     -11.440  13.847  66.959  1.00  0.00    -0.367 C  
HETATM   15  C   UNL     1     -11.709  13.003  68.129  1.00  0.00    -0.351 C  
HETATM   16  O   UNL     1     -12.188  11.878  68.059  1.00  0.00    -0.491 OA 
HETATM   17  N   UNL     1     -11.404  13.555  69.344  1.00  0.00    -0.364 N  
HETATM   18  F   UNL     1     -12.276  12.077  65.554  1.00  0.00    -0.413 F  
HETATM   19  F   UNL     1     -12.544  14.131  64.912  1.00  0.00    -0.418 F  
HETATM   20  F   UNL     1     -10.567  13.233  64.873  1.00  0.00    -0.295 F  
HETATM   21  C   UNL     1     -10.998  14.842  69.574  1.00  0.00    -0.266 C  
HETATM   22  H   UNL     1     -11.486  12.947  70.160  1.00  0.00     0.000 HD 
HETATM   23  O   UNL     1     -10.869  15.254  70.725  1.00  0.00    -0.300 OA 
ENDBRANCH   6  11
ENDBRANCH   3   4
TORSDOF 2
ENDMDL
MODEL       17
REMARK 921   NORMALIZED FREE ENERGY PREDICTED BY IDOCK:   -6.53 KCAL/MOL
REMARK 922        TOTAL FREE ENERGY PREDICTED BY IDOCK:   -7.72 KCAL/MOL
REMARK 923 INTER-LIGAND FREE ENERGY PREDICTED BY IDOCK:   -7.30 KCAL/MOL
REMARK 924 INTRA-LIGAND FREE ENERGY PREDICTED BY IDOCK:   -0.42 KCAL/MOL
REMARK 927      BINDING AFFINITY PREDICTED BY RF-SCORE:    0.00 PKD
ROOT
HETATM    1  O5* UNL     1     -11.524  16.523  63.814  1.00  0.00    -1.615 OA 
HETATM    2  H5* UNL     1     -11.789  16.285  62.934  1.00  0.00     0.000 HD 
HETATM    3  C5* UNL     1     -11.406  15.375  64.654  1.00  0.00    -0.355 C  
ENDROOT
BRANCH   3   4
HETATM    4  C4* UNL     1     -10.979  15.759  66.070  1.00  0.00    -0.177 C  
HETATM    5  O4* UNL     1     -11.757  15.059  67.057  1.00  0.00    -0.309 OA 
HETATM    6  C1* UNL     1     -10.982  15.118  68.265  1.00  0.00    -0.276 C  
HETATM    7  C2* UNL     1      -9.525  14.990  67.831  1.00  0.00    -0.195 C  
HETATM    8  H3* UNL     1      -7.797  16.386  66.390  1.00  0.00     0.000 HD 
HETATM    9  O3* UNL     1      -8.705  16.588  66.196  1.00  0.00    -0.307 OA 
HETATM   10  C3* UNL     1      -9.520  15.434  66.381  1.00  0.00    -0.296 C  
BRANCH   6  11
HETATM   11  N   UNL     1     -11.417  14.117  69.238  1.00  0.00    -0.275 N  
HETATM   12  C   UNL     1     -11.067  12.783  69.120  1.00  0.00    -0.189 C  
HETATM   13  C   UNL     1     -11.215  10.390  69.772  1.00  0.00    -0.293 C  
HETATM   14  C   UNL     1     -11.556  11.826  69.925  1.00  0.00    -0.351 C  
HETATM   15  C   UNL     1     -12.495  12.226  70.978  1.00  0.00    -0.263 C  
HETATM   16  O   UNL     1     -13.054  11.434  71.725  1.00  0.00    -0.480 OA 
HETATM   17  N   UNL     1     -12.737  13.570  71.081  1.00  0.00    -0.354 N  
HETATM   18  F   UNL     1     -11.874   9.530  70.583  1.00  0.00    -0.290 F  
HETATM   19  F   UNL     1     -11.455   9.967  68.500  1.00  0.00    -0.252 F  
HETATM   20  F   UNL     1      -9.888  10.180  69.989  1.00  0.00    -0.253 F  
HETATM   21  C   UNL     1     -12.291  14.544  70.229  1.00  0.00    -0.349 C  
HETATM   22  H   UNL     1     -13.305  13.876  71.871  1.00  0.00     0.000 HD 
HETATM   23  O   UNL     1     -12.675  15.704  70.360  1.00  0.00    -0.425 OA 
ENDBRANCH   6  11
ENDBRANCH   3   4
TORSDOF 2
ENDMDL
MODEL       18
REMARK 921   NORMALIZED FREE ENERGY PREDICTED BY IDOCK:   -6.49 KCAL/MOL
REMARK 922        TOTAL FREE ENERGY PREDICTED BY IDOCK:   -7.68 KCAL/MOL
REMARK 923 INTER-LIGAND FREE ENERGY PREDICTED BY IDOCK:   -7.79 KCAL/MOL
REMARK 924 INTRA-LIGAND FREE ENERGY PREDICTED BY IDOCK:    0.10 KCAL/MOL
REMARK 927      BINDING AFFINITY PREDICTED BY RF-SCORE:    0.00 PKD
ROOT
HETATM    1  O5* UNL     1     -10.232  10.798  62.431  1.00  0.00    -0.717 OA 
HETATM    2  H5* UNL     1      -9.519  10.590  61.838  1.00  0.00     0.000 HD 
HETATM    3  C5* UNL     1      -9.799  11.649  63.491  1.00  0.00    -0.370 C  
ENDROOT
BRANCH   3   4
HETATM    4  C4* UNL     1     -10.946  11.984  64.444  1.00  0.00    -0.333 C  
HETATM    5  O4* UNL     1     -10.467  12.665  65.617  1.00  0.00    -0.265 OA 
HETATM    6  C1* UNL     1     -11.616  13.328  66.168  1.00  0.00    -0.348 C  
HETATM    7  C2* UNL     1     -12.437  13.802  64.972  1.00  0.00    -0.449 C  
HETATM    8  H3* UNL     1     -13.760  12.695  62.964  1.00  0.00     0.000 HD 
HETATM    9  O3* UNL     1     -13.100  12.127  63.343  1.00  0.00    -0.752 OA 
HETATM   10  C3* UNL     1     -12.006  12.897  63.834  1.00  0.00    -0.480 C  
BRANCH   6  11
HETATM   11  N   UNL     1     -11.236  14.387  67.102  1.00  0.00    -0.316 N  
HETATM   12  C   UNL     1     -11.727  14.432  68.396  1.00  0.00    -0.332 C  
HETATM   13  C   UNL     1     -12.057  15.527  70.601  1.00  0.00    -0.389 C  
HETATM   14  C   UNL     1     -11.496  15.458  69.229  1.00  0.00    -0.344 C  
HETATM   15  C   UNL     1     -10.678  16.572  68.738  1.00  0.00    -0.339 C  
HETATM   16  O   UNL     1     -10.458  17.589  69.385  1.00  0.00    -0.278 OA 
HETATM   17  N   UNL     1     -10.166  16.425  67.477  1.00  0.00    -0.267 N  
HETATM   18  F   UNL     1     -11.833  16.676  71.281  1.00  0.00    -0.370 F  
HETATM   19  F   UNL     1     -13.408  15.359  70.581  1.00  0.00    -0.446 F  
HETATM   20  F   UNL     1     -11.569  14.521  71.377  1.00  0.00    -0.353 F  
HETATM   21  C   UNL     1     -10.445  15.412  66.600  1.00  0.00    -0.293 C  
HETATM   22  H   UNL     1      -9.512  17.141  67.160  1.00  0.00     0.000 HD 
HETATM   23  O   UNL     1     -10.015  15.454  65.449  1.00  0.00    -0.344 OA 
ENDBRANCH   6  11
ENDBRANCH   3   4
TORSDOF 2
ENDMDL
MODEL       19
REMARK 921   NORMALIZED FREE ENERGY PREDICTED BY IDOCK:   -6.41 KCAL/MOL
REMARK 922        TOTAL FREE ENERGY PREDICTED BY IDOCK:   -7.59 KCAL/MOL
REMARK 923 INTER-LIGAND FREE ENERGY PREDICTED BY IDOCK:   -7.16 KCAL/MOL
REMARK 924 INTRA-LIGAND FREE ENERGY PREDICTED BY IDOCK:   -0.43 KCAL/MOL
REMARK 927      BINDING AFFINITY PREDICTED BY RF-SCORE:    0.00 PKD
ROOT
HETATM    1  O5* UNL     1     -11.979  11.550  63.264  1.00  0.00    -0.847 OA 
HETATM    2  H5* UNL     1     -12.001  11.158  62.399  1.00  0.00     0.000 HD 
HETATM    3  C5* UNL     1     -12.199  12.959  63.206  1.00  0.00    -0.397 C  
ENDROOT
BRANCH   3   4
HETATM    4  C4* UNL     1     -12.163  13.589  64.597  1.00  0.00    -0.406 C  
HETATM    5  O4* UNL     1     -12.304  12.592  65.625  1.00  0.00    -0.615 OA 
HETATM    6  C1* UNL     1     -11.789  13.200  66.819  1.00  0.00    -0.385 C  
HETATM    7  C2* UNL     1     -10.604  14.052  66.375  1.00  0.00    -0.280 C  
HETATM    8  H3* UNL     1     -10.203  16.179  64.851  1.00  0.00     0.000 HD 
HETATM    9  O3* UNL     1     -11.013  15.721  64.659  1.00  0.00    -0.446 OA 
HETATM   10  C3* UNL     1     -10.862  14.326  64.906  1.00  0.00    -0.416 C  
BRANCH   6  11
HETATM   11  N   UNL     1     -11.473  12.204  67.843  1.00  0.00    -0.305 N  
HETATM   12  C   UNL     1     -10.983  10.951  67.517  1.00  0.00    -0.293 C  
HETATM   13  C   UNL     1     -10.321   8.622  68.070  1.00  0.00    -0.223 C  
HETATM   14  C   UNL     1     -10.806   9.978  68.424  1.00  0.00    -0.277 C  
HETATM   15  C   UNL     1     -11.142  10.271  69.822  1.00  0.00    -0.287 C  
HETATM   16  O   UNL     1     -11.084   9.443  70.721  1.00  0.00    -0.252 OA 
HETATM   17  N   UNL     1     -11.550  11.553  70.080  1.00  0.00    -0.468 N  
HETATM   18  F   UNL     1     -10.303   7.713  69.072  1.00  0.00    -0.194 F  
HETATM   19  F   UNL     1     -11.085   8.077  67.082  1.00  0.00    -0.325 F  
HETATM   20  F   UNL     1      -9.054   8.672  67.575  1.00  0.00    -0.131 F  
HETATM   21  C   UNL     1     -11.790  12.531  69.154  1.00  0.00    -0.296 C  
HETATM   22  H   UNL     1     -11.688  11.802  71.060  1.00  0.00     0.000 HD 
HETATM   23  O   UNL     1     -12.270  13.609  69.503  1.00  0.00    -0.319 OA 
ENDBRANCH   6  11
ENDBRANCH   3   4
TORSDOF 2
ENDMDL
MODEL       20
REMARK 921   NORMALIZED FREE ENERGY PREDICTED BY IDOCK:   -6.39 KCAL/MOL
REMARK 922        TOTAL FREE ENERGY PREDICTED BY IDOCK:   -7.56 KCAL/MOL
REMARK 923 INTER-LIGAND FREE ENERGY PREDICTED BY IDOCK:   -7.12 KCAL/MOL
REMARK 924 INTRA-LIGAND FREE ENERGY PREDICTED BY IDOCK:   -0.44 KCAL/MOL
REMARK 927      BINDING AFFINITY PREDICTED BY RF-SCORE:    0.00 PKD
ROOT
HETATM    1  O5* UNL     1     -13.724  10.428  72.479  1.00  0.00    -0.544 OA 
HETATM    2  H5* UNL     1     -14.127   9.569  72.454  1.00  0.00     0.000 HD 
HETATM    3  C5* UNL     1     -13.062  10.733  71.252  1.00  0.00    -0.330 C  
ENDROOT
BRANCH   3   4
HETATM    4  C4* UNL     1     -12.414  12.116  71.293  1.00  0.00    -0.185 C  
HETATM    5  O4* UNL     1     -11.841  12.461  70.019  1.00  0.00    -0.326 OA 
HETATM    6  C1* UNL     1     -11.710  13.891  70.036  1.00  0.00    -0.268 C  
HETATM    7  C2* UNL     1     -12.933  14.413  70.784  1.00  0.00    -0.388 C  
HETATM    8  H3* UNL     1     -13.928  14.252  73.232  1.00  0.00     0.000 HD 
HETATM    9  O3* UNL     1     -13.322  13.552  73.021  1.00  0.00    -0.542 OA 
HETATM   10  C3* UNL     1     -13.388  13.241  71.632  1.00  0.00    -0.322 C  
BRANCH   6  11
HETATM   11  N   UNL     1     -11.542  14.437  68.690  1.00  0.00    -0.296 N  
HETATM   12  C   UNL     1     -11.876  13.711  67.559  1.00  0.00    -0.381 C  
HETATM   13  C   UNL     1     -11.933  13.340  65.104  1.00  0.00    -0.381 C  
HETATM   14  C   UNL     1     -11.614  14.137  66.314  1.00  0.00    -0.379 C  
HETATM   15  C   UNL     1     -10.951  15.436  66.156  1.00  0.00    -0.279 C  
HETATM   16  O   UNL     1     -10.604  15.893  65.075  1.00  0.00    -0.497 OA 
HETATM   17  N   UNL     1     -10.718  16.130  67.314  1.00  0.00    -0.304 N  
HETATM   18  F   UNL     1     -11.505  13.848  63.924  1.00  0.00    -0.353 F  
HETATM   19  F   UNL     1     -11.399  12.091  65.191  1.00  0.00    -0.344 F  
HETATM   20  F   UNL     1     -13.277  13.162  64.980  1.00  0.00    -0.425 F  
HETATM   21  C   UNL     1     -10.927  15.678  68.588  1.00  0.00    -0.294 C  
HETATM   22  H   UNL     1     -10.353  17.077  67.216  1.00  0.00     0.000 HD 
HETATM   23  O   UNL     1     -10.565  16.352  69.551  1.00  0.00    -0.287 OA 
ENDBRANCH   6  11
ENDBRANCH   3   4
TORSDOF 2
ENDMDL
MODEL       21
REMARK 921   NORMALIZED FREE ENERGY PREDICTED BY IDOCK:   -6.38 KCAL/MOL
REMARK 922        TOTAL FREE ENERGY PREDICTED BY IDOCK:   -7.56 KCAL/MOL
REMARK 923 INTER-LIGAND FREE ENERGY PREDICTED BY IDOCK:   -7.12 KCAL/MOL
REMARK 924 INTRA-LIGAND FREE ENERGY PREDICTED BY IDOCK:   -0.44 KCAL/MOL
REMARK 927      BINDING AFFINITY PREDICTED BY RF-SCORE:    0.00 PKD
ROOT
HETATM    1  O5* UNL     1      -7.860  10.158  70.508  1.00  0.00    -0.424 OA 
HETATM    2  H5* UNL     1      -6.928  10.077  70.675  1.00  0.00     0.000 HD 
HETATM    3  C5* UNL     1      -8.338   9.096  69.683  1.00  0.00    -0.130 C  
ENDROOT
BRANCH   3   4
HETATM    4  C4* UNL     1      -9.837   9.226  69.416  1.00  0.00    -0.174 C  
HETATM    5  O4* UNL     1     -10.484  10.000  70.442  1.00  0.00    -0.281 OA 
HETATM    6  C1* UNL     1     -11.718  10.448  69.860  1.00  0.00    -0.264 C  
HETATM    7  C2* UNL     1     -11.404  10.747  68.396  1.00  0.00    -0.367 C  
HETATM    8  H3* UNL     1     -10.629   9.390  66.259  1.00  0.00     0.000 HD 
HETATM    9  O3* UNL     1     -10.423   8.957  67.080  1.00  0.00    -0.274 OA 
HETATM   10  C3* UNL     1     -10.167   9.921  68.097  1.00  0.00    -0.179 C  
BRANCH   6  11
HETATM   11  N   UNL     1     -12.292  11.571  70.600  1.00  0.00    -0.373 N  
HETATM   12  C   UNL     1     -11.962  12.883  70.309  1.00  0.00    -0.283 C  
HETATM   13  C   UNL     1     -11.985  15.325  70.767  1.00  0.00    -0.339 C  
HETATM   14  C   UNL     1     -12.374  13.922  71.053  1.00  0.00    -0.453 C  
HETATM   15  C   UNL     1     -13.219  13.641  72.218  1.00  0.00    -0.469 C  
HETATM   16  O   UNL     1     -13.597  14.500  73.005  1.00  0.00    -0.586 OA 
HETATM   17  N   UNL     1     -13.565  12.329  72.401  1.00  0.00    -0.543 N  
HETATM   18  F   UNL     1     -12.382  16.251  71.670  1.00  0.00    -0.478 F  
HETATM   19  F   UNL     1     -10.631  15.444  70.676  1.00  0.00    -0.316 F  
HETATM   20  F   UNL     1     -12.475  15.729  69.563  1.00  0.00    -0.347 F  
HETATM   21  C   UNL     1     -13.101  11.259  71.684  1.00  0.00    -0.408 C  
HETATM   22  H   UNL     1     -14.235  12.129  73.144  1.00  0.00     0.000 HD 
HETATM   23  O   UNL     1     -13.395  10.114  72.022  1.00  0.00    -0.434 OA 
ENDBRANCH   6  11
ENDBRANCH   3   4
TORSDOF 2
ENDMDL
MODEL       22
REMARK 921   NORMALIZED FREE ENERGY PREDICTED BY IDOCK:   -6.35 KCAL/MOL
REMARK 922        TOTAL FREE ENERGY PREDICTED BY IDOCK:   -7.52 KCAL/MOL
REMARK 923 INTER-LIGAND FREE ENERGY PREDICTED BY IDOCK:   -7.23 KCAL/MOL
REMARK 924 INTRA-LIGAND FREE ENERGY PREDICTED BY IDOCK:   -0.29 KCAL/MOL
REMARK 927      BINDING AFFINITY PREDICTED BY RF-SCORE:    0.00 PKD
ROOT
HETATM    1  O5* UNL     1     -11.181   7.448  68.949  1.00  0.00    -0.439 OA 
HETATM    2  H5* UNL     1     -11.067   6.549  68.665  1.00  0.00     0.000 HD 
HETATM    3  C5* UNL     1     -10.086   8.268  68.544  1.00  0.00    -0.197 C  
ENDROOT
BRANCH   3   4
HETATM    4  C4* UNL     1     -10.270   9.714  69.000  1.00  0.00    -0.199 C  
HETATM    5  O4* UNL     1     -10.375  10.606  67.876  1.00  0.00    -0.182 OA 
HETATM    6  C1* UNL     1     -11.004  11.791  68.387  1.00  0.00    -0.231 C  
HETATM    7  C2* UNL     1     -12.028  11.310  69.412  1.00  0.00    -0.410 C  
HETATM    8  H3* UNL     1     -12.001  10.049  71.740  1.00  0.00     0.000 HD 
HETATM    9  O3* UNL     1     -11.217   9.908  71.222  1.00  0.00    -0.361 OA 
HETATM   10  C3* UNL     1     -11.529   9.940  69.832  1.00  0.00    -0.179 C  
BRANCH   6  11
HETATM   11  N   UNL     1     -11.559  12.617  67.316  1.00  0.00    -0.344 N  
HETATM   12  C   UNL     1     -11.647  12.161  66.012  1.00  0.00    -0.358 C  
HETATM   13  C   UNL     1     -12.086  12.464  63.586  1.00  0.00    -0.556 C  
HETATM   14  C   UNL     1     -12.032  12.940  64.990  1.00  0.00    -0.445 C  
HETATM   15  C   UNL     1     -12.381  14.335  65.282  1.00  0.00    -0.424 C  
HETATM   16  O   UNL     1     -12.680  15.153  64.422  1.00  0.00    -0.477 OA 
HETATM   17  N   UNL     1     -12.342  14.695  66.602  1.00  0.00    -0.378 N  
HETATM   18  F   UNL     1     -12.382  13.396  62.649  1.00  0.00    -0.364 F  
HETATM   19  F   UNL     1     -10.895  11.920  63.213  1.00  0.00    -0.400 F  
HETATM   20  F   UNL     1     -13.008  11.473  63.444  1.00  0.00    -0.594 F  
HETATM   21  C   UNL     1     -11.893  13.925  67.641  1.00  0.00    -0.386 C  
HETATM   22  H   UNL     1     -12.680  15.629  66.835  1.00  0.00     0.000 HD 
HETATM   23  O   UNL     1     -11.795  14.404  68.769  1.00  0.00    -0.309 OA 
ENDBRANCH   6  11
ENDBRANCH   3   4
TORSDOF 2
ENDMDL
MODEL       23
REMARK 921   NORMALIZED FREE ENERGY PREDICTED BY IDOCK:   -6.32 KCAL/MOL
REMARK 922        TOTAL FREE ENERGY PREDICTED BY IDOCK:   -7.49 KCAL/MOL
REMARK 923 INTER-LIGAND FREE ENERGY PREDICTED BY IDOCK:   -7.32 KCAL/MOL
REMARK 924 INTRA-LIGAND FREE ENERGY PREDICTED BY IDOCK:   -0.17 KCAL/MOL
REMARK 927      BINDING AFFINITY PREDICTED BY RF-SCORE:    0.00 PKD
ROOT
HETATM    1  O5* UNL     1     -10.427  19.819  69.699  1.00  0.00    -0.565 OA 
HETATM    2  H5* UNL     1     -10.679  20.714  69.888  1.00  0.00     0.000 HD 
HETATM    3  C5* UNL     1     -10.017  19.666  68.341  1.00  0.00    -0.439 C  
ENDROOT
BRANCH   3   4
HETATM    4  C4* UNL     1      -9.611  18.224  68.037  1.00  0.00    -0.304 C  
HETATM    5  O4* UNL     1     -10.090  17.323  69.051  1.00  0.00    -0.312 OA 
HETATM    6  C1* UNL     1     -10.079  16.023  68.442  1.00  0.00    -0.229 C  
HETATM    7  C2* UNL     1     -10.492  16.241  66.989  1.00  0.00    -0.306 C  
HETATM    8  H3* UNL     1      -9.528  17.491  64.863  1.00  0.00     0.000 HD 
HETATM    9  O3* UNL     1      -9.185  17.820  65.686  1.00  0.00    -0.383 OA 
HETATM   10  C3* UNL     1     -10.162  17.696  66.715  1.00  0.00    -0.335 C  
BRANCH   6  11
HETATM   11  N   UNL     1     -10.915  15.073  69.175  1.00  0.00    -0.249 N  
HETATM   12  C   UNL     1     -11.722  15.469  70.227  1.00  0.00    -0.346 C  
HETATM   13  C   UNL     1     -13.229  15.022  72.151  1.00  0.00    -0.368 C  
HETATM   14  C   UNL     1     -12.399  14.602  70.996  1.00  0.00    -0.403 C  
HETATM   15  C   UNL     1     -12.277  13.172  70.690  1.00  0.00    -0.321 C  
HETATM   16  O   UNL     1     -12.793  12.288  71.362  1.00  0.00    -0.375 OA 
HETATM   17  N   UNL     1     -11.522  12.860  69.591  1.00  0.00    -0.462 N  
HETATM   18  F   UNL     1     -13.758  14.027  72.901  1.00  0.00    -0.558 F  
HETATM   19  F   UNL     1     -12.510  15.798  73.008  1.00  0.00    -0.402 F  
HETATM   20  F   UNL     1     -14.276  15.791  71.742  1.00  0.00    -0.514 F  
HETATM   21  C   UNL     1     -10.782  13.732  68.840  1.00  0.00    -0.227 C  
HETATM   22  H   UNL     1     -11.511  11.881  69.304  1.00  0.00     0.000 HD 
HETATM   23  O   UNL     1     -10.049  13.311  67.947  1.00  0.00    -0.223 OA 
ENDBRANCH   6  11
ENDBRANCH   3   4
TORSDOF 2
ENDMDL
MODEL       24
REMARK 921   NORMALIZED FREE ENERGY PREDICTED BY IDOCK:   -6.30 KCAL/MOL
REMARK 922        TOTAL FREE ENERGY PREDICTED BY IDOCK:   -7.47 KCAL/MOL
REMARK 923 INTER-LIGAND FREE ENERGY PREDICTED BY IDOCK:   -7.74 KCAL/MOL
REMARK 924 INTRA-LIGAND FREE ENERGY PREDICTED BY IDOCK:    0.26 KCAL/MOL
REMARK 927      BINDING AFFINITY PREDICTED BY RF-SCORE:    0.00 PKD
ROOT
HETATM    1  O5* UNL     1     -12.590  12.470  63.422  1.00  0.00    -0.690 OA 
HETATM    2  H5* UNL     1     -13.063  12.482  62.598  1.00  0.00     0.000 HD 
HETATM    3  C5* UNL     1     -12.175  13.780  63.806  1.00  0.00    -0.311 C  
ENDROOT
BRANCH   3   4
HETATM    4  C4* UNL     1     -11.414  13.760  65.131  1.00  0.00    -0.321 C  
HETATM    5  O4* UNL     1     -10.941  15.073  65.481  1.00  0.00    -0.328 OA 
HETATM    6  C1* UNL     1     -10.691  15.025  66.894  1.00  0.00    -0.308 C  
HETATM    7  C2* UNL     1     -11.789  14.142  67.481  1.00  0.00    -0.437 C  
HETATM    8  H3* UNL     1     -12.551  11.613  67.302  1.00  0.00     0.000 HD 
HETATM    9  O3* UNL     1     -12.029  11.906  66.565  1.00  0.00    -0.588 OA 
HETATM   10  C3* UNL     1     -12.255  13.290  66.316  1.00  0.00    -0.377 C  
BRANCH   6  11
HETATM   11  N   UNL     1     -10.610  16.363  67.478  1.00  0.00    -0.312 N  
HETATM   12  C   UNL     1     -10.345  17.482  66.707  1.00  0.00    -0.314 C  
HETATM   13  C   UNL     1      -9.814  19.891  66.411  1.00  0.00    -0.459 C  
HETATM   14  C   UNL     1     -10.140  18.700  67.233  1.00  0.00    -0.388 C  
HETATM   15  C   UNL     1     -10.210  18.839  68.692  1.00  0.00    -0.313 C  
HETATM   16  O   UNL     1      -9.975  19.884  69.285  1.00  0.00    -0.370 OA 
HETATM   17  N   UNL     1     -10.549  17.707  69.383  1.00  0.00    -0.328 N  
HETATM   18  F   UNL     1      -9.520  21.024  67.091  1.00  0.00    -0.532 F  
HETATM   19  F   UNL     1      -8.742  19.646  65.607  1.00  0.00    -0.271 F  
HETATM   20  F   UNL     1     -10.842  20.201  65.576  1.00  0.00    -0.529 F  
HETATM   21  C   UNL     1     -10.701  16.451  68.860  1.00  0.00    -0.319 C  
HETATM   22  H   UNL     1     -10.704  17.809  70.386  1.00  0.00     0.000 HD 
HETATM   23  O   UNL     1     -10.889  15.490  69.604  1.00  0.00    -0.240 OA 
ENDBRANCH   6  11
ENDBRANCH   3   4
TORSDOF 2
ENDMDL
MODEL       25
REMARK 921   NORMALIZED FREE ENERGY PREDICTED BY IDOCK:   -6.27 KCAL/MOL
REMARK 922        TOTAL FREE ENERGY PREDICTED BY IDOCK:   -7.43 KCAL/MOL
REMARK 923 INTER-LIGAND FREE ENERGY PREDICTED BY IDOCK:   -7.07 KCAL/MOL
REMARK 924 INTRA-LIGAND FREE ENERGY PREDICTED BY IDOCK:   -0.36 KCAL/MOL
REMARK 927      BINDING AFFINITY PREDICTED BY RF-SCORE:    0.00 PKD
ROOT
HETATM    1  O5* UNL     1     -10.398  18.293  69.239  1.00  0.00    -0.452 OA 
HETATM    2  H5* UNL     1      -9.639  18.782  69.533  1.00  0.00     0.000 HD 
HETATM    3  C5* UNL     1     -10.042  16.980  68.809  1.00  0.00    -0.307 C  
ENDROOT
BRANCH   3   4
HETATM    4  C4* UNL     1     -11.264  16.195  68.336  1.00  0.00    -0.358 C  
HETATM    5  O4* UNL     1     -11.054  15.643  67.024  1.00  0.00    -0.297 OA 
HETATM    6  C1* UNL     1     -12.010  14.580  66.900  1.00  0.00    -0.346 C  
HETATM    7  C2* UNL     1     -12.096  13.934  68.280  1.00  0.00    -0.322 C  
HETATM    8  H3* UNL     1     -12.866  14.643  70.712  1.00  0.00     0.000 HD 
HETATM    9  O3* UNL     1     -12.645  15.379  70.153  1.00  0.00    -0.364 OA 
HETATM   10  C3* UNL     1     -11.620  15.012  69.234  1.00  0.00    -0.315 C  
BRANCH   6  11
HETATM   11  N   UNL     1     -11.661  13.659  65.818  1.00  0.00    -0.335 N  
HETATM   12  C   UNL     1     -10.979  12.478  66.055  1.00  0.00    -0.283 C  
HETATM   13  C   UNL     1      -9.767  10.437  65.323  1.00  0.00    -0.278 C  
HETATM   14  C   UNL     1     -10.536  11.681  65.071  1.00  0.00    -0.342 C  
HETATM   15  C   UNL     1     -10.801  12.085  63.686  1.00  0.00    -0.446 C  
HETATM   16  O   UNL     1     -10.388  11.473  62.710  1.00  0.00    -0.156 OA 
HETATM   17  N   UNL     1     -11.545  13.224  63.530  1.00  0.00    -0.679 N  
HETATM   18  F   UNL     1      -9.289   9.799  64.229  1.00  0.00    -0.272 F  
HETATM   19  F   UNL     1      -8.689  10.686  66.115  1.00  0.00    -0.148 F  
HETATM   20  F   UNL     1     -10.522   9.527  65.997  1.00  0.00    -0.310 F  
HETATM   21  C   UNL     1     -11.948  14.074  64.525  1.00  0.00    -0.448 C  
HETATM   22  H   UNL     1     -11.826  13.463  62.579  1.00  0.00     0.000 HD 
HETATM   23  O   UNL     1     -12.510  15.131  64.245  1.00  0.00    -0.612 OA 
ENDBRANCH   6  11
ENDBRANCH   3   4
TORSDOF 2
ENDMDL
MODEL       26
REMARK 921   NORMALIZED FREE ENERGY PREDICTED BY IDOCK:   -6.17 KCAL/MOL
REMARK 922        TOTAL FREE ENERGY PREDICTED BY IDOCK:   -7.32 KCAL/MOL
REMARK 923 INTER-LIGAND FREE ENERGY PREDICTED BY IDOCK:   -6.86 KCAL/MOL
REMARK 924 INTRA-LIGAND FREE ENERGY PREDICTED BY IDOCK:   -0.46 KCAL/MOL
REMARK 927      BINDING AFFINITY PREDICTED BY RF-SCORE:    0.00 PKD
ROOT
HETATM    1  O5* UNL     1     -12.514  15.688  68.980  1.00  0.00    -0.596 OA 
HETATM    2  H5* UNL     1     -12.806  16.509  69.358  1.00  0.00     0.000 HD 
HETATM    3  C5* UNL     1     -11.227  15.818  68.376  1.00  0.00    -0.362 C  
ENDROOT
BRANCH   3   4
HETATM    4  C4* UNL     1     -10.758  14.498  67.767  1.00  0.00    -0.256 C  
HETATM    5  O4* UNL     1     -10.423  13.543  68.790  1.00  0.00    -0.245 OA 
HETATM    6  C1* UNL     1     -10.470  12.261  68.144  1.00  0.00    -0.217 C  
HETATM    7  C2* UNL     1     -11.628  12.336  67.153  1.00  0.00    -0.423 C  
HETATM    8  H3* UNL     1     -12.231  13.708  64.970  1.00  0.00     0.000 HD 
HETATM    9  O3* UNL     1     -11.579  14.130  65.517  1.00  0.00    -0.322 OA 
HETATM   10  C3* UNL     1     -11.806  13.819  66.889  1.00  0.00    -0.413 C  
BRANCH   6  11
HETATM   11  N   UNL     1     -10.568  11.169  69.112  1.00  0.00    -0.217 N  
HETATM   12  C   UNL     1     -11.705  10.967  69.874  1.00  0.00    -0.346 C  
HETATM   13  C   UNL     1     -12.977   9.867  71.703  1.00  0.00    -0.434 C  
HETATM   14  C   UNL     1     -11.774  10.055  70.856  1.00  0.00    -0.462 C  
HETATM   15  C   UNL     1     -10.586   9.234  71.117  1.00  0.00    -0.332 C  
HETATM   16  O   UNL     1     -10.511   8.420  72.028  1.00  0.00    -0.260 OA 
HETATM   17  N   UNL     1      -9.525   9.438  70.275  1.00  0.00    -0.233 N  
HETATM   18  F   UNL     1     -12.858   8.990  72.726  1.00  0.00    -0.457 F  
HETATM   19  F   UNL     1     -13.365  11.047  72.261  1.00  0.00    -0.575 F  
HETATM   20  F   UNL     1     -14.035   9.444  70.957  1.00  0.00    -0.391 F  
HETATM   21  C   UNL     1      -9.425  10.405  69.313  1.00  0.00    -0.198 C  
HETATM   22  H   UNL     1      -8.731   8.805  70.376  1.00  0.00     0.000 HD 
HETATM   23  O   UNL     1      -8.370  10.563  68.701  1.00  0.00    -0.117 OA 
ENDBRANCH   6  11
ENDBRANCH   3   4
TORSDOF 2
ENDMDL
MODEL       27
REMARK 921   NORMALIZED FREE ENERGY PREDICTED BY IDOCK:   -6.16 KCAL/MOL
REMARK 922        TOTAL FREE ENERGY PREDICTED BY IDOCK:   -7.31 KCAL/MOL
REMARK 923 INTER-LIGAND FREE ENERGY PREDICTED BY IDOCK:   -6.84 KCAL/MOL
REMARK 924 INTRA-LIGAND FREE ENERGY PREDICTED BY IDOCK:   -0.47 KCAL/MOL
REMARK 927      BINDING AFFINITY PREDICTED BY RF-SCORE:    0.00 PKD
ROOT
HETATM    1  O5* UNL     1      -9.190  16.649  67.274  1.00  0.00    -0.217 OA 
HETATM    2  H5* UNL     1      -8.518  17.296  67.455  1.00  0.00     0.000 HD 
HETATM    3  C5* UNL     1      -8.652  15.507  66.610  1.00  0.00    -0.290 C  
ENDROOT
BRANCH   3   4
HETATM    4  C4* UNL     1      -9.733  14.467  66.319  1.00  0.00    -0.310 C  
HETATM    5  O4* UNL     1      -9.963  13.620  67.460  1.00  0.00    -0.225 OA 
HETATM    6  C1* UNL     1     -11.262  13.045  67.252  1.00  0.00    -0.289 C  
HETATM    7  C2* UNL     1     -12.103  14.141  66.604  1.00  0.00    -0.480 C  
HETATM    8  H3* UNL     1     -12.100  15.508  64.337  1.00  0.00     0.000 HD 
HETATM    9  O3* UNL     1     -11.256  15.131  64.555  1.00  0.00    -0.349 OA 
HETATM   10  C3* UNL     1     -11.090  15.073  65.969  1.00  0.00    -0.329 C  
BRANCH   6  11
HETATM   11  N   UNL     1     -11.819  12.502  68.490  1.00  0.00    -0.315 N  
HETATM   12  C   UNL     1     -12.262  13.321  69.514  1.00  0.00    -0.178 C  
HETATM   13  C   UNL     1     -13.091  13.731  71.819  1.00  0.00    -0.379 C  
HETATM   14  C   UNL     1     -12.658  12.851  70.707  1.00  0.00    -0.314 C  
HETATM   15  C   UNL     1     -12.625  11.399  70.919  1.00  0.00    -0.356 C  
HETATM   16  O   UNL     1     -12.898  10.864  71.985  1.00  0.00    -0.393 OA 
HETATM   17  N   UNL     1     -12.247  10.648  69.838  1.00  0.00    -0.453 N  
HETATM   18  F   UNL     1     -13.351  13.119  72.999  1.00  0.00    -0.478 F  
HETATM   19  F   UNL     1     -12.148  14.676  72.085  1.00  0.00    -0.379 F  
HETATM   20  F   UNL     1     -14.219  14.416  71.486  1.00  0.00    -0.436 F  
HETATM   21  C   UNL     1     -11.785  11.122  68.641  1.00  0.00    -0.320 C  
HETATM   22  H   UNL     1     -12.317   9.635  69.936  1.00  0.00     0.000 HD 
HETATM   23  O   UNL     1     -11.363  10.342  67.788  1.00  0.00    -0.353 OA 
ENDBRANCH   6  11
ENDBRANCH   3   4
TORSDOF 2
ENDMDL
MODEL       28
REMARK 921   NORMALIZED FREE ENERGY PREDICTED BY IDOCK:   -6.13 KCAL/MOL
REMARK 922        TOTAL FREE ENERGY PREDICTED BY IDOCK:   -7.28 KCAL/MOL
REMARK 923 INTER-LIGAND FREE ENERGY PREDICTED BY IDOCK:   -6.81 KCAL/MOL
REMARK 924 INTRA-LIGAND FREE ENERGY PREDICTED BY IDOCK:   -0.47 KCAL/MOL
REMARK 927      BINDING AFFINITY PREDICTED BY RF-SCORE:    0.00 PKD
ROOT
HETATM    1  O5* UNL     1     -11.553  10.339  68.042  1.00  0.00    -0.673 OA 
HETATM    2  H5* UNL     1     -11.471   9.871  68.864  1.00  0.00     0.000 HD 
HETATM    3  C5* UNL     1     -11.551  11.752  68.240  1.00  0.00    -0.308 C  
ENDROOT
BRANCH   3   4
HETATM    4  C4* UNL     1     -11.683  12.503  66.916  1.00  0.00    -0.377 C  
HETATM    5  O4* UNL     1     -11.707  13.926  67.124  1.00  0.00    -0.345 OA 
HETATM    6  C1* UNL     1     -11.354  14.503  65.857  1.00  0.00    -0.341 C  
HETATM    7  C2* UNL     1     -10.303  13.573  65.256  1.00  0.00    -0.344 C  
HETATM    8  H3* UNL     1     -10.184  11.070  64.402  1.00  0.00     0.000 HD 
HETATM    9  O3* UNL     1     -10.898  11.232  65.007  1.00  0.00    -0.282 OA 
HETATM   10  C3* UNL     1     -10.535  12.242  65.944  1.00  0.00    -0.256 C  
BRANCH   6  11
HETATM   11  N   UNL     1     -10.927  15.895  65.994  1.00  0.00    -0.207 N  
HETATM   12  C   UNL     1     -10.442  16.397  67.189  1.00  0.00    -0.297 C  
HETATM   13  C   UNL     1      -9.685  18.242  68.670  1.00  0.00    -0.361 C  
HETATM   14  C   UNL     1     -10.164  17.696  67.376  1.00  0.00    -0.345 C  
HETATM   15  C   UNL     1     -10.382  18.615  66.253  1.00  0.00    -0.444 C  
HETATM   16  O   UNL     1     -10.228  19.827  66.329  1.00  0.00    -0.432 OA 
HETATM   17  N   UNL     1     -10.792  18.037  65.082  1.00  0.00     0.215 N  
HETATM   18  F   UNL     1      -9.559  19.588  68.741  1.00  0.00    -0.400 F  
HETATM   19  F   UNL     1     -10.521  17.888  69.685  1.00  0.00    -0.254 F  
HETATM   20  F   UNL     1      -8.468  17.726  68.994  1.00  0.00    -0.252 F  
HETATM   21  C   UNL     1     -11.134  16.724  64.899  1.00  0.00    -0.054 C  
HETATM   22  H   UNL     1     -10.848  18.645  64.264  1.00  0.00     0.000 HD 
HETATM   23  O   UNL     1     -11.603  16.350  63.826  1.00  0.00    -1.055 OA 
ENDBRANCH   6  11
ENDBRANCH   3   4
TORSDOF 2
ENDMDL
MODEL       29
REMARK 921   NORMALIZED FREE ENERGY PREDICTED BY IDOCK:   -6.12 KCAL/MOL
REMARK 922        TOTAL FREE ENERGY PREDICTED BY IDOCK:   -7.26 KCAL/MOL
REMARK 923 INTER-LIGAND FREE ENERGY PREDICTED BY IDOCK:   -7.48 KCAL/MOL
REMARK 924 INTRA-LIGAND FREE ENERGY PREDICTED BY IDOCK:    0.22 KCAL/MOL
REMARK 927      BINDING AFFINITY PREDICTED BY RF-SCORE:    0.00 PKD
ROOT
HETATM    1  O5* UNL     1     -12.309  10.822  68.369  1.00  0.00    -0.813 OA 
HETATM    2  H5* UNL     1     -12.015   9.979  68.694  1.00  0.00     0.000 HD 
HETATM    3  C5* UNL     1     -11.423  11.338  67.376  1.00  0.00    -0.221 C  
ENDROOT
BRANCH   3   4
HETATM    4  C4* UNL     1     -11.896  12.693  66.854  1.00  0.00    -0.355 C  
HETATM    5  O4* UNL     1     -11.075  13.762  67.357  1.00  0.00    -0.284 OA 
HETATM    6  C1* UNL     1     -11.291  14.864  66.462  1.00  0.00    -0.319 C  
HETATM    7  C2* UNL     1     -11.434  14.249  65.072  1.00  0.00    -0.364 C  
HETATM    8  H3* UNL     1     -13.112  12.620  63.832  1.00  0.00     0.000 HD 
HETATM    9  O3* UNL     1     -13.138  12.544  64.778  1.00  0.00    -0.853 OA 
HETATM   10  C3* UNL     1     -11.854  12.815  65.332  1.00  0.00    -0.415 C  
BRANCH   6  11
HETATM   11  N   UNL     1     -10.238  15.871  66.575  1.00  0.00    -0.279 N  
HETATM   12  C   UNL     1     -10.522  17.226  66.609  1.00  0.00    -0.257 C  
HETATM   13  C   UNL     1      -9.876  19.624  66.577  1.00  0.00    -0.420 C  
HETATM   14  C   UNL     1      -9.571  18.172  66.584  1.00  0.00    -0.306 C  
HETATM   15  C   UNL     1      -8.171  17.739  66.528  1.00  0.00    -0.269 C  
HETATM   16  O   UNL     1      -7.225  18.511  66.434  1.00  0.00    -0.215 OA 
HETATM   17  N   UNL     1      -7.964  16.386  66.572  1.00  0.00    -0.290 N  
HETATM   18  F   UNL     1      -8.818  20.456  66.434  1.00  0.00    -0.331 F  
HETATM   19  F   UNL     1     -10.737  19.933  65.568  1.00  0.00    -0.587 F  
HETATM   20  F   UNL     1     -10.503  19.995  67.727  1.00  0.00    -0.509 F  
HETATM   21  C   UNL     1      -8.927  15.415  66.537  1.00  0.00    -0.309 C  
HETATM   22  H   UNL     1      -6.995  16.072  66.639  1.00  0.00     0.000 HD 
HETATM   23  O   UNL     1      -8.608  14.230  66.462  1.00  0.00    -0.083 OA 
ENDBRANCH   6  11
ENDBRANCH   3   4
TORSDOF 2
ENDMDL
MODEL       30
REMARK 921   NORMALIZED FREE ENERGY PREDICTED BY IDOCK:   -6.06 KCAL/MOL
REMARK 922        TOTAL FREE ENERGY PREDICTED BY IDOCK:   -7.20 KCAL/MOL
REMARK 923 INTER-LIGAND FREE ENERGY PREDICTED BY IDOCK:   -6.66 KCAL/MOL
REMARK 924 INTRA-LIGAND FREE ENERGY PREDICTED BY IDOCK:   -0.54 KCAL/MOL
REMARK 927      BINDING AFFINITY PREDICTED BY RF-SCORE:    0.00 PKD
ROOT
HETATM    1  O5* UNL     1      -6.966  19.958  68.297  1.00  0.00    -0.281 OA 
HETATM    2  H5* UNL     1      -6.101  20.076  68.669  1.00  0.00     0.000 HD 
HETATM    3  C5* UNL     1      -7.029  18.792  67.477  1.00  0.00    -0.202 C  
ENDROOT
BRANCH   3   4
HETATM    4  C4* UNL     1      -8.422  18.603  66.878  1.00  0.00    -0.273 C  
HETATM    5  O4* UNL     1      -8.818  17.220  66.904  1.00  0.00    -0.224 OA 
HETATM    6  C1* UNL     1     -10.249  17.230  66.783  1.00  0.00    -0.318 C  
HETATM    7  C2* UNL     1     -10.724  18.446  67.573  1.00  0.00    -0.399 C  
HETATM    8  H3* UNL     1     -10.469  21.078  67.429  1.00  0.00     0.000 HD 
HETATM    9  O3* UNL     1      -9.787  20.604  66.968  1.00  0.00    -0.450 OA 
HETATM   10  C3* UNL     1      -9.518  19.365  67.619  1.00  0.00    -0.313 C  
BRANCH   6  11
HETATM   11  N   UNL     1     -10.839  15.961  67.207  1.00  0.00    -0.309 N  
HETATM   12  C   UNL     1     -11.319  15.771  68.491  1.00  0.00    -0.374 C  
HETATM   13  C   UNL     1     -12.221  14.367  70.331  1.00  0.00    -0.338 C  
HETATM   14  C   UNL     1     -11.747  14.582  68.942  1.00  0.00    -0.354 C  
HETATM   15  C   UNL     1     -11.708  13.442  68.020  1.00  0.00    -0.356 C  
HETATM   16  O   UNL     1     -12.009  12.299  68.340  1.00  0.00    -0.326 OA 
HETATM   17  N   UNL     1     -11.291  13.721  66.745  1.00  0.00    -0.319 N  
HETATM   18  F   UNL     1     -12.511  13.090  70.673  1.00  0.00    -0.393 F  
HETATM   19  F   UNL     1     -11.294  14.796  71.232  1.00  0.00    -0.340 F  
HETATM   20  F   UNL     1     -13.344  15.095  70.579  1.00  0.00    -0.381 F  
HETATM   21  C   UNL     1     -10.797  14.915  66.295  1.00  0.00    -0.331 C  
HETATM   22  H   UNL     1     -11.356  12.964  66.064  1.00  0.00     0.000 HD 
HETATM   23  O   UNL     1     -10.343  15.007  65.156  1.00  0.00    -0.379 OA 
ENDBRANCH   6  11
ENDBRANCH   3   4
TORSDOF 2
ENDMDL
MODEL       31
REMARK 921   NORMALIZED FREE ENERGY PREDICTED BY IDOCK:   -6.00 KCAL/MOL
REMARK 922        TOTAL FREE ENERGY PREDICTED BY IDOCK:   -7.14 KCAL/MOL
REMARK 923 INTER-LIGAND FREE ENERGY PREDICTED BY IDOCK:   -6.69 KCAL/MOL
REMARK 924 INTRA-LIGAND FREE ENERGY PREDICTED BY IDOCK:   -0.44 KCAL/MOL
REMARK 927      BINDING AFFINITY PREDICTED BY RF-SCORE:    0.00 PKD
ROOT
HETATM    1  O5* UNL     1     -10.961  16.367  67.711  1.00  0.00    -0.325 OA 
HETATM    2  H5* UNL     1     -10.907  16.957  68.453  1.00  0.00     0.000 HD 
HETATM    3  C5* UNL     1     -10.060  16.748  66.672  1.00  0.00    -0.300 C  
ENDROOT
BRANCH   3   4
HETATM    4  C4* UNL     1     -10.148  15.799  65.478  1.00  0.00    -0.351 C  
HETATM    5  O4* UNL     1      -9.734  14.469  65.837  1.00  0.00    -0.311 OA 
HETATM    6  C1* UNL     1     -10.297  13.610  64.833  1.00  0.00    -0.388 C  
HETATM    7  C2* UNL     1     -11.663  14.202  64.498  1.00  0.00    -0.426 C  
HETATM    8  H3* UNL     1     -12.604  16.436  63.433  1.00  0.00     0.000 HD 
HETATM    9  O3* UNL     1     -11.727  16.524  63.788  1.00  0.00    -1.086 OA 
HETATM   10  C3* UNL     1     -11.557  15.659  64.907  1.00  0.00    -0.156 C  
BRANCH   6  11
HETATM   11  N   UNL     1     -10.329  12.215  65.268  1.00  0.00    -0.270 N  
HETATM   12  C   UNL     1     -10.637  11.862  66.571  1.00  0.00    -0.243 C  
HETATM   13  C   UNL     1     -10.838  10.230  68.433  1.00  0.00    -0.245 C  
HETATM   14  C   UNL     1     -10.550  10.602  67.026  1.00  0.00    -0.317 C  
HETATM   15  C   UNL     1     -10.115   9.561  66.089  1.00  0.00    -0.256 C  
HETATM   16  O   UNL     1      -9.935   8.393  66.409  1.00  0.00    -0.263 OA 
HETATM   17  N   UNL     1      -9.900   9.971  64.801  1.00  0.00    -0.373 N  
HETATM   18  F   UNL     1     -10.595   8.942  68.772  1.00  0.00    -0.225 F  
HETATM   19  F   UNL     1     -10.109  10.991  69.295  1.00  0.00    -0.220 F  
HETATM   20  F   UNL     1     -12.143  10.467  68.741  1.00  0.00    -0.294 F  
HETATM   21  C   UNL     1      -9.928  11.260  64.343  1.00  0.00    -0.288 C  
HETATM   22  H   UNL     1      -9.698   9.243  64.114  1.00  0.00     0.000 HD 
HETATM   23  O   UNL     1      -9.599  11.513  63.185  1.00  0.00    -0.355 OA 
ENDBRANCH   6  11
ENDBRANCH   3   4
TORSDOF 2
ENDMDL
MODEL       32
REMARK 921   NORMALIZED FREE ENERGY PREDICTED BY IDOCK:   -5.96 KCAL/MOL
REMARK 922        TOTAL FREE ENERGY PREDICTED BY IDOCK:   -7.09 KCAL/MOL
REMARK 923 INTER-LIGAND FREE ENERGY PREDICTED BY IDOCK:   -6.88 KCAL/MOL
REMARK 924 INTRA-LIGAND FREE ENERGY PREDICTED BY IDOCK:   -0.21 KCAL/MOL
REMARK 927      BINDING AFFINITY PREDICTED BY RF-SCORE:    0.00 PKD
ROOT
HETATM    1  O5* UNL     1      -8.046  12.599  66.596  1.00  0.00    -0.405 OA 
HETATM    2  H5* UNL     1      -7.306  12.004  66.609  1.00  0.00     0.000 HD 
HETATM    3  C5* UNL     1      -9.179  12.010  65.959  1.00  0.00    -0.149 C  
ENDROOT
BRANCH   3   4
HETATM    4  C4* UNL     1     -10.370  12.967  65.938  1.00  0.00    -0.285 C  
HETATM    5  O4* UNL     1     -10.255  13.965  66.968  1.00  0.00    -0.250 OA 
HETATM    6  C1* UNL     1     -11.120  15.036  66.559  1.00  0.00    -0.329 C  
HETATM    7  C2* UNL     1     -10.997  15.113  65.040  1.00  0.00    -0.443 C  
HETATM    8  H3* UNL     1     -11.560  13.568  62.965  1.00  0.00     0.000 HD 
HETATM    9  O3* UNL     1     -11.467  13.090  63.781  1.00  0.00    -0.421 OA 
HETATM   10  C3* UNL     1     -10.519  13.734  64.627  1.00  0.00    -0.412 C  
BRANCH   6  11
HETATM   11  N   UNL     1     -10.809  16.283  67.258  1.00  0.00    -0.267 N  
HETATM   12  C   UNL     1     -10.291  17.382  66.596  1.00  0.00    -0.306 C  
HETATM   13  C   UNL     1      -9.283  19.652  66.527  1.00  0.00    -0.378 C  
HETATM   14  C   UNL     1      -9.879  18.490  67.231  1.00  0.00    -0.329 C  
HETATM   15  C   UNL     1      -9.997  18.528  68.693  1.00  0.00    -0.383 C  
HETATM   16  O   UNL     1      -9.593  19.456  69.382  1.00  0.00    -0.285 OA 
HETATM   17  N   UNL     1     -10.586  17.436  69.272  1.00  0.00    -0.381 N  
HETATM   18  F   UNL     1      -8.810  20.648  67.311  1.00  0.00    -0.416 F  
HETATM   19  F   UNL     1      -8.241  19.261  65.743  1.00  0.00    -0.299 F  
HETATM   20  F   UNL     1     -10.187  20.224  65.685  1.00  0.00    -0.537 F  
HETATM   21  C   UNL     1     -10.953  16.280  68.639  1.00  0.00    -0.340 C  
HETATM   22  H   UNL     1     -10.770  17.490  70.274  1.00  0.00     0.000 HD 
HETATM   23  O   UNL     1     -11.364  15.321  69.290  1.00  0.00    -0.260 OA 
ENDBRANCH   6  11
ENDBRANCH   3   4
TORSDOF 2
ENDMDL
MODEL       33
REMARK 921   NORMALIZED FREE ENERGY PREDICTED BY IDOCK:   -5.94 KCAL/MOL
REMARK 922        TOTAL FREE ENERGY PREDICTED BY IDOCK:   -7.07 KCAL/MOL
REMARK 923 INTER-LIGAND FREE ENERGY PREDICTED BY IDOCK:   -6.63 KCAL/MOL
REMARK 924 INTRA-LIGAND FREE ENERGY PREDICTED BY IDOCK:   -0.44 KCAL/MOL
REMARK 927      BINDING AFFINITY PREDICTED BY RF-SCORE:    0.00 PKD
ROOT
HETATM    1  O5* UNL     1     -11.801  16.096  72.764  1.00  0.00    -0.486 OA 
HETATM    2  H5* UNL     1     -11.171  16.778  72.963  1.00  0.00     0.000 HD 
HETATM    3  C5* UNL     1     -11.447  15.387  71.578  1.00  0.00    -0.413 C  
ENDROOT
BRANCH   3   4
HETATM    4  C4* UNL     1     -12.461  14.289  71.258  1.00  0.00    -0.365 C  
HETATM    5  O4* UNL     1     -11.849  13.210  70.530  1.00  0.00    -0.256 OA 
HETATM    6  C1* UNL     1     -12.722  12.084  70.710  1.00  0.00    -0.143 C  
HETATM    7  C2* UNL     1     -13.245  12.188  72.140  1.00  0.00    -0.438 C  
HETATM    8  H3* UNL     1     -14.742  13.859  73.545  1.00  0.00     0.000 HD 
HETATM    9  O3* UNL     1     -14.351  14.255  72.775  1.00  0.00    -0.434 OA 
HETATM   10  C3* UNL     1     -13.089  13.654  72.496  1.00  0.00    -0.388 C  
BRANCH   6  11
HETATM   11  N   UNL     1     -12.054  10.822  70.396  1.00  0.00    -0.323 N  
HETATM   12  C   UNL     1     -11.677   9.930  71.385  1.00  0.00    -0.371 C  
HETATM   13  C   UNL     1     -10.510   7.894  72.201  1.00  0.00    -0.249 C  
HETATM   14  C   UNL     1     -10.951   8.828  71.136  1.00  0.00    -0.334 C  
HETATM   15  C   UNL     1     -10.554   8.565  69.749  1.00  0.00    -0.224 C  
HETATM   16  O   UNL     1      -9.837   7.631  69.415  1.00  0.00    -0.167 OA 
HETATM   17  N   UNL     1     -11.025   9.450  68.816  1.00  0.00    -0.435 N  
HETATM   18  F   UNL     1      -9.688   6.891  71.813  1.00  0.00    -0.161 F  
HETATM   19  F   UNL     1      -9.850   8.561  73.188  1.00  0.00    -0.314 F  
HETATM   20  F   UNL     1     -11.578   7.302  72.802  1.00  0.00    -0.301 F  
HETATM   21  C   UNL     1     -11.713  10.606  69.068  1.00  0.00    -0.234 C  
HETATM   22  H   UNL     1     -10.846   9.225  67.837  1.00  0.00     0.000 HD 
HETATM   23  O   UNL     1     -11.979  11.380  68.150  1.00  0.00    -0.594 OA 
ENDBRANCH   6  11
ENDBRANCH   3   4
TORSDOF 2
ENDMDL
MODEL       34
REMARK 921   NORMALIZED FREE ENERGY PREDICTED BY IDOCK:   -5.90 KCAL/MOL
REMARK 922        TOTAL FREE ENERGY PREDICTED BY IDOCK:   -7.02 KCAL/MOL
REMARK 923 INTER-LIGAND FREE ENERGY PREDICTED BY IDOCK:   -7.24 KCAL/MOL
REMARK 924 INTRA-LIGAND FREE ENERGY PREDICTED BY IDOCK:    0.22 KCAL/MOL
REMARK 927      BINDING AFFINITY PREDICTED BY RF-SCORE:    0.00 PKD
ROOT
HETATM    1  O5* UNL     1     -13.411  16.558  74.100  1.00  0.00    -0.843 OA 
HETATM    2  H5* UNL     1     -13.050  17.074  74.811  1.00  0.00     0.000 HD 
HETATM    3  C5* UNL     1     -12.408  16.207  73.147  1.00  0.00    -0.538 C  
ENDROOT
BRANCH   3   4
HETATM    4  C4* UNL     1     -12.989  15.376  72.004  1.00  0.00    -0.401 C  
HETATM    5  O4* UNL     1     -12.411  15.750  70.741  1.00  0.00    -0.423 OA 
HETATM    6  C1* UNL     1     -12.650  14.636  69.867  1.00  0.00    -0.180 C  
HETATM    7  C2* UNL     1     -12.499  13.388  70.733  1.00  0.00    -0.418 C  
HETATM    8  H3* UNL     1     -13.728  12.307  72.814  1.00  0.00     0.000 HD 
HETATM    9  O3* UNL     1     -13.881  13.240  72.724  1.00  0.00    -0.690 OA 
HETATM   10  C3* UNL     1     -12.744  13.876  72.148  1.00  0.00    -0.230 C  
BRANCH   6  11
HETATM   11  N   UNL     1     -11.779  14.670  68.693  1.00  0.00    -0.322 N  
HETATM   12  C   UNL     1     -12.233  14.309  67.436  1.00  0.00    -0.232 C  
HETATM   13  C   UNL     1     -11.903  13.781  65.031  1.00  0.00    -0.366 C  
HETATM   14  C   UNL     1     -11.425  14.209  66.369  1.00  0.00    -0.362 C  
HETATM   15  C   UNL     1     -10.001  14.507  66.554  1.00  0.00    -0.280 C  
HETATM   16  O   UNL     1      -9.162  14.384  65.671  1.00  0.00     0.001 OA 
HETATM   17  N   UNL     1      -9.638  14.928  67.806  1.00  0.00    -0.206 N  
HETATM   18  F   UNL     1     -10.952  13.616  64.082  1.00  0.00    -0.375 F  
HETATM   19  F   UNL     1     -12.566  12.595  65.110  1.00  0.00    -0.507 F  
HETATM   20  F   UNL     1     -12.797  14.674  64.526  1.00  0.00    -0.396 F  
HETATM   21  C   UNL     1     -10.443  14.974  68.912  1.00  0.00    -0.241 C  
HETATM   22  H   UNL     1      -8.673  15.237  67.925  1.00  0.00     0.000 HD 
HETATM   23  O   UNL     1      -9.968  15.258  70.010  1.00  0.00    -0.234 OA 
ENDBRANCH   6  11
ENDBRANCH   3   4
TORSDOF 2
ENDMDL
MODEL       35
REMARK 921   NORMALIZED FREE ENERGY PREDICTED BY IDOCK:   -5.90 KCAL/MOL
REMARK 922        TOTAL FREE ENERGY PREDICTED BY IDOCK:   -7.02 KCAL/MOL
REMARK 923 INTER-LIGAND FREE ENERGY PREDICTED BY IDOCK:   -6.62 KCAL/MOL
REMARK 924 INTRA-LIGAND FREE ENERGY PREDICTED BY IDOCK:   -0.40 KCAL/MOL
REMARK 927      BINDING AFFINITY PREDICTED BY RF-SCORE:    0.00 PKD
ROOT
HETATM    1  O5* UNL     1     -12.948  14.214  64.569  1.00  0.00    -0.579 OA 
HETATM    2  H5* UNL     1     -13.774  14.638  64.366  1.00  0.00     0.000 HD 
HETATM    3  C5* UNL     1     -12.868  13.857  65.948  1.00  0.00    -0.339 C  
ENDROOT
BRANCH   3   4
HETATM    4  C4* UNL     1     -11.541  13.175  66.274  1.00  0.00    -0.356 C  
HETATM    5  O4* UNL     1     -11.517  12.700  67.632  1.00  0.00    -0.291 OA 
HETATM    6  C1* UNL     1     -10.485  11.703  67.670  1.00  0.00    -0.191 C  
HETATM    7  C2* UNL     1     -10.562  10.974  66.332  1.00  0.00    -0.308 C  
HETATM    8  H3* UNL     1     -10.208  11.564  63.775  1.00  0.00     0.000 HD 
HETATM    9  O3* UNL     1     -10.393  12.321  64.318  1.00  0.00    -0.309 OA 
HETATM   10  C3* UNL     1     -11.244  11.958  65.401  1.00  0.00    -0.295 C  
BRANCH   6  11
HETATM   11  N   UNL     1     -10.608  10.837  68.842  1.00  0.00    -0.202 N  
HETATM   12  C   UNL     1     -11.757  10.811  69.614  1.00  0.00    -0.323 C  
HETATM   13  C   UNL     1     -13.065  10.130  71.613  1.00  0.00    -0.447 C  
HETATM   14  C   UNL     1     -11.850  10.124  70.763  1.00  0.00    -0.443 C  
HETATM   15  C   UNL     1     -10.676   9.363  71.206  1.00  0.00    -0.350 C  
HETATM   16  O   UNL     1     -10.622   8.756  72.267  1.00  0.00    -0.337 OA 
HETATM   17  N   UNL     1      -9.603   9.376  70.356  1.00  0.00    -0.249 N  
HETATM   18  F   UNL     1     -12.970   9.484  72.798  1.00  0.00    -0.407 F  
HETATM   19  F   UNL     1     -13.444  11.404  71.908  1.00  0.00    -0.494 F  
HETATM   20  F   UNL     1     -14.119   9.572  70.957  1.00  0.00    -0.365 F  
HETATM   21  C   UNL     1      -9.479  10.121  69.214  1.00  0.00    -0.218 C  
HETATM   22  H   UNL     1      -8.818   8.770  70.597  1.00  0.00     0.000 HD 
HETATM   23  O   UNL     1      -8.415  10.137  68.598  1.00  0.00    -0.111 OA 
ENDBRANCH   6  11
ENDBRANCH   3   4
TORSDOF 2
ENDMDL
MODEL       36
REMARK 921   NORMALIZED FREE ENERGY PREDICTED BY IDOCK:   -5.88 KCAL/MOL
REMARK 922        TOTAL FREE ENERGY PREDICTED BY IDOCK:   -7.00 KCAL/MOL
REMARK 923 INTER-LIGAND FREE ENERGY PREDICTED BY IDOCK:   -7.03 KCAL/MOL
REMARK 924 INTRA-LIGAND FREE ENERGY PREDICTED BY IDOCK:    0.03 KCAL/MOL
REMARK 927      BINDING AFFINITY PREDICTED BY RF-SCORE:    0.00 PKD
ROOT
HETATM    1  O5* UNL     1     -12.117  10.678  68.172  1.00  0.00    -0.797 OA 
HETATM    2  H5* UNL     1     -11.948   9.906  68.698  1.00  0.00     0.000 HD 
HETATM    3  C5* UNL     1     -11.619  11.859  68.800  1.00  0.00    -0.309 C  
ENDROOT
BRANCH   3   4
HETATM    4  C4* UNL     1     -11.892  13.101  67.954  1.00  0.00    -0.348 C  
HETATM    5  O4* UNL     1     -11.213  14.253  68.485  1.00  0.00    -0.243 OA 
HETATM    6  C1* UNL     1     -11.143  15.189  67.398  1.00  0.00    -0.325 C  
HETATM    7  C2* UNL     1     -10.912  14.352  66.143  1.00  0.00    -0.320 C  
HETATM    8  H3* UNL     1     -12.225  12.510  64.767  1.00  0.00     0.000 HD 
HETATM    9  O3* UNL     1     -12.514  12.590  65.668  1.00  0.00    -0.648 OA 
HETATM   10  C3* UNL     1     -11.427  12.972  66.506  1.00  0.00    -0.340 C  
BRANCH   6  11
HETATM   11  N   UNL     1     -10.135  16.222  67.634  1.00  0.00    -0.255 N  
HETATM   12  C   UNL     1     -10.430  17.570  67.526  1.00  0.00    -0.355 C  
HETATM   13  C   UNL     1      -9.806  19.973  67.453  1.00  0.00    -0.422 C  
HETATM   14  C   UNL     1      -9.497  18.531  67.612  1.00  0.00    -0.295 C  
HETATM   15  C   UNL     1      -8.107  18.121  67.839  1.00  0.00    -0.247 C  
HETATM   16  O   UNL     1      -7.166  18.904  67.868  1.00  0.00    -0.233 OA 
HETATM   17  N   UNL     1      -7.902  16.778  68.009  1.00  0.00    -0.172 N  
HETATM   18  F   UNL     1      -8.746  20.814  67.450  1.00  0.00    -0.415 F  
HETATM   19  F   UNL     1     -10.471  20.201  66.287  1.00  0.00    -0.524 F  
HETATM   20  F   UNL     1     -10.634  20.404  68.444  1.00  0.00    -0.463 F  
HETATM   21  C   UNL     1      -8.836  15.789  67.864  1.00  0.00    -0.175 C  
HETATM   22  H   UNL     1      -6.960  16.487  68.271  1.00  0.00     0.000 HD 
HETATM   23  O   UNL     1      -8.501  14.607  67.926  1.00  0.00    -0.145 OA 
ENDBRANCH   6  11
ENDBRANCH   3   4
TORSDOF 2
ENDMDL
MODEL       37
REMARK 921   NORMALIZED FREE ENERGY PREDICTED BY IDOCK:   -5.84 KCAL/MOL
REMARK 922        TOTAL FREE ENERGY PREDICTED BY IDOCK:   -6.95 KCAL/MOL
REMARK 923 INTER-LIGAND FREE ENERGY PREDICTED BY IDOCK:   -6.49 KCAL/MOL
REMARK 924 INTRA-LIGAND FREE ENERGY PREDICTED BY IDOCK:   -0.46 KCAL/MOL
REMARK 927      BINDING AFFINITY PREDICTED BY RF-SCORE:    0.00 PKD
ROOT
HETATM    1  O5* UNL     1     -10.437  17.478  65.290  1.00  0.00    -0.643 OA 
HETATM    2  H5* UNL     1     -10.716  17.664  64.401  1.00  0.00     0.000 HD 
HETATM    3  C5* UNL     1     -10.697  18.579  66.160  1.00  0.00    -0.201 C  
ENDROOT
BRANCH   3   4
HETATM    4  C4* UNL     1     -10.248  18.280  67.590  1.00  0.00    -0.382 C  
HETATM    5  O4* UNL     1     -11.124  17.332  68.224  1.00  0.00    -0.281 OA 
HETATM    6  C1* UNL     1     -10.369  16.785  69.316  1.00  0.00    -0.309 C  
HETATM    7  C2* UNL     1      -8.932  16.674  68.813  1.00  0.00    -0.253 C  
HETATM    8  H3* UNL     1      -7.018  18.324  68.021  1.00  0.00     0.000 HD 
HETATM    9  O3* UNL     1      -7.890  18.697  67.964  1.00  0.00    -0.258 OA 
HETATM   10  C3* UNL     1      -8.847  17.680  67.681  1.00  0.00    -0.236 C  
BRANCH   6  11
HETATM   11  N   UNL     1     -10.942  15.530  69.799  1.00  0.00    -0.268 N  
HETATM   12  C   UNL     1     -10.963  14.387  69.018  1.00  0.00    -0.256 C  
HETATM   13  C   UNL     1     -11.654  12.051  68.531  1.00  0.00    -0.309 C  
HETATM   14  C   UNL     1     -11.594  13.262  69.386  1.00  0.00    -0.364 C  
HETATM   15  C   UNL     1     -12.283  13.252  70.682  1.00  0.00    -0.338 C  
HETATM   16  O   UNL     1     -12.946  12.308  71.090  1.00  0.00    -0.267 OA 
HETATM   17  N   UNL     1     -12.157  14.391  71.431  1.00  0.00    -0.355 N  
HETATM   18  F   UNL     1     -12.423  11.035  68.986  1.00  0.00    -0.383 F  
HETATM   19  F   UNL     1     -12.127  12.356  67.291  1.00  0.00    -0.417 F  
HETATM   20  F   UNL     1     -10.410  11.532  68.337  1.00  0.00    -0.175 F  
HETATM   21  C   UNL     1     -11.567  15.562  71.038  1.00  0.00    -0.382 C  
HETATM   22  H   UNL     1     -12.541  14.364  72.376  1.00  0.00     0.000 HD 
HETATM   23  O   UNL     1     -11.623  16.556  71.760  1.00  0.00    -0.415 OA 
ENDBRANCH   6  11
ENDBRANCH   3   4
TORSDOF 2
ENDMDL
MODEL       38
REMARK 921   NORMALIZED FREE ENERGY PREDICTED BY IDOCK:   -5.84 KCAL/MOL
REMARK 922        TOTAL FREE ENERGY PREDICTED BY IDOCK:   -6.95 KCAL/MOL
REMARK 923 INTER-LIGAND FREE ENERGY PREDICTED BY IDOCK:   -6.42 KCAL/MOL
REMARK 924 INTRA-LIGAND FREE ENERGY PREDICTED BY IDOCK:   -0.53 KCAL/MOL
REMARK 927      BINDING AFFINITY PREDICTED BY RF-SCORE:    0.00 PKD
ROOT
HETATM    1  O5* UNL     1     -11.738   6.658  71.536  1.00  0.00    -0.289 OA 
HETATM    2  H5* UNL     1     -11.404   5.821  71.238  1.00  0.00     0.000 HD 
HETATM    3  C5* UNL     1     -10.876   7.731  71.161  1.00  0.00    -0.235 C  
ENDROOT
BRANCH   3   4
HETATM    4  C4* UNL     1     -11.414   9.077  71.642  1.00  0.00    -0.361 C  
HETATM    5  O4* UNL     1     -11.016  10.143  70.761  1.00  0.00    -0.320 OA 
HETATM    6  C1* UNL     1     -11.936  11.215  71.020  1.00  0.00    -0.163 C  
HETATM    7  C2* UNL     1     -13.286  10.552  71.280  1.00  0.00    -0.399 C  
HETATM    8  H3* UNL     1     -14.332   8.920  73.083  1.00  0.00     0.000 HD 
HETATM    9  O3* UNL     1     -13.384   8.881  73.040  1.00  0.00    -0.308 OA 
HETATM   10  C3* UNL     1     -12.938   9.140  71.712  1.00  0.00    -0.380 C  
BRANCH   6  11
HETATM   11  N   UNL     1     -11.941  12.199  69.939  1.00  0.00    -0.325 N  
HETATM   12  C   UNL     1     -11.545  11.875  68.653  1.00  0.00    -0.310 C  
HETATM   13  C   UNL     1     -10.954  12.446  66.309  1.00  0.00    -0.286 C  
HETATM   14  C   UNL     1     -11.419  12.786  67.676  1.00  0.00    -0.387 C  
HETATM   15  C   UNL     1     -11.726  14.184  67.996  1.00  0.00    -0.359 C  
HETATM   16  O   UNL     1     -11.582  15.108  67.205  1.00  0.00    -0.323 OA 
HETATM   17  N   UNL     1     -12.181  14.419  69.265  1.00  0.00    -0.504 N  
HETATM   18  F   UNL     1     -10.766  13.487  65.465  1.00  0.00    -0.273 F  
HETATM   19  F   UNL     1      -9.768  11.778  66.352  1.00  0.00    -0.201 F  
HETATM   20  F   UNL     1     -11.830  11.607  65.692  1.00  0.00    -0.310 F  
HETATM   21  C   UNL     1     -12.255  13.507  70.283  1.00  0.00    -0.347 C  
HETATM   22  H   UNL     1     -12.497  15.367  69.473  1.00  0.00     0.000 HD 
HETATM   23  O   UNL     1     -12.570  13.868  71.416  1.00  0.00    -0.344 OA 
ENDBRANCH   6  11
ENDBRANCH   3   4
TORSDOF 2
ENDMDL
MODEL       39
REMARK 921   NORMALIZED FREE ENERGY PREDICTED BY IDOCK:   -5.82 KCAL/MOL
REMARK 922        TOTAL FREE ENERGY PREDICTED BY IDOCK:   -6.93 KCAL/MOL
REMARK 923 INTER-LIGAND FREE ENERGY PREDICTED BY IDOCK:   -7.15 KCAL/MOL
REMARK 924 INTRA-LIGAND FREE ENERGY PREDICTED BY IDOCK:    0.22 KCAL/MOL
REMARK 927      BINDING AFFINITY PREDICTED BY RF-SCORE:    0.00 PKD
ROOT
HETATM    1  O5* UNL     1      -9.689  13.254  64.182  1.00  0.00    -0.650 OA 
HETATM    2  H5* UNL     1      -9.671  12.635  63.462  1.00  0.00     0.000 HD 
HETATM    3  C5* UNL     1     -11.027  13.579  64.560  1.00  0.00    -0.394 C  
ENDROOT
BRANCH   3   4
HETATM    4  C4* UNL     1     -11.055  14.576  65.717  1.00  0.00    -0.324 C  
HETATM    5  O4* UNL     1     -11.928  14.128  66.770  1.00  0.00    -0.411 OA 
HETATM    6  C1* UNL     1     -11.516  14.851  67.940  1.00  0.00    -0.340 C  
HETATM    7  C2* UNL     1      -9.996  14.962  67.847  1.00  0.00    -0.219 C  
HETATM    8  H3* UNL     1      -8.227  16.106  66.243  1.00  0.00     0.000 HD 
HETATM    9  O3* UNL     1      -9.074  15.967  65.837  1.00  0.00    -0.336 OA 
HETATM   10  C3* UNL     1      -9.693  14.799  66.370  1.00  0.00    -0.291 C  
BRANCH   6  11
HETATM   11  N   UNL     1     -12.005  14.224  69.167  1.00  0.00    -0.335 N  
HETATM   12  C   UNL     1     -12.221  14.951  70.324  1.00  0.00    -0.335 C  
HETATM   13  C   UNL     1     -12.736  15.157  72.746  1.00  0.00    -0.398 C  
HETATM   14  C   UNL     1     -12.547  14.382  71.495  1.00  0.00    -0.424 C  
HETATM   15  C   UNL     1     -12.685  12.922  71.534  1.00  0.00    -0.239 C  
HETATM   16  O   UNL     1     -12.912  12.290  72.558  1.00  0.00    -0.160 OA 
HETATM   17  N   UNL     1     -12.530  12.276  70.337  1.00  0.00    -0.198 N  
HETATM   18  F   UNL     1     -12.948  14.434  73.870  1.00  0.00    -0.407 F  
HETATM   19  F   UNL     1     -11.651  15.939  73.000  1.00  0.00    -0.513 F  
HETATM   20  F   UNL     1     -13.792  16.009  72.634  1.00  0.00    -0.584 F  
HETATM   21  C   UNL     1     -12.140  12.842  69.153  1.00  0.00    -0.158 C  
HETATM   22  H   UNL     1     -12.725  11.275  70.326  1.00  0.00     0.000 HD 
HETATM   23  O   UNL     1     -11.920  12.134  68.172  1.00  0.00    -0.430 OA 
ENDBRANCH   6  11
ENDBRANCH   3   4
TORSDOF 2
ENDMDL
MODEL       40
REMARK 921   NORMALIZED FREE ENERGY PREDICTED BY IDOCK:   -5.82 KCAL/MOL
REMARK 922        TOTAL FREE ENERGY PREDICTED BY IDOCK:   -6.93 KCAL/MOL
REMARK 923 INTER-LIGAND FREE ENERGY PREDICTED BY IDOCK:   -6.48 KCAL/MOL
REMARK 924 INTRA-LIGAND FREE ENERGY PREDICTED BY IDOCK:   -0.44 KCAL/MOL
REMARK 927      BINDING AFFINITY PREDICTED BY RF-SCORE:    0.00 PKD
ROOT
HETATM    1  O5* UNL     1     -12.464  13.820  63.275  1.00  0.00    -1.065 OA 
HETATM    2  H5* UNL     1     -12.807  14.066  62.424  1.00  0.00     0.000 HD 
HETATM    3  C5* UNL     1     -12.256  14.962  64.105  1.00  0.00    -0.255 C  
ENDROOT
BRANCH   3   4
HETATM    4  C4* UNL     1     -11.704  14.567  65.473  1.00  0.00    -0.343 C  
HETATM    5  O4* UNL     1     -11.820  13.149  65.693  1.00  0.00    -0.347 OA 
HETATM    6  C1* UNL     1     -10.876  12.846  66.732  1.00  0.00    -0.267 C  
HETATM    7  C2* UNL     1      -9.672  13.748  66.477  1.00  0.00    -0.301 C  
HETATM    8  H3* UNL     1      -9.158  16.345  66.461  1.00  0.00     0.000 HD 
HETATM    9  O3* UNL     1     -10.078  16.138  66.345  1.00  0.00    -0.277 OA 
HETATM   10  C3* UNL     1     -10.225  14.899  65.659  1.00  0.00    -0.358 C  
BRANCH   6  11
HETATM   11  N   UNL     1     -10.566  11.418  66.785  1.00  0.00    -0.244 N  
HETATM   12  C   UNL     1      -9.691  10.826  65.890  1.00  0.00    -0.224 C  
HETATM   13  C   UNL     1      -8.582   8.862  64.849  1.00  0.00    -0.172 C  
HETATM   14  C   UNL     1      -9.488   9.501  65.836  1.00  0.00    -0.307 C  
HETATM   15  C   UNL     1     -10.226   8.653  66.778  1.00  0.00    -0.291 C  
HETATM   16  O   UNL     1     -10.171   7.430  66.775  1.00  0.00    -0.255 OA 
HETATM   17  N   UNL     1     -11.016   9.312  67.680  1.00  0.00    -0.483 N  
HETATM   18  F   UNL     1      -8.568   7.509  64.840  1.00  0.00    -0.119 F  
HETATM   19  F   UNL     1      -8.901   9.244  63.581  1.00  0.00    -0.207 F  
HETATM   20  F   UNL     1      -7.295   9.258  65.044  1.00  0.00    -0.095 F  
HETATM   21  C   UNL     1     -11.275  10.656  67.704  1.00  0.00    -0.290 C  
HETATM   22  H   UNL     1     -11.455   8.747  68.407  1.00  0.00     0.000 HD 
HETATM   23  O   UNL     1     -12.099  11.114  68.494  1.00  0.00    -0.586 OA 
ENDBRANCH   6  11
ENDBRANCH   3   4
TORSDOF 2
ENDMDL
MODEL       41
REMARK 921   NORMALIZED FREE ENERGY PREDICTED BY IDOCK:   -5.79 KCAL/MOL
REMARK 922        TOTAL FREE ENERGY PREDICTED BY IDOCK:   -6.89 KCAL/MOL
REMARK 923 INTER-LIGAND FREE ENERGY PREDICTED BY IDOCK:   -6.32 KCAL/MOL
REMARK 924 INTRA-LIGAND FREE ENERGY PREDICTED BY IDOCK:   -0.58 KCAL/MOL
REMARK 927      BINDING AFFINITY PREDICTED BY RF-SCORE:    0.00 PKD
ROOT
HETATM    1  O5* UNL     1     -10.314  11.507  62.987  1.00  0.00    -0.604 OA 
HETATM    2  H5* UNL     1      -9.704  10.990  62.475  1.00  0.00     0.000 HD 
HETATM    3  C5* UNL     1      -9.818  11.750  64.304  1.00  0.00    -0.206 C  
ENDROOT
BRANCH   3   4
HETATM    4  C4* UNL     1     -10.799  12.582  65.127  1.00  0.00    -0.288 C  
HETATM    5  O4* UNL     1     -10.107  13.465  66.028  1.00  0.00    -0.293 OA 
HETATM    6  C1* UNL     1     -11.059  14.485  66.368  1.00  0.00    -0.331 C  
HETATM    7  C2* UNL     1     -11.864  14.743  65.098  1.00  0.00    -0.313 C  
HETATM    8  H3* UNL     1     -13.531  13.393  63.546  1.00  0.00     0.000 HD 
HETATM    9  O3* UNL     1     -12.965  12.838  64.071  1.00  0.00    -0.690 OA 
HETATM   10  C3* UNL     1     -11.708  13.473  64.284  1.00  0.00    -0.416 C  
BRANCH   6  11
HETATM   11  N   UNL     1     -10.409  15.669  66.928  1.00  0.00    -0.286 N  
HETATM   12  C   UNL     1      -9.213  16.153  66.425  1.00  0.00    -0.300 C  
HETATM   13  C   UNL     1      -7.231  17.649  66.485  1.00  0.00    -0.252 C  
HETATM   14  C   UNL     1      -8.533  17.158  66.998  1.00  0.00    -0.233 C  
HETATM   15  C   UNL     1      -9.098  17.769  68.207  1.00  0.00    -0.281 C  
HETATM   16  O   UNL     1      -8.534  18.644  68.851  1.00  0.00    -0.280 OA 
HETATM   17  N   UNL     1     -10.317  17.289  68.603  1.00  0.00    -0.339 N  
HETATM   18  F   UNL     1      -6.609  18.589  67.234  1.00  0.00    -0.189 F  
HETATM   19  F   UNL     1      -6.344  16.624  66.355  1.00  0.00    -0.218 F  
HETATM   20  F   UNL     1      -7.369  18.181  65.240  1.00  0.00    -0.125 F  
HETATM   21  C   UNL     1     -10.988  16.226  68.060  1.00  0.00    -0.328 C  
HETATM   22  H   UNL     1     -10.771  17.771  69.379  1.00  0.00     0.000 HD 
HETATM   23  O   UNL     1     -12.023  15.815  68.582  1.00  0.00    -0.344 OA 
ENDBRANCH   6  11
ENDBRANCH   3   4
TORSDOF 2
ENDMDL
MODEL       42
REMARK 921   NORMALIZED FREE ENERGY PREDICTED BY IDOCK:   -5.78 KCAL/MOL
REMARK 922        TOTAL FREE ENERGY PREDICTED BY IDOCK:   -6.89 KCAL/MOL
REMARK 923 INTER-LIGAND FREE ENERGY PREDICTED BY IDOCK:   -6.98 KCAL/MOL
REMARK 924 INTRA-LIGAND FREE ENERGY PREDICTED BY IDOCK:    0.09 KCAL/MOL
REMARK 927      BINDING AFFINITY PREDICTED BY RF-SCORE:    0.00 PKD
ROOT
HETATM    1  O5* UNL     1      -7.449  19.599  68.916  1.00  0.00    -0.351 OA 
HETATM    2  H5* UNL     1      -6.770  19.700  69.572  1.00  0.00     0.000 HD 
HETATM    3  C5* UNL     1      -7.180  18.499  68.047  1.00  0.00    -0.245 C  
ENDROOT
BRANCH   3   4
HETATM    4  C4* UNL     1      -8.273  18.338  66.992  1.00  0.00    -0.239 C  
HETATM    5  O4* UNL     1      -8.526  16.950  66.712  1.00  0.00    -0.199 OA 
HETATM    6  C1* UNL     1      -9.831  16.913  66.114  1.00  0.00    -0.297 C  
HETATM    7  C2* UNL     1     -10.651  17.978  66.839  1.00  0.00    -0.291 C  
HETATM    8  H3* UNL     1     -10.605  20.610  67.114  1.00  0.00     0.000 HD 
HETATM    9  O3* UNL     1      -9.768  20.240  66.858  1.00  0.00    -0.407 OA 
HETATM   10  C3* UNL     1      -9.617  18.933  67.404  1.00  0.00    -0.306 C  
BRANCH   6  11
HETATM   11  N   UNL     1     -10.409  15.570  66.153  1.00  0.00    -0.298 N  
HETATM   12  C   UNL     1     -10.703  14.867  64.997  1.00  0.00    -0.431 C  
HETATM   13  C   UNL     1     -11.702  12.957  63.762  1.00  0.00    -0.492 C  
HETATM   14  C   UNL     1     -11.349  13.691  65.003  1.00  0.00    -0.339 C  
HETATM   15  C   UNL     1     -11.749  13.131  66.298  1.00  0.00    -0.375 C  
HETATM   16  O   UNL     1     -12.399  12.102  66.421  1.00  0.00    -0.489 OA 
HETATM   17  N   UNL     1     -11.360  13.845  67.401  1.00  0.00    -0.311 N  
HETATM   18  F   UNL     1     -12.454  11.843  63.920  1.00  0.00    -0.500 F  
HETATM   19  F   UNL     1     -12.393  13.759  62.905  1.00  0.00    -0.449 F  
HETATM   20  F   UNL     1     -10.583  12.572  63.090  1.00  0.00    -0.428 F  
HETATM   21  C   UNL     1     -10.755  15.072  67.402  1.00  0.00    -0.289 C  
HETATM   22  H   UNL     1     -11.538  13.419  68.310  1.00  0.00     0.000 HD 
HETATM   23  O   UNL     1     -10.563  15.666  68.462  1.00  0.00    -0.241 OA 
ENDBRANCH   6  11
ENDBRANCH   3   4
TORSDOF 2
ENDMDL
MODEL       43
REMARK 921   NORMALIZED FREE ENERGY PREDICTED BY IDOCK:   -5.72 KCAL/MOL
REMARK 922        TOTAL FREE ENERGY PREDICTED BY IDOCK:   -6.82 KCAL/MOL
REMARK 923 INTER-LIGAND FREE ENERGY PREDICTED BY IDOCK:   -6.35 KCAL/MOL
REMARK 924 INTRA-LIGAND FREE ENERGY PREDICTED BY IDOCK:   -0.47 KCAL/MOL
REMARK 927      BINDING AFFINITY PREDICTED BY RF-SCORE:    0.00 PKD
ROOT
HETATM    1  O5* UNL     1     -12.291  12.119  65.708  1.00  0.00    -0.564 OA 
HETATM    2  H5* UNL     1     -12.130  11.189  65.811  1.00  0.00     0.000 HD 
HETATM    3  C5* UNL     1     -11.438  12.895  66.548  1.00  0.00    -0.341 C  
ENDROOT
BRANCH   3   4
HETATM    4  C4* UNL     1     -11.697  14.391  66.381  1.00  0.00    -0.386 C  
HETATM    5  O4* UNL     1     -10.928  15.162  67.321  1.00  0.00    -0.313 OA 
HETATM    6  C1* UNL     1     -10.876  16.489  66.775  1.00  0.00    -0.070 C  
HETATM    7  C2* UNL     1     -10.767  16.313  65.263  1.00  0.00    -0.349 C  
HETATM    8  H3* UNL     1     -12.256  15.325  63.310  1.00  0.00     0.000 HD 
HETATM    9  O3* UNL     1     -12.484  14.990  64.168  1.00  0.00    -0.756 OA 
HETATM   10  C3* UNL     1     -11.329  14.929  65.000  1.00  0.00    -0.398 C  
BRANCH   6  11
HETATM   11  N   UNL     1      -9.804  17.282  67.374  1.00  0.00    -0.265 N  
HETATM   12  C   UNL     1      -8.679  16.693  67.925  1.00  0.00    -0.193 C  
HETATM   13  C   UNL     1      -6.560  16.750  69.220  1.00  0.00    -0.223 C  
HETATM   14  C   UNL     1      -7.744  17.386  68.592  1.00  0.00    -0.273 C  
HETATM   15  C   UNL     1      -7.928  18.835  68.729  1.00  0.00    -0.300 C  
HETATM   16  O   UNL     1      -7.177  19.557  69.371  1.00  0.00    -0.344 OA 
HETATM   17  N   UNL     1      -9.024  19.358  68.095  1.00  0.00    -0.317 N  
HETATM   18  F   UNL     1      -5.766  17.560  69.957  1.00  0.00    -0.206 F  
HETATM   19  F   UNL     1      -6.938  15.738  70.050  1.00  0.00    -0.165 F  
HETATM   20  F   UNL     1      -5.759  16.179  68.280  1.00  0.00    -0.093 F  
HETATM   21  C   UNL     1     -10.013  18.652  67.465  1.00  0.00    -0.338 C  
HETATM   22  H   UNL     1      -9.112  20.375  68.092  1.00  0.00     0.000 HD 
HETATM   23  O   UNL     1     -11.010  19.230  67.037  1.00  0.00    -0.454 OA 
ENDBRANCH   6  11
ENDBRANCH   3   4
TORSDOF 2
ENDMDL
MODEL       44
REMARK 921   NORMALIZED FREE ENERGY PREDICTED BY IDOCK:   -5.69 KCAL/MOL
REMARK 922        TOTAL FREE ENERGY PREDICTED BY IDOCK:   -6.79 KCAL/MOL
REMARK 923 INTER-LIGAND FREE ENERGY PREDICTED BY IDOCK:   -6.31 KCAL/MOL
REMARK 924 INTRA-LIGAND FREE ENERGY PREDICTED BY IDOCK:   -0.49 KCAL/MOL
REMARK 927      BINDING AFFINITY PREDICTED BY RF-SCORE:    0.00 PKD
ROOT
HETATM    1  O5* UNL     1     -13.518  10.729  72.362  1.00  0.00    -0.599 OA 
HETATM    2  H5* UNL     1     -14.112  10.030  72.607  1.00  0.00     0.000 HD 
HETATM    3  C5* UNL     1     -13.015  10.548  71.038  1.00  0.00    -0.383 C  
ENDROOT
BRANCH   3   4
HETATM    4  C4* UNL     1     -12.060  11.674  70.644  1.00  0.00    -0.335 C  
HETATM    5  O4* UNL     1     -11.390  11.378  69.405  1.00  0.00    -0.253 OA 
HETATM    6  C1* UNL     1     -10.924  12.644  68.913  1.00  0.00    -0.229 C  
HETATM    7  C2* UNL     1     -12.008  13.656  69.274  1.00  0.00    -0.384 C  
HETATM    8  H3* UNL     1     -13.075  14.654  71.482  1.00  0.00     0.000 HD 
HETATM    9  O3* UNL     1     -12.646  13.817  71.612  1.00  0.00    -0.332 OA 
HETATM   10  C3* UNL     1     -12.749  13.020  70.435  1.00  0.00     0.024 C  
BRANCH   6  11
HETATM   11  N   UNL     1     -10.598  12.586  67.488  1.00  0.00    -0.218 N  
HETATM   12  C   UNL     1     -11.533  12.878  66.511  1.00  0.00    -0.341 C  
HETATM   13  C   UNL     1     -12.315  12.982  64.155  1.00  0.00    -0.358 C  
HETATM   14  C   UNL     1     -11.298  12.710  65.201  1.00  0.00    -0.343 C  
HETATM   15  C   UNL     1      -9.983  12.200  64.798  1.00  0.00    -0.200 C  
HETATM   16  O   UNL     1      -9.680  11.945  63.640  1.00  0.00    -0.301 OA 
HETATM   17  N   UNL     1      -9.084  12.004  65.813  1.00  0.00    -0.431 N  
HETATM   18  F   UNL     1     -11.971  12.656  62.888  1.00  0.00    -0.479 F  
HETATM   19  F   UNL     1     -13.470  12.310  64.417  1.00  0.00    -0.376 F  
HETATM   20  F   UNL     1     -12.649  14.301  64.134  1.00  0.00    -0.432 F  
HETATM   21  C   UNL     1      -9.335  12.116  67.153  1.00  0.00    -0.193 C  
HETATM   22  H   UNL     1      -8.134  11.750  65.542  1.00  0.00     0.000 HD 
HETATM   23  O   UNL     1      -8.475  11.796  67.972  1.00  0.00    -0.142 OA 
ENDBRANCH   6  11
ENDBRANCH   3   4
TORSDOF 2
ENDMDL
MODEL       45
REMARK 921   NORMALIZED FREE ENERGY PREDICTED BY IDOCK:   -5.66 KCAL/MOL
REMARK 922        TOTAL FREE ENERGY PREDICTED BY IDOCK:   -6.75 KCAL/MOL
REMARK 923 INTER-LIGAND FREE ENERGY PREDICTED BY IDOCK:   -6.96 KCAL/MOL
REMARK 924 INTRA-LIGAND FREE ENERGY PREDICTED BY IDOCK:    0.20 KCAL/MOL
REMARK 927      BINDING AFFINITY PREDICTED BY RF-SCORE:    0.00 PKD
ROOT
HETATM    1  O5* UNL     1      -9.913  20.544  65.690  1.00  0.00    -0.573 OA 
HETATM    2  H5* UNL     1     -10.271  21.400  65.488  1.00  0.00     0.000 HD 
HETATM    3  C5* UNL     1      -9.589  20.426  67.075  1.00  0.00    -0.431 C  
ENDROOT
BRANCH   3   4
HETATM    4  C4* UNL     1      -9.014  19.048  67.400  1.00  0.00    -0.291 C  
HETATM    5  O4* UNL     1     -10.050  18.052  67.459  1.00  0.00    -0.320 OA 
HETATM    6  C1* UNL     1      -9.379  16.794  67.288  1.00  0.00    -0.231 C  
HETATM    7  C2* UNL     1      -8.262  17.052  66.280  1.00  0.00    -0.322 C  
HETATM    8  H3* UNL     1      -6.050  18.502  66.161  1.00  0.00     0.000 HD 
HETATM    9  O3* UNL     1      -6.677  18.816  66.802  1.00  0.00    -0.188 OA 
HETATM   10  C3* UNL     1      -8.007  18.544  66.370  1.00  0.00    -0.267 C  
BRANCH   6  11
HETATM   11  N   UNL     1     -10.307  15.730  66.907  1.00  0.00    -0.289 N  
HETATM   12  C   UNL     1     -10.519  14.622  67.710  1.00  0.00    -0.246 C  
HETATM   13  C   UNL     1     -11.458  12.369  68.169  1.00  0.00    -0.318 C  
HETATM   14  C   UNL     1     -11.266  13.575  67.327  1.00  0.00    -0.319 C  
HETATM   15  C   UNL     1     -11.886  13.622  65.999  1.00  0.00    -0.385 C  
HETATM   16  O   UNL     1     -12.531  12.698  65.518  1.00  0.00    -0.622 OA 
HETATM   17  N   UNL     1     -11.694  14.778  65.292  1.00  0.00    -0.339 N  
HETATM   18  F   UNL     1     -12.141  11.347  67.602  1.00  0.00    -0.271 F  
HETATM   19  F   UNL     1     -10.260  11.852  68.557  1.00  0.00    -0.197 F  
HETATM   20  F   UNL     1     -12.118  12.680  69.318  1.00  0.00    -0.322 F  
HETATM   21  C   UNL     1     -10.887  15.824  65.649  1.00  0.00    -0.307 C  
HETATM   22  H   UNL     1     -12.203  14.870  64.412  1.00  0.00     0.000 HD 
HETATM   23  O   UNL     1     -10.703  16.758  64.870  1.00  0.00    -0.721 OA 
ENDBRANCH   6  11
ENDBRANCH   3   4
TORSDOF 2
ENDMDL
MODEL       46
REMARK 921   NORMALIZED FREE ENERGY PREDICTED BY IDOCK:   -5.64 KCAL/MOL
REMARK 922        TOTAL FREE ENERGY PREDICTED BY IDOCK:   -6.73 KCAL/MOL
REMARK 923 INTER-LIGAND FREE ENERGY PREDICTED BY IDOCK:   -7.45 KCAL/MOL
REMARK 924 INTRA-LIGAND FREE ENERGY PREDICTED BY IDOCK:    0.72 KCAL/MOL
REMARK 927      BINDING AFFINITY PREDICTED BY RF-SCORE:    0.00 PKD
ROOT
HETATM    1  O5* UNL     1     -10.591  10.511  62.469  1.00  0.00    -0.554 OA 
HETATM    2  H5* UNL     1      -9.968  10.071  61.903  1.00  0.00     0.000 HD 
HETATM    3  C5* UNL     1      -9.941  11.429  63.347  1.00  0.00    -0.402 C  
ENDROOT
BRANCH   3   4
HETATM    4  C4* UNL     1     -10.943  12.137  64.258  1.00  0.00    -0.339 C  
HETATM    5  O4* UNL     1     -10.312  13.192  65.006  1.00  0.00    -0.317 OA 
HETATM    6  C1* UNL     1     -11.382  14.054  65.426  1.00  0.00    -0.315 C  
HETATM    7  C2* UNL     1     -12.378  14.073  64.270  1.00  0.00    -0.393 C  
HETATM    8  H3* UNL     1     -13.957  12.341  63.039  1.00  0.00     0.000 HD 
HETATM    9  O3* UNL     1     -13.237  11.934  63.506  1.00  0.00    -0.676 OA 
HETATM   10  C3* UNL     1     -12.100  12.792  63.507  1.00  0.00    -0.559 C  
BRANCH   6  11
HETATM   11  N   UNL     1     -10.892  15.372  65.827  1.00  0.00    -0.339 N  
HETATM   12  C   UNL     1     -10.319  15.592  67.068  1.00  0.00    -0.289 C  
HETATM   13  C   UNL     1      -9.405  17.056  68.855  1.00  0.00    -0.224 C  
HETATM   14  C   UNL     1      -9.979  16.813  67.509  1.00  0.00    -0.266 C  
HETATM   15  C   UNL     1     -10.222  17.957  66.623  1.00  0.00    -0.371 C  
HETATM   16  O   UNL     1     -10.014  19.120  66.944  1.00  0.00    -0.308 OA 
HETATM   17  N   UNL     1     -10.721  17.655  65.384  1.00  0.00    -0.150 N  
HETATM   18  F   UNL     1      -9.221  18.351  69.202  1.00  0.00    -0.262 F  
HETATM   19  F   UNL     1     -10.196  16.516  69.823  1.00  0.00    -0.253 F  
HETATM   20  F   UNL     1      -8.194  16.448  68.984  1.00  0.00    -0.204 F  
HETATM   21  C   UNL     1     -11.126  16.422  64.949  1.00  0.00    -0.239 C  
HETATM   22  H   UNL     1     -10.798  18.425  64.719  1.00  0.00     0.000 HD 
HETATM   23  O   UNL     1     -11.670  16.300  63.853  1.00  0.00    -0.986 OA 
ENDBRANCH   6  11
ENDBRANCH   3   4
TORSDOF 2
ENDMDL
MODEL       47
REMARK 921   NORMALIZED FREE ENERGY PREDICTED BY IDOCK:   -5.61 KCAL/MOL
REMARK 922        TOTAL FREE ENERGY PREDICTED BY IDOCK:   -6.69 KCAL/MOL
REMARK 923 INTER-LIGAND FREE ENERGY PREDICTED BY IDOCK:   -6.26 KCAL/MOL
REMARK 924 INTRA-LIGAND FREE ENERGY PREDICTED BY IDOCK:   -0.43 KCAL/MOL
REMARK 927      BINDING AFFINITY PREDICTED BY RF-SCORE:    0.00 PKD
ROOT
HETATM    1  O5* UNL     1     -10.575  19.941  66.844  1.00  0.00    -0.454 OA 
HETATM    2  H5* UNL     1     -11.246  20.614  66.839  1.00  0.00     0.000 HD 
HETATM    3  C5* UNL     1     -10.586  19.200  68.064  1.00  0.00    -0.312 C  
ENDROOT
BRANCH   3   4
HETATM    4  C4* UNL     1      -9.507  18.118  68.072  1.00  0.00    -0.285 C  
HETATM    5  O4* UNL     1     -10.073  16.816  67.839  1.00  0.00    -0.265 OA 
HETATM    6  C1* UNL     1      -8.978  15.998  67.399  1.00  0.00    -0.191 C  
HETATM    7  C2* UNL     1      -8.102  16.903  66.537  1.00  0.00    -0.327 C  
HETATM    8  H3* UNL     1      -6.632  19.078  66.876  1.00  0.00     0.000 HD 
HETATM    9  O3* UNL     1      -7.297  18.960  67.545  1.00  0.00    -0.225 OA 
HETATM   10  C3* UNL     1      -8.439  18.308  66.998  1.00  0.00    -0.250 C  
BRANCH   6  11
HETATM   11  N   UNL     1      -9.442  14.783  66.730  1.00  0.00    -0.242 N  
HETATM   12  C   UNL     1     -10.649  14.737  66.053  1.00  0.00    -0.312 C  
HETATM   13  C   UNL     1     -12.470  13.547  64.853  1.00  0.00    -0.384 C  
HETATM   14  C   UNL     1     -11.156  13.606  65.540  1.00  0.00    -0.301 C  
HETATM   15  C   UNL     1     -10.383  12.370  65.703  1.00  0.00    -0.258 C  
HETATM   16  O   UNL     1     -10.777  11.270  65.337  1.00  0.00    -0.273 OA 
HETATM   17  N   UNL     1      -9.166  12.505  66.317  1.00  0.00    -0.388 N  
HETATM   18  F   UNL     1     -12.901  12.316  64.492  1.00  0.00    -0.541 F  
HETATM   19  F   UNL     1     -13.450  14.075  65.636  1.00  0.00    -0.455 F  
HETATM   20  F   UNL     1     -12.457  14.297  63.717  1.00  0.00    -0.492 F  
HETATM   21  C   UNL     1      -8.669  13.642  66.895  1.00  0.00    -0.146 C  
HETATM   22  H   UNL     1      -8.571  11.677  66.346  1.00  0.00     0.000 HD 
HETATM   23  O   UNL     1      -7.612  13.606  67.522  1.00  0.00    -0.161 OA 
ENDBRANCH   6  11
ENDBRANCH   3   4
TORSDOF 2
ENDMDL
MODEL       48
REMARK 921   NORMALIZED FREE ENERGY PREDICTED BY IDOCK:   -5.60 KCAL/MOL
REMARK 922        TOTAL FREE ENERGY PREDICTED BY IDOCK:   -6.69 KCAL/MOL
REMARK 923 INTER-LIGAND FREE ENERGY PREDICTED BY IDOCK:   -6.15 KCAL/MOL
REMARK 924 INTRA-LIGAND FREE ENERGY PREDICTED BY IDOCK:   -0.54 KCAL/MOL
REMARK 927      BINDING AFFINITY PREDICTED BY RF-SCORE:    0.00 PKD
ROOT
HETATM    1  O5* UNL     1     -11.066  11.930  64.494  1.00  0.00    -0.304 OA 
HETATM    2  H5* UNL     1     -11.487  11.749  63.661  1.00  0.00     0.000 HD 
HETATM    3  C5* UNL     1     -11.995  12.443  65.448  1.00  0.00    -0.398 C  
ENDROOT
BRANCH   3   4
HETATM    4  C4* UNL     1     -11.318  12.733  66.787  1.00  0.00    -0.313 C  
HETATM    5  O4* UNL     1     -12.093  12.220  67.885  1.00  0.00    -0.466 OA 
HETATM    6  C1* UNL     1     -11.175  12.118  68.985  1.00  0.00    -0.260 C  
HETATM    7  C2* UNL     1      -9.845  11.681  68.377  1.00  0.00    -0.202 C  
HETATM    8  H3* UNL     1      -8.062  12.670  66.689  1.00  0.00     0.000 HD 
HETATM    9  O3* UNL     1      -8.924  13.060  66.604  1.00  0.00    -0.205 OA 
HETATM   10  C3* UNL     1      -9.933  12.107  66.924  1.00  0.00    -0.204 C  
BRANCH   6  11
HETATM   11  N   UNL     1     -11.683  11.237  70.036  1.00  0.00    -0.323 N  
HETATM   12  C   UNL     1     -11.347   9.896  70.091  1.00  0.00    -0.275 C  
HETATM   13  C   UNL     1     -11.571   7.593  70.997  1.00  0.00    -0.282 C  
HETATM   14  C   UNL     1     -11.897   9.040  70.966  1.00  0.00    -0.339 C  
HETATM   15  C   UNL     1     -12.892   9.565  71.908  1.00  0.00    -0.420 C  
HETATM   16  O   UNL     1     -13.507   8.867  72.704  1.00  0.00    -0.435 OA 
HETATM   17  N   UNL     1     -13.118  10.914  71.845  1.00  0.00    -0.487 N  
HETATM   18  F   UNL     1     -12.290   6.836  71.857  1.00  0.00    -0.345 F  
HETATM   19  F   UNL     1     -11.741   7.032  69.768  1.00  0.00    -0.245 F  
HETATM   20  F   UNL     1     -10.262   7.398  71.317  1.00  0.00    -0.189 F  
HETATM   21  C   UNL     1     -12.607  11.781  70.918  1.00  0.00    -0.289 C  
HETATM   22  H   UNL     1     -13.728  11.312  72.560  1.00  0.00     0.000 HD 
HETATM   23  O   UNL     1     -12.981  12.953  70.894  1.00  0.00    -0.165 OA 
ENDBRANCH   6  11
ENDBRANCH   3   4
TORSDOF 2
ENDMDL
MODEL       49
REMARK 921   NORMALIZED FREE ENERGY PREDICTED BY IDOCK:   -5.58 KCAL/MOL
REMARK 922        TOTAL FREE ENERGY PREDICTED BY IDOCK:   -6.67 KCAL/MOL
REMARK 923 INTER-LIGAND FREE ENERGY PREDICTED BY IDOCK:   -6.73 KCAL/MOL
REMARK 924 INTRA-LIGAND FREE ENERGY PREDICTED BY IDOCK:    0.06 KCAL/MOL
REMARK 927      BINDING AFFINITY PREDICTED BY RF-SCORE:    0.00 PKD
ROOT
HETATM    1  O5* UNL     1      -9.375   8.129  67.465  1.00  0.00    -0.138 OA 
HETATM    2  H5* UNL     1      -8.993   7.386  67.012  1.00  0.00     0.000 HD 
HETATM    3  C5* UNL     1      -8.825   9.362  67.003  1.00  0.00    -0.127 C  
ENDROOT
BRANCH   3   4
HETATM    4  C4* UNL     1      -9.439  10.557  67.732  1.00  0.00    -0.149 C  
HETATM    5  O4* UNL     1      -9.217  11.780  67.008  1.00  0.00    -0.178 OA 
HETATM    6  C1* UNL     1     -10.203  12.700  67.501  1.00  0.00    -0.215 C  
HETATM    7  C2* UNL     1     -11.460  11.869  67.746  1.00  0.00    -0.389 C  
HETATM    8  H3* UNL     1     -12.196   9.882  69.333  1.00  0.00     0.000 HD 
HETATM    9  O3* UNL     1     -11.255   9.947  69.216  1.00  0.00    -0.211 OA 
HETATM   10  C3* UNL     1     -10.951  10.451  67.919  1.00  0.00    -0.297 C  
BRANCH   6  11
HETATM   11  N   UNL     1     -10.390  13.833  66.595  1.00  0.00    -0.275 N  
HETATM   12  C   UNL     1     -10.150  15.136  66.995  1.00  0.00    -0.244 C  
HETATM   13  C   UNL     1     -10.218  17.598  66.672  1.00  0.00    -0.341 C  
HETATM   14  C   UNL     1     -10.435  16.199  66.228  1.00  0.00    -0.321 C  
HETATM   15  C   UNL     1     -11.018  15.956  64.904  1.00  0.00    -0.411 C  
HETATM   16  O   UNL     1     -11.379  16.848  64.147  1.00  0.00    -1.208 OA 
HETATM   17  N   UNL     1     -11.158  14.641  64.547  1.00  0.00    -0.610 N  
HETATM   18  F   UNL     1     -10.660  18.566  65.836  1.00  0.00    -0.430 F  
HETATM   19  F   UNL     1     -10.828  17.826  67.868  1.00  0.00    -0.374 F  
HETATM   20  F   UNL     1      -8.895  17.843  66.878  1.00  0.00    -0.229 F  
HETATM   21  C   UNL     1     -10.927  13.554  65.345  1.00  0.00    -0.292 C  
HETATM   22  H   UNL     1     -11.464  14.454  63.592  1.00  0.00     0.000 HD 
HETATM   23  O   UNL     1     -11.204  12.424  64.947  1.00  0.00    -0.295 OA 
ENDBRANCH   6  11
ENDBRANCH   3   4
TORSDOF 2
ENDMDL
MODEL       50
REMARK 921   NORMALIZED FREE ENERGY PREDICTED BY IDOCK:   -5.58 KCAL/MOL
REMARK 922        TOTAL FREE ENERGY PREDICTED BY IDOCK:   -6.67 KCAL/MOL
REMARK 923 INTER-LIGAND FREE ENERGY PREDICTED BY IDOCK:   -6.81 KCAL/MOL
REMARK 924 INTRA-LIGAND FREE ENERGY PREDICTED BY IDOCK:    0.14 KCAL/MOL
REMARK 927      BINDING AFFINITY PREDICTED BY RF-SCORE:    0.00 PKD
ROOT
HETATM    1  O5* UNL     1     -14.355   9.138  73.151  1.00  0.00    -1.102 OA 
HETATM    2  H5* UNL     1     -14.934   8.807  73.826  1.00  0.00     0.000 HD 
HETATM    3  C5* UNL     1     -14.051   8.133  72.183  1.00  0.00    -0.303 C  
ENDROOT
BRANCH   3   4
HETATM    4  C4* UNL     1     -13.119   8.666  71.097  1.00  0.00    -0.047 C  
HETATM    5  O4* UNL     1     -13.446  10.023  70.748  1.00  0.00    -0.316 OA 
HETATM    6  C1* UNL     1     -12.268  10.550  70.118  1.00  0.00    -0.280 C  
HETATM    7  C2* UNL     1     -11.087   9.942  70.871  1.00  0.00    -0.418 C  
HETATM    8  H3* UNL     1     -10.069   7.531  71.267  1.00  0.00     0.000 HD 
HETATM    9  O3* UNL     1     -10.985   7.520  71.014  1.00  0.00    -0.243 OA 
HETATM   10  C3* UNL     1     -11.647   8.683  71.504  1.00  0.00    -0.302 C  
BRANCH   6  11
HETATM   11  N   UNL     1     -12.279  12.011  70.082  1.00  0.00    -0.267 N  
HETATM   12  C   UNL     1     -11.713  12.721  69.037  1.00  0.00    -0.323 C  
HETATM   13  C   UNL     1     -10.951  14.816  67.940  1.00  0.00    -0.278 C  
HETATM   14  C   UNL     1     -11.596  14.058  69.040  1.00  0.00    -0.345 C  
HETATM   15  C   UNL     1     -12.103  14.789  70.207  1.00  0.00    -0.322 C  
HETATM   16  O   UNL     1     -11.991  16.000  70.349  1.00  0.00    -0.340 OA 
HETATM   17  N   UNL     1     -12.716  14.029  71.167  1.00  0.00    -0.345 N  
HETATM   18  F   UNL     1     -10.804  16.147  68.138  1.00  0.00    -0.276 F  
HETATM   19  F   UNL     1      -9.704  14.333  67.685  1.00  0.00    -0.209 F  
HETATM   20  F   UNL     1     -11.649  14.676  66.780  1.00  0.00    -0.341 F  
HETATM   21  C   UNL     1     -12.785  12.663  71.199  1.00  0.00    -0.254 C  
HETATM   22  H   UNL     1     -13.165  14.531  71.933  1.00  0.00     0.000 HD 
HETATM   23  O   UNL     1     -13.260  12.090  72.178  1.00  0.00    -0.495 OA 
ENDBRANCH   6  11
ENDBRANCH   3   4
TORSDOF 2
ENDMDL
MODEL       51
REMARK 921   NORMALIZED FREE ENERGY PREDICTED BY IDOCK:   -5.57 KCAL/MOL
REMARK 922        TOTAL FREE ENERGY PREDICTED BY IDOCK:   -6.66 KCAL/MOL
REMARK 923 INTER-LIGAND FREE ENERGY PREDICTED BY IDOCK:   -6.74 KCAL/MOL
REMARK 924 INTRA-LIGAND FREE ENERGY PREDICTED BY IDOCK:    0.08 KCAL/MOL
REMARK 927      BINDING AFFINITY PREDICTED BY RF-SCORE:    0.00 PKD
ROOT
HETATM    1  O5* UNL     1     -13.801   9.030  73.311  1.00  0.00    -1.159 OA 
HETATM    2  H5* UNL     1     -14.325   8.285  73.582  1.00  0.00     0.000 HD 
HETATM    3  C5* UNL     1     -13.087   8.756  72.106  1.00  0.00    -0.406 C  
ENDROOT
BRANCH   3   4
HETATM    4  C4* UNL     1     -12.244   9.954  71.670  1.00  0.00    -0.395 C  
HETATM    5  O4* UNL     1     -11.538   9.677  70.448  1.00  0.00    -0.258 OA 
HETATM    6  C1* UNL     1     -11.196  10.963  69.906  1.00  0.00    -0.282 C  
HETATM    7  C2* UNL     1     -12.378  11.875  70.222  1.00  0.00    -0.287 C  
HETATM    8  H3* UNL     1     -13.555  12.850  72.384  1.00  0.00     0.000 HD 
HETATM    9  O3* UNL     1     -13.047  12.065  72.549  1.00  0.00    -0.184 OA 
HETATM   10  C3* UNL     1     -13.061  11.216  71.405  1.00  0.00    -0.321 C  
BRANCH   6  11
HETATM   11  N   UNL     1     -10.854  10.881  68.487  1.00  0.00    -0.203 N  
HETATM   12  C   UNL     1     -11.326  11.801  67.567  1.00  0.00    -0.310 C  
HETATM   13  C   UNL     1     -11.674  12.640  65.254  1.00  0.00    -0.378 C  
HETATM   14  C   UNL     1     -11.133  11.677  66.244  1.00  0.00    -0.345 C  
HETATM   15  C   UNL     1     -10.379  10.513  65.766  1.00  0.00    -0.200 C  
HETATM   16  O   UNL     1     -10.200  10.261  64.581  1.00  0.00    -0.322 OA 
HETATM   17  N   UNL     1      -9.881   9.686  66.737  1.00  0.00    -0.198 N  
HETATM   18  F   UNL     1     -11.497  12.321  63.951  1.00  0.00    -0.365 F  
HETATM   19  F   UNL     1     -13.016  12.805  65.422  1.00  0.00    -0.500 F  
HETATM   20  F   UNL     1     -11.124  13.873  65.425  1.00  0.00    -0.295 F  
HETATM   21  C   UNL     1     -10.124   9.772  68.081  1.00  0.00    -0.165 C  
HETATM   22  H   UNL     1      -9.269   8.930  66.427  1.00  0.00     0.000 HD 
HETATM   23  O   UNL     1      -9.715   8.896  68.841  1.00  0.00    -0.165 OA 
ENDBRANCH   6  11
ENDBRANCH   3   4
TORSDOF 2
ENDMDL
MODEL       52
REMARK 921   NORMALIZED FREE ENERGY PREDICTED BY IDOCK:   -5.41 KCAL/MOL
REMARK 922        TOTAL FREE ENERGY PREDICTED BY IDOCK:   -6.48 KCAL/MOL
REMARK 923 INTER-LIGAND FREE ENERGY PREDICTED BY IDOCK:   -6.73 KCAL/MOL
REMARK 924 INTRA-LIGAND FREE ENERGY PREDICTED BY IDOCK:    0.26 KCAL/MOL
REMARK 927      BINDING AFFINITY PREDICTED BY RF-SCORE:    0.00 PKD
ROOT
HETATM    1  O5* UNL     1     -11.048  16.876  64.812  1.00  0.00    -0.764 OA 
HETATM    2  H5* UNL     1     -10.848  17.726  65.185  1.00  0.00     0.000 HD 
HETATM    3  C5* UNL     1     -10.353  15.830  65.491  1.00  0.00    -0.404 C  
ENDROOT
BRANCH   3   4
HETATM    4  C4* UNL     1     -10.675  14.462  64.891  1.00  0.00    -0.426 C  
HETATM    5  O4* UNL     1     -10.078  13.402  65.659  1.00  0.00    -0.289 OA 
HETATM    6  C1* UNL     1     -10.813  12.219  65.312  1.00  0.00    -0.293 C  
HETATM    7  C2* UNL     1     -12.262  12.666  65.139  1.00  0.00    -0.539 C  
HETATM    8  H3* UNL     1     -13.623  14.257  63.518  1.00  0.00     0.000 HD 
HETATM    9  O3* UNL     1     -12.694  14.451  63.550  1.00  0.00    -0.742 OA 
HETATM   10  C3* UNL     1     -12.169  14.150  64.840  1.00  0.00    -0.438 C  
BRANCH   6  11
HETATM   11  N   UNL     1     -10.620  11.152  66.293  1.00  0.00    -0.260 N  
HETATM   12  C   UNL     1      -9.824  10.051  66.029  1.00  0.00    -0.257 C  
HETATM   13  C   UNL     1      -8.912   7.801  66.556  1.00  0.00    -0.161 C  
HETATM   14  C   UNL     1      -9.731   9.000  66.859  1.00  0.00    -0.260 C  
HETATM   15  C   UNL     1     -10.507   9.036  68.103  1.00  0.00    -0.207 C  
HETATM   16  O   UNL     1     -10.553   8.109  68.901  1.00  0.00    -0.212 OA 
HETATM   17  N   UNL     1     -11.212  10.187  68.332  1.00  0.00    -0.468 N  
HETATM   18  F   UNL     1      -9.008   6.774  67.432  1.00  0.00    -0.117 F  
HETATM   19  F   UNL     1      -9.237   7.287  65.337  1.00  0.00    -0.015 F  
HETATM   20  F   UNL     1      -7.591   8.120  66.484  1.00  0.00    -0.085 F  
HETATM   21  C   UNL     1     -11.360  11.236  67.465  1.00  0.00    -0.288 C  
HETATM   22  H   UNL     1     -11.673  10.271  69.239  1.00  0.00     0.000 HD 
HETATM   23  O   UNL     1     -12.118  12.164  67.740  1.00  0.00    -0.508 OA 
ENDBRANCH   6  11
ENDBRANCH   3   4
TORSDOF 2
ENDMDL
MODEL       53
REMARK 921   NORMALIZED FREE ENERGY PREDICTED BY IDOCK:   -5.41 KCAL/MOL
REMARK 922        TOTAL FREE ENERGY PREDICTED BY IDOCK:   -6.47 KCAL/MOL
REMARK 923 INTER-LIGAND FREE ENERGY PREDICTED BY IDOCK:   -6.16 KCAL/MOL
REMARK 924 INTRA-LIGAND FREE ENERGY PREDICTED BY IDOCK:   -0.31 KCAL/MOL
REMARK 927      BINDING AFFINITY PREDICTED BY RF-SCORE:    0.00 PKD
ROOT
HETATM    1  O5* UNL     1     -10.964  15.789  64.138  1.00  0.00    -0.811 OA 
HETATM    2  H5* UNL     1     -11.584  15.929  63.433  1.00  0.00     0.000 HD 
HETATM    3  C5* UNL     1     -11.015  14.447  64.622  1.00  0.00    -0.354 C  
ENDROOT
BRANCH   3   4
HETATM    4  C4* UNL     1     -10.017  14.222  65.756  1.00  0.00    -0.323 C  
HETATM    5  O4* UNL     1      -9.203  15.389  65.974  1.00  0.00    -0.316 OA 
HETATM    6  C1* UNL     1      -8.679  15.246  67.303  1.00  0.00    -0.197 C  
HETATM    7  C2* UNL     1      -9.797  14.609  68.125  1.00  0.00    -0.224 C  
HETATM    8  H3* UNL     1     -11.118  12.315  68.157  1.00  0.00     0.000 HD 
HETATM    9  O3* UNL     1     -10.710  12.507  67.322  1.00  0.00    -0.228 OA 
HETATM   10  C3* UNL     1     -10.673  13.914  67.100  1.00  0.00    -0.282 C  
BRANCH   6  11
HETATM   11  N   UNL     1      -8.185  16.517  67.832  1.00  0.00    -0.166 N  
HETATM   12  C   UNL     1      -8.533  17.730  67.264  1.00  0.00    -0.231 C  
HETATM   13  C   UNL     1      -8.335  20.193  67.011  1.00  0.00    -0.328 C  
HETATM   14  C   UNL     1      -7.994  18.898  67.648  1.00  0.00    -0.273 C  
HETATM   15  C   UNL     1      -6.999  18.874  68.726  1.00  0.00    -0.302 C  
HETATM   16  O   UNL     1      -6.394  19.866  69.112  1.00  0.00    -0.285 OA 
HETATM   17  N   UNL     1      -6.760  17.650  69.289  1.00  0.00    -0.247 N  
HETATM   18  F   UNL     1      -7.626  21.269  67.427  1.00  0.00    -0.415 F  
HETATM   19  F   UNL     1      -8.164  20.129  65.661  1.00  0.00    -0.332 F  
HETATM   20  F   UNL     1      -9.646  20.501  67.206  1.00  0.00    -0.499 F  
HETATM   21  C   UNL     1      -7.259  16.448  68.865  1.00  0.00    -0.203 C  
HETATM   22  H   UNL     1      -6.150  17.631  70.107  1.00  0.00     0.000 HD 
HETATM   23  O   UNL     1      -6.874  15.401  69.381  1.00  0.00    -0.147 OA 
ENDBRANCH   6  11
ENDBRANCH   3   4
TORSDOF 2
ENDMDL
MODEL       54
REMARK 921   NORMALIZED FREE ENERGY PREDICTED BY IDOCK:   -5.41 KCAL/MOL
REMARK 922        TOTAL FREE ENERGY PREDICTED BY IDOCK:   -6.47 KCAL/MOL
REMARK 923 INTER-LIGAND FREE ENERGY PREDICTED BY IDOCK:   -6.05 KCAL/MOL
REMARK 924 INTRA-LIGAND FREE ENERGY PREDICTED BY IDOCK:   -0.42 KCAL/MOL
REMARK 927      BINDING AFFINITY PREDICTED BY RF-SCORE:    0.00 PKD
ROOT
HETATM    1  O5* UNL     1     -11.851  13.660  67.955  1.00  0.00    -0.335 OA 
HETATM    2  H5* UNL     1     -12.132  13.924  68.823  1.00  0.00     0.000 HD 
HETATM    3  C5* UNL     1     -11.655  14.788  67.103  1.00  0.00    -0.359 C  
ENDROOT
BRANCH   3   4
HETATM    4  C4* UNL     1     -11.203  14.362  65.707  1.00  0.00    -0.326 C  
HETATM    5  O4* UNL     1     -10.334  13.217  65.766  1.00  0.00    -0.278 OA 
HETATM    6  C1* UNL     1     -10.372  12.641  64.451  1.00  0.00    -0.360 C  
HETATM    7  C2* UNL     1     -11.808  12.813  63.963  1.00  0.00    -0.506 C  
HETATM    8  H3* UNL     1     -13.433  14.818  63.375  1.00  0.00     0.000 HD 
HETATM    9  O3* UNL     1     -12.718  15.064  63.950  1.00  0.00    -0.775 OA 
HETATM   10  C3* UNL     1     -12.352  13.967  64.782  1.00  0.00    -0.413 C  
BRANCH   6  11
HETATM   11  N   UNL     1      -9.890  11.260  64.449  1.00  0.00    -0.253 N  
HETATM   12  C   UNL     1     -10.039  10.432  65.548  1.00  0.00    -0.283 C  
HETATM   13  C   UNL     1      -9.618   8.336  66.813  1.00  0.00    -0.224 C  
HETATM   14  C   UNL     1      -9.495   9.207  65.619  1.00  0.00    -0.309 C  
HETATM   15  C   UNL     1      -8.717   8.733  64.469  1.00  0.00    -0.043 C  
HETATM   16  O   UNL     1      -8.122   7.664  64.448  1.00  0.00    -0.138 OA 
HETATM   17  N   UNL     1      -8.675   9.575  63.390  1.00  0.00    -0.219 N  
HETATM   18  F   UNL     1      -8.919   7.177  66.782  1.00  0.00    -0.118 F  
HETATM   19  F   UNL     1      -9.209   8.992  67.935  1.00  0.00    -0.138 F  
HETATM   20  F   UNL     1     -10.917   7.995  67.035  1.00  0.00    -0.391 F  
HETATM   21  C   UNL     1      -9.175  10.848  63.333  1.00  0.00    -0.265 C  
HETATM   22  H   UNL     1      -8.227   9.218  62.546  1.00  0.00     0.000 HD 
HETATM   23  O   UNL     1      -8.969  11.549  62.344  1.00  0.00    -0.316 OA 
ENDBRANCH   6  11
ENDBRANCH   3   4
TORSDOF 2
ENDMDL
MODEL       55
REMARK 921   NORMALIZED FREE ENERGY PREDICTED BY IDOCK:   -5.38 KCAL/MOL
REMARK 922        TOTAL FREE ENERGY PREDICTED BY IDOCK:   -6.44 KCAL/MOL
REMARK 923 INTER-LIGAND FREE ENERGY PREDICTED BY IDOCK:   -6.10 KCAL/MOL
REMARK 924 INTRA-LIGAND FREE ENERGY PREDICTED BY IDOCK:   -0.35 KCAL/MOL
REMARK 927      BINDING AFFINITY PREDICTED BY RF-SCORE:    0.00 PKD
ROOT
HETATM    1  O5* UNL     1     -11.912  11.741  70.767  1.00  0.00    -0.424 OA 
HETATM    2  H5* UNL     1     -11.782  11.554  71.689  1.00  0.00     0.000 HD 
HETATM    3  C5* UNL     1     -11.928  13.145  70.515  1.00  0.00    -0.222 C  
ENDROOT
BRANCH   3   4
HETATM    4  C4* UNL     1     -12.136  13.446  69.032  1.00  0.00    -0.259 C  
HETATM    5  O4* UNL     1     -11.857  14.825  68.735  1.00  0.00    -0.308 OA 
HETATM    6  C1* UNL     1     -11.618  14.870  67.320  1.00  0.00    -0.324 C  
HETATM    7  C2* UNL     1     -10.877  13.580  66.982  1.00  0.00    -0.287 C  
HETATM    8  H3* UNL     1     -11.376  10.980  67.042  1.00  0.00     0.000 HD 
HETATM    9  O3* UNL     1     -11.935  11.488  67.617  1.00  0.00    -0.630 OA 
HETATM   10  C3* UNL     1     -11.237  12.629  68.107  1.00  0.00    -0.269 C  
BRANCH   6  11
HETATM   11  N   UNL     1     -10.921  16.093  66.925  1.00  0.00    -0.173 N  
HETATM   12  C   UNL     1     -10.395  16.969  67.859  1.00  0.00    -0.338 C  
HETATM   13  C   UNL     1      -9.340  19.115  68.533  1.00  0.00    -0.374 C  
HETATM   14  C   UNL     1      -9.864  18.157  67.529  1.00  0.00    -0.317 C  
HETATM   15  C   UNL     1      -9.839  18.528  66.110  1.00  0.00    -0.283 C  
HETATM   16  O   UNL     1      -9.442  19.611  65.699  1.00  0.00    -0.328 OA 
HETATM   17  N   UNL     1     -10.308  17.582  65.238  1.00  0.00     0.130 N  
HETATM   18  F   UNL     1      -8.943  20.319  68.060  1.00  0.00    -0.365 F  
HETATM   19  F   UNL     1     -10.275  19.376  69.488  1.00  0.00    -0.414 F  
HETATM   20  F   UNL     1      -8.271  18.591  69.192  1.00  0.00    -0.265 F  
HETATM   21  C   UNL     1     -10.904  16.396  65.570  1.00  0.00    -0.215 C  
HETATM   22  H   UNL     1     -10.201  17.781  64.243  1.00  0.00     0.000 HD 
HETATM   23  O   UNL     1     -11.393  15.683  64.695  1.00  0.00    -0.431 OA 
ENDBRANCH   6  11
ENDBRANCH   3   4
TORSDOF 2
ENDMDL
MODEL       56
REMARK 921   NORMALIZED FREE ENERGY PREDICTED BY IDOCK:   -5.38 KCAL/MOL
REMARK 922        TOTAL FREE ENERGY PREDICTED BY IDOCK:   -6.44 KCAL/MOL
REMARK 923 INTER-LIGAND FREE ENERGY PREDICTED BY IDOCK:   -6.01 KCAL/MOL
REMARK 924 INTRA-LIGAND FREE ENERGY PREDICTED BY IDOCK:   -0.43 KCAL/MOL
REMARK 927      BINDING AFFINITY PREDICTED BY RF-SCORE:    0.00 PKD
ROOT
HETATM    1  O5* UNL     1     -13.339  12.554  72.007  1.00  0.00    -0.502 OA 
HETATM    2  H5* UNL     1     -13.611  12.730  72.900  1.00  0.00     0.000 HD 
HETATM    3  C5* UNL     1     -12.986  11.183  71.828  1.00  0.00    -0.421 C  
ENDROOT
BRANCH   3   4
HETATM    4  C4* UNL     1     -12.547  10.901  70.392  1.00  0.00    -0.294 C  
HETATM    5  O4* UNL     1     -12.598  12.093  69.587  1.00  0.00     0.074 OA 
HETATM    6  C1* UNL     1     -11.745  11.831  68.462  1.00  0.00    -0.330 C  
HETATM    7  C2* UNL     1     -10.578  11.012  69.008  1.00  0.00    -0.258 C  
HETATM    8  H3* UNL     1     -10.224   8.634  70.116  1.00  0.00     0.000 HD 
HETATM    9  O3* UNL     1     -11.113   8.958  70.188  1.00  0.00    -0.242 OA 
HETATM   10  C3* UNL     1     -11.117  10.380  70.276  1.00  0.00    -0.307 C  
BRANCH   6  11
HETATM   11  N   UNL     1     -11.356  13.062  67.777  1.00  0.00    -0.275 N  
HETATM   12  C   UNL     1     -10.848  14.152  68.463  1.00  0.00    -0.252 C  
HETATM   13  C   UNL     1     -10.099  16.515  68.620  1.00  0.00    -0.255 C  
HETATM   14  C   UNL     1     -10.603  15.334  67.877  1.00  0.00    -0.260 C  
HETATM   15  C   UNL     1     -10.883  15.463  66.443  1.00  0.00    -0.303 C  
HETATM   16  O   UNL     1     -10.763  16.509  65.819  1.00  0.00    -0.310 OA 
HETATM   17  N   UNL     1     -11.314  14.324  65.816  1.00  0.00    -0.320 N  
HETATM   18  F   UNL     1     -10.011  17.670  67.919  1.00  0.00    -0.276 F  
HETATM   19  F   UNL     1     -10.891  16.787  69.694  1.00  0.00    -0.317 F  
HETATM   20  F   UNL     1      -8.858  16.278  69.125  1.00  0.00    -0.226 F  
HETATM   21  C   UNL     1     -11.622  13.133  66.416  1.00  0.00    -0.349 C  
HETATM   22  H   UNL     1     -11.414  14.367  64.801  1.00  0.00     0.000 HD 
HETATM   23  O   UNL     1     -12.114  12.218  65.758  1.00  0.00    -0.587 OA 
ENDBRANCH   6  11
ENDBRANCH   3   4
TORSDOF 2
ENDMDL
MODEL       57
REMARK 921   NORMALIZED FREE ENERGY PREDICTED BY IDOCK:   -5.33 KCAL/MOL
REMARK 922        TOTAL FREE ENERGY PREDICTED BY IDOCK:   -6.39 KCAL/MOL
REMARK 923 INTER-LIGAND FREE ENERGY PREDICTED BY IDOCK:   -6.13 KCAL/MOL
REMARK 924 INTRA-LIGAND FREE ENERGY PREDICTED BY IDOCK:   -0.26 KCAL/MOL
REMARK 927      BINDING AFFINITY PREDICTED BY RF-SCORE:    0.00 PKD
ROOT
HETATM    1  O5* UNL     1     -13.367  16.129  74.088  1.00  0.00    -0.908 OA 
HETATM    2  H5* UNL     1     -13.139  16.240  75.004  1.00  0.00     0.000 HD 
HETATM    3  C5* UNL     1     -12.204  16.079  73.262  1.00  0.00    -0.527 C  
ENDROOT
BRANCH   3   4
HETATM    4  C4* UNL     1     -12.570  15.901  71.790  1.00  0.00    -0.434 C  
HETATM    5  O4* UNL     1     -11.493  16.314  70.930  1.00  0.00    -0.406 OA 
HETATM    6  C1* UNL     1     -11.744  15.675  69.669  1.00  0.00    -0.361 C  
HETATM    7  C2* UNL     1     -12.317  14.301  70.006  1.00  0.00    -0.403 C  
HETATM    8  H3* UNL     1     -14.483  13.334  71.182  1.00  0.00     0.000 HD 
HETATM    9  O3* UNL     1     -14.289  14.232  71.422  1.00  0.00    -0.324 OA 
HETATM   10  C3* UNL     1     -12.882  14.457  71.404  1.00  0.00    -0.339 C  
BRANCH   6  11
HETATM   11  N   UNL     1     -10.550  15.646  68.827  1.00  0.00    -0.229 N  
HETATM   12  C   UNL     1      -9.862  14.472  68.574  1.00  0.00    -0.231 C  
HETATM   13  C   UNL     1      -7.935  13.185  67.677  1.00  0.00    -0.174 C  
HETATM   14  C   UNL     1      -8.695  14.438  67.912  1.00  0.00    -0.168 C  
HETATM   15  C   UNL     1      -8.139  15.707  67.432  1.00  0.00    -0.171 C  
HETATM   16  O   UNL     1      -7.052  15.805  66.877  1.00  0.00    -0.188 OA 
HETATM   17  N   UNL     1      -8.910  16.817  67.653  1.00  0.00    -0.204 N  
HETATM   18  F   UNL     1      -6.720  13.322  67.097  1.00  0.00    -0.168 F  
HETATM   19  F   UNL     1      -7.720  12.523  68.848  1.00  0.00    -0.111 F  
HETATM   20  F   UNL     1      -8.641  12.329  66.890  1.00  0.00    -0.178 F  
HETATM   21  C   UNL     1     -10.069  16.870  68.379  1.00  0.00    -0.304 C  
HETATM   22  H   UNL     1      -8.588  17.691  67.236  1.00  0.00     0.000 HD 
HETATM   23  O   UNL     1     -10.608  17.951  68.607  1.00  0.00    -0.302 OA 
ENDBRANCH   6  11
ENDBRANCH   3   4
TORSDOF 2
ENDMDL
MODEL       58
REMARK 921   NORMALIZED FREE ENERGY PREDICTED BY IDOCK:   -5.32 KCAL/MOL
REMARK 922        TOTAL FREE ENERGY PREDICTED BY IDOCK:   -6.37 KCAL/MOL
REMARK 923 INTER-LIGAND FREE ENERGY PREDICTED BY IDOCK:   -6.62 KCAL/MOL
REMARK 924 INTRA-LIGAND FREE ENERGY PREDICTED BY IDOCK:    0.25 KCAL/MOL
REMARK 927      BINDING AFFINITY PREDICTED BY RF-SCORE:    0.00 PKD
ROOT
HETATM    1  O5* UNL     1     -11.997  16.710  72.084  1.00  0.00    -0.629 OA 
HETATM    2  H5* UNL     1     -11.476  17.338  72.570  1.00  0.00     0.000 HD 
HETATM    3  C5* UNL     1     -11.281  16.193  70.963  1.00  0.00    -0.253 C  
ENDROOT
BRANCH   3   4
HETATM    4  C4* UNL     1     -12.118  15.182  70.182  1.00  0.00    -0.343 C  
HETATM    5  O4* UNL     1     -11.645  15.048  68.829  1.00  0.00    -0.303 OA 
HETATM    6  C1* UNL     1     -12.160  13.789  68.369  1.00  0.00    -0.289 C  
HETATM    7  C2* UNL     1     -12.102  12.851  69.572  1.00  0.00    -0.274 C  
HETATM    8  H3* UNL     1     -13.225  12.689  71.964  1.00  0.00     0.000 HD 
HETATM    9  O3* UNL     1     -13.239  13.564  71.595  1.00  0.00    -0.365 OA 
HETATM   10  C3* UNL     1     -12.095  13.775  70.774  1.00  0.00    -0.319 C  
BRANCH   6  11
HETATM   11  N   UNL     1     -11.443  13.308  67.188  1.00  0.00    -0.323 N  
HETATM   12  C   UNL     1     -12.068  13.163  65.962  1.00  0.00    -0.436 C  
HETATM   13  C   UNL     1     -12.152  12.411  63.596  1.00  0.00    -0.556 C  
HETATM   14  C   UNL     1     -11.469  12.606  64.898  1.00  0.00    -0.361 C  
HETATM   15  C   UNL     1     -10.086  12.142  65.053  1.00  0.00    -0.263 C  
HETATM   16  O   UNL     1      -9.464  11.559  64.174  1.00  0.00    -0.187 OA 
HETATM   17  N   UNL     1      -9.508  12.385  66.270  1.00  0.00    -0.262 N  
HETATM   18  F   UNL     1     -11.459  11.731  62.653  1.00  0.00     0.024 F  
HETATM   19  F   UNL     1     -13.325  11.737  63.760  1.00  0.00    -0.516 F  
HETATM   20  F   UNL     1     -12.486  13.607  63.038  1.00  0.00    -0.530 F  
HETATM   21  C   UNL     1     -10.130  12.897  67.377  1.00  0.00    -0.223 C  
HETATM   22  H   UNL     1      -8.517  12.163  66.361  1.00  0.00     0.000 HD 
HETATM   23  O   UNL     1      -9.532  12.957  68.450  1.00  0.00    -0.215 OA 
ENDBRANCH   6  11
ENDBRANCH   3   4
TORSDOF 2
ENDMDL
MODEL       59
REMARK 921   NORMALIZED FREE ENERGY PREDICTED BY IDOCK:   -5.31 KCAL/MOL
REMARK 922        TOTAL FREE ENERGY PREDICTED BY IDOCK:   -6.37 KCAL/MOL
REMARK 923 INTER-LIGAND FREE ENERGY PREDICTED BY IDOCK:   -5.88 KCAL/MOL
REMARK 924 INTRA-LIGAND FREE ENERGY PREDICTED BY IDOCK:   -0.48 KCAL/MOL
REMARK 927      BINDING AFFINITY PREDICTED BY RF-SCORE:    0.00 PKD
ROOT
HETATM    1  O5* UNL     1     -10.231  11.392  65.309  1.00  0.00    -0.245 OA 
HETATM    2  H5* UNL     1      -9.706  10.603  65.359  1.00  0.00     0.000 HD 
HETATM    3  C5* UNL     1      -9.855  12.336  66.311  1.00  0.00    -0.241 C  
ENDROOT
BRANCH   3   4
HETATM    4  C4* UNL     1     -10.700  13.606  66.230  1.00  0.00    -0.285 C  
HETATM    5  O4* UNL     1     -10.228  14.606  67.149  1.00  0.00    -0.252 OA 
HETATM    6  C1* UNL     1     -10.752  15.851  66.661  1.00  0.00    -0.270 C  
HETATM    7  C2* UNL     1     -10.704  15.754  65.139  1.00  0.00    -0.455 C  
HETATM    8  H3* UNL     1     -11.830  14.281  63.249  1.00  0.00     0.000 HD 
HETATM    9  O3* UNL     1     -11.836  13.871  64.106  1.00  0.00    -0.416 OA 
HETATM   10  C3* UNL     1     -10.689  14.265  64.853  1.00  0.00    -0.432 C  
BRANCH   6  11
HETATM   11  N   UNL     1     -10.039  16.998  67.221  1.00  0.00    -0.287 N  
HETATM   12  C   UNL     1      -9.060  17.669  66.508  1.00  0.00    -0.265 C  
HETATM   13  C   UNL     1      -7.227  19.331  66.291  1.00  0.00    -0.250 C  
HETATM   14  C   UNL     1      -8.304  18.641  67.042  1.00  0.00    -0.274 C  
HETATM   15  C   UNL     1      -8.540  19.004  68.443  1.00  0.00    -0.348 C  
HETATM   16  O   UNL     1      -7.868  19.826  69.053  1.00  0.00    -0.292 OA 
HETATM   17  N   UNL     1      -9.572  18.350  69.062  1.00  0.00    -0.239 N  
HETATM   18  F   UNL     1      -6.473  20.206  66.997  1.00  0.00    -0.200 F  
HETATM   19  F   UNL     1      -6.356  18.431  65.756  1.00  0.00    -0.210 F  
HETATM   20  F   UNL     1      -7.737  20.026  65.238  1.00  0.00    -0.292 F  
HETATM   21  C   UNL     1     -10.307  17.318  68.545  1.00  0.00    -0.371 C  
HETATM   22  H   UNL     1      -9.817  18.663  70.002  1.00  0.00     0.000 HD 
HETATM   23  O   UNL     1     -11.130  16.733  69.246  1.00  0.00    -0.260 OA 
ENDBRANCH   6  11
ENDBRANCH   3   4
TORSDOF 2
ENDMDL
MODEL       60
REMARK 921   NORMALIZED FREE ENERGY PREDICTED BY IDOCK:   -5.31 KCAL/MOL
REMARK 922        TOTAL FREE ENERGY PREDICTED BY IDOCK:   -6.36 KCAL/MOL
REMARK 923 INTER-LIGAND FREE ENERGY PREDICTED BY IDOCK:   -5.90 KCAL/MOL
REMARK 924 INTRA-LIGAND FREE ENERGY PREDICTED BY IDOCK:   -0.47 KCAL/MOL
REMARK 927      BINDING AFFINITY PREDICTED BY RF-SCORE:    0.00 PKD
ROOT
HETATM    1  O5* UNL     1      -9.926   7.852  69.320  1.00  0.00    -0.181 OA 
HETATM    2  H5* UNL     1     -10.460   7.325  69.902  1.00  0.00     0.000 HD 
HETATM    3  C5* UNL     1      -9.868   7.291  68.009  1.00  0.00    -0.145 C  
ENDROOT
BRANCH   3   4
HETATM    4  C4* UNL     1      -9.010   8.140  67.074  1.00  0.00    -0.141 C  
HETATM    5  O4* UNL     1      -9.818   8.814  66.093  1.00  0.00    -0.267 OA 
HETATM    6  C1* UNL     1      -9.011   9.902  65.615  1.00  0.00    -0.171 C  
HETATM    7  C2* UNL     1      -8.238  10.410  66.829  1.00  0.00    -0.126 C  
HETATM    8  H3* UNL     1      -6.398   9.478  68.489  1.00  0.00     0.000 HD 
HETATM    9  O3* UNL     1      -6.889   8.797  68.045  1.00  0.00    -0.068 OA 
HETATM   10  C3* UNL     1      -8.220   9.234  67.788  1.00  0.00    -0.115 C  
BRANCH   6  11
HETATM   11  N   UNL     1      -9.815  10.918  64.938  1.00  0.00    -0.260 N  
HETATM   12  C   UNL     1     -10.479  11.911  65.637  1.00  0.00    -0.262 C  
HETATM   13  C   UNL     1     -12.069  13.812  65.809  1.00  0.00    -0.429 C  
HETATM   14  C   UNL     1     -11.323  12.776  65.053  1.00  0.00    -0.344 C  
HETATM   15  C   UNL     1     -11.535  12.659  63.607  1.00  0.00    -0.495 C  
HETATM   16  O   UNL     1     -12.331  13.348  62.980  1.00  0.00    -0.622 OA 
HETATM   17  N   UNL     1     -10.789  11.704  62.970  1.00  0.00    -0.696 N  
HETATM   18  F   UNL     1     -12.969  14.535  65.103  1.00  0.00    -0.413 F  
HETATM   19  F   UNL     1     -12.760  13.256  66.842  1.00  0.00    -0.229 F  
HETATM   20  F   UNL     1     -11.216  14.710  66.373  1.00  0.00    -0.312 F  
HETATM   21  C   UNL     1      -9.973  10.780  63.565  1.00  0.00    -0.344 C  
HETATM   22  H   UNL     1     -10.847  11.678  61.952  1.00  0.00     0.000 HD 
HETATM   23  O   UNL     1      -9.447   9.894  62.893  1.00  0.00    -0.276 OA 
ENDBRANCH   6  11
ENDBRANCH   3   4
TORSDOF 2
ENDMDL
MODEL       61
REMARK 921   NORMALIZED FREE ENERGY PREDICTED BY IDOCK:   -5.31 KCAL/MOL
REMARK 922        TOTAL FREE ENERGY PREDICTED BY IDOCK:   -6.36 KCAL/MOL
REMARK 923 INTER-LIGAND FREE ENERGY PREDICTED BY IDOCK:   -6.02 KCAL/MOL
REMARK 924 INTRA-LIGAND FREE ENERGY PREDICTED BY IDOCK:   -0.34 KCAL/MOL
REMARK 927      BINDING AFFINITY PREDICTED BY RF-SCORE:    0.00 PKD
ROOT
HETATM    1  O5* UNL     1     -12.392  14.990  68.595  1.00  0.00    -0.585 OA 
HETATM    2  H5* UNL     1     -12.648  15.587  69.287  1.00  0.00     0.000 HD 
HETATM    3  C5* UNL     1     -11.627  15.652  67.588  1.00  0.00    -0.086 C  
ENDROOT
BRANCH   3   4
HETATM    4  C4* UNL     1     -11.217  14.691  66.474  1.00  0.00    -0.346 C  
HETATM    5  O4* UNL     1     -10.659  13.478  67.011  1.00  0.00    -0.266 OA 
HETATM    6  C1* UNL     1     -10.764  12.510  65.955  1.00  0.00    -0.262 C  
HETATM    7  C2* UNL     1     -12.085  12.806  65.250  1.00  0.00    -0.505 C  
HETATM    8  H3* UNL     1     -13.134  14.787  63.841  1.00  0.00     0.000 HD 
HETATM    9  O3* UNL     1     -12.414  15.056  64.399  1.00  0.00    -0.498 OA 
HETATM   10  C3* UNL     1     -12.374  14.258  65.578  1.00  0.00    -0.408 C  
BRANCH   6  11
HETATM   11  N   UNL     1     -10.635  11.143  66.457  1.00  0.00    -0.256 N  
HETATM   12  C   UNL     1     -10.815  10.835  67.795  1.00  0.00    -0.269 C  
HETATM   13  C   UNL     1     -10.731   9.295  69.742  1.00  0.00    -0.231 C  
HETATM   14  C   UNL     1     -10.579   9.615  68.301  1.00  0.00    -0.268 C  
HETATM   15  C   UNL     1     -10.118   8.567  67.385  1.00  0.00    -0.234 C  
HETATM   16  O   UNL     1      -9.808   7.439  67.745  1.00  0.00    -0.142 OA 
HETATM   17  N   UNL     1     -10.034   8.924  66.065  1.00  0.00    -0.431 N  
HETATM   18  F   UNL     1     -10.345   8.055  70.123  1.00  0.00    -0.199 F  
HETATM   19  F   UNL     1     -10.015  10.164  70.509  1.00  0.00    -0.287 F  
HETATM   20  F   UNL     1     -12.026   9.432  70.136  1.00  0.00    -0.193 F  
HETATM   21  C   UNL     1     -10.215  10.179  65.550  1.00  0.00    -0.218 C  
HETATM   22  H   UNL     1      -9.815   8.182  65.401  1.00  0.00     0.000 HD 
HETATM   23  O   UNL     1      -9.994  10.398  64.360  1.00  0.00    -0.335 OA 
ENDBRANCH   6  11
ENDBRANCH   3   4
TORSDOF 2
ENDMDL
MODEL       62
REMARK 921   NORMALIZED FREE ENERGY PREDICTED BY IDOCK:   -5.30 KCAL/MOL
REMARK 922        TOTAL FREE ENERGY PREDICTED BY IDOCK:   -6.35 KCAL/MOL
REMARK 923 INTER-LIGAND FREE ENERGY PREDICTED BY IDOCK:   -6.51 KCAL/MOL
REMARK 924 INTRA-LIGAND FREE ENERGY PREDICTED BY IDOCK:    0.17 KCAL/MOL
REMARK 927      BINDING AFFINITY PREDICTED BY RF-SCORE:    0.00 PKD
ROOT
HETATM    1  O5* UNL     1     -11.598   7.043  69.397  1.00  0.00    -0.536 OA 
HETATM    2  H5* UNL     1     -11.410   6.203  68.996  1.00  0.00     0.000 HD 
HETATM    3  C5* UNL     1     -11.795   6.919  70.805  1.00  0.00    -0.377 C  
ENDROOT
BRANCH   3   4
HETATM    4  C4* UNL     1     -12.097   8.271  71.449  1.00  0.00    -0.300 C  
HETATM    5  O4* UNL     1     -11.476   9.346  70.722  1.00  0.00    -0.268 OA 
HETATM    6  C1* UNL     1     -12.194  10.529  71.105  1.00  0.00    -0.391 C  
HETATM    7  C2* UNL     1     -13.651  10.102  71.254  1.00  0.00    -0.192 C  
HETATM    8  H3* UNL     1     -15.050   8.481  72.811  1.00  0.00     0.000 HD 
HETATM    9  O3* UNL     1     -14.124   8.271  72.778  1.00  0.00    -0.064 OA 
HETATM   10  C3* UNL     1     -13.586   8.608  71.503  1.00  0.00    -0.318 C  
BRANCH   6  11
HETATM   11  N   UNL     1     -11.975  11.626  70.162  1.00  0.00    -0.349 N  
HETATM   12  C   UNL     1     -12.042  12.951  70.554  1.00  0.00    -0.282 C  
HETATM   13  C   UNL     1     -12.087  15.394  70.101  1.00  0.00    -0.369 C  
HETATM   14  C   UNL     1     -11.972  13.974  69.687  1.00  0.00    -0.393 C  
HETATM   15  C   UNL     1     -11.809  13.658  68.264  1.00  0.00    -0.369 C  
HETATM   16  O   UNL     1     -11.801  14.504  67.378  1.00  0.00    -0.389 OA 
HETATM   17  N   UNL     1     -11.676  12.330  67.959  1.00  0.00    -0.352 N  
HETATM   18  F   UNL     1     -12.114  16.307  69.103  1.00  0.00    -0.281 F  
HETATM   19  F   UNL     1     -13.220  15.596  70.828  1.00  0.00    -0.505 F  
HETATM   20  F   UNL     1     -11.055  15.747  70.916  1.00  0.00    -0.303 F  
HETATM   21  C   UNL     1     -11.806  11.280  68.827  1.00  0.00    -0.329 C  
HETATM   22  H   UNL     1     -11.459  12.100  66.989  1.00  0.00     0.000 HD 
HETATM   23  O   UNL     1     -11.783  10.124  68.409  1.00  0.00    -0.147 OA 
ENDBRANCH   6  11
ENDBRANCH   3   4
TORSDOF 2
ENDMDL
MODEL       63
REMARK 921   NORMALIZED FREE ENERGY PREDICTED BY IDOCK:   -5.27 KCAL/MOL
REMARK 922        TOTAL FREE ENERGY PREDICTED BY IDOCK:   -6.32 KCAL/MOL
REMARK 923 INTER-LIGAND FREE ENERGY PREDICTED BY IDOCK:   -5.89 KCAL/MOL
REMARK 924 INTRA-LIGAND FREE ENERGY PREDICTED BY IDOCK:   -0.43 KCAL/MOL
REMARK 927      BINDING AFFINITY PREDICTED BY RF-SCORE:    0.00 PKD
ROOT
HETATM    1  O5* UNL     1      -7.716   8.641  73.612  1.00  0.00    -0.394 OA 
HETATM    2  H5* UNL     1      -6.795   8.615  73.842  1.00  0.00     0.000 HD 
HETATM    3  C5* UNL     1      -8.354   7.390  73.865  1.00  0.00    -0.170 C  
ENDROOT
BRANCH   3   4
HETATM    4  C4* UNL     1      -9.836   7.432  73.494  1.00  0.00    -0.312 C  
HETATM    5  O4* UNL     1     -10.133   8.568  72.662  1.00  0.00    -0.282 OA 
HETATM    6  C1* UNL     1     -11.371   8.248  72.009  1.00  0.00    -0.325 C  
HETATM    7  C2* UNL     1     -11.313   6.751  71.717  1.00  0.00    -0.307 C  
HETATM    8  H3* UNL     1     -11.209   4.502  73.110  1.00  0.00     0.000 HD 
HETATM    9  O3* UNL     1     -10.914   5.264  73.594  1.00  0.00    -0.291 OA 
HETATM   10  C3* UNL     1     -10.309   6.208  72.715  1.00  0.00    -0.199 C  
BRANCH   6  11
HETATM   11  N   UNL     1     -11.599   9.089  70.835  1.00  0.00    -0.285 N  
HETATM   12  C   UNL     1     -10.876   8.923  69.666  1.00  0.00    -0.178 C  
HETATM   13  C   UNL     1     -10.169   9.608  67.385  1.00  0.00    -0.227 C  
HETATM   14  C   UNL     1     -10.975   9.760  68.621  1.00  0.00    -0.189 C  
HETATM   15  C   UNL     1     -11.902  10.892  68.732  1.00  0.00    -0.235 C  
HETATM   16  O   UNL     1     -12.025  11.754  67.872  1.00  0.00    -0.575 OA 
HETATM   17  N   UNL     1     -12.636  10.949  69.886  1.00  0.00    -0.361 N  
HETATM   18  F   UNL     1     -10.294  10.593  66.465  1.00  0.00    -0.259 F  
HETATM   19  F   UNL     1      -8.842   9.532  67.678  1.00  0.00    -0.118 F  
HETATM   20  F   UNL     1     -10.475   8.446  66.745  1.00  0.00    -0.352 F  
HETATM   21  C   UNL     1     -12.498  10.137  70.979  1.00  0.00    -0.375 C  
HETATM   22  H   UNL     1     -13.358  11.669  69.936  1.00  0.00     0.000 HD 
HETATM   23  O   UNL     1     -13.137  10.365  72.004  1.00  0.00    -0.455 OA 
ENDBRANCH   6  11
ENDBRANCH   3   4
TORSDOF 2
ENDMDL
MODEL       64
REMARK 921   NORMALIZED FREE ENERGY PREDICTED BY IDOCK:   -5.27 KCAL/MOL
REMARK 922        TOTAL FREE ENERGY PREDICTED BY IDOCK:   -6.31 KCAL/MOL
REMARK 923 INTER-LIGAND FREE ENERGY PREDICTED BY IDOCK:   -6.53 KCAL/MOL
REMARK 924 INTRA-LIGAND FREE ENERGY PREDICTED BY IDOCK:    0.21 KCAL/MOL
REMARK 927      BINDING AFFINITY PREDICTED BY RF-SCORE:    0.00 PKD
ROOT
HETATM    1  O5* UNL     1      -8.805  17.777  67.606  1.00  0.00    -0.243 OA 
HETATM    2  H5* UNL     1      -8.189  18.491  67.721  1.00  0.00     0.000 HD 
HETATM    3  C5* UNL     1      -8.135  16.545  67.341  1.00  0.00    -0.150 C  
ENDROOT
BRANCH   3   4
HETATM    4  C4* UNL     1      -9.126  15.397  67.156  1.00  0.00    -0.220 C  
HETATM    5  O4* UNL     1      -9.490  14.814  68.420  1.00  0.00    -0.199 OA 
HETATM    6  C1* UNL     1     -10.724  14.121  68.179  1.00  0.00    -0.245 C  
HETATM    7  C2* UNL     1     -11.500  14.985  67.189  1.00  0.00    -0.304 C  
HETATM    8  H3* UNL     1     -11.214  15.808  64.689  1.00  0.00     0.000 HD 
HETATM    9  O3* UNL     1     -10.398  15.547  65.099  1.00  0.00    -0.380 OA 
HETATM   10  C3* UNL     1     -10.437  15.818  66.497  1.00  0.00    -0.303 C  
BRANCH   6  11
HETATM   11  N   UNL     1     -11.437  13.832  69.423  1.00  0.00    -0.277 N  
HETATM   12  C   UNL     1     -11.675  12.535  69.845  1.00  0.00    -0.255 C  
HETATM   13  C   UNL     1     -12.725  10.852  71.339  1.00  0.00    -0.434 C  
HETATM   14  C   UNL     1     -12.434  12.242  70.912  1.00  0.00    -0.371 C  
HETATM   15  C   UNL     1     -13.026  13.356  71.661  1.00  0.00    -0.355 C  
HETATM   16  O   UNL     1     -13.787  13.207  72.608  1.00  0.00    -0.691 OA 
HETATM   17  N   UNL     1     -12.687  14.610  71.231  1.00  0.00    -0.310 N  
HETATM   18  F   UNL     1     -13.599  10.712  72.363  1.00  0.00    -0.462 F  
HETATM   19  F   UNL     1     -13.235  10.124  70.307  1.00  0.00    -0.304 F  
HETATM   20  F   UNL     1     -11.586  10.211  71.719  1.00  0.00    -0.394 F  
HETATM   21  C   UNL     1     -11.964  14.917  70.110  1.00  0.00    -0.317 C  
HETATM   22  H   UNL     1     -13.004  15.394  71.802  1.00  0.00     0.000 HD 
HETATM   23  O   UNL     1     -11.826  16.089  69.763  1.00  0.00    -0.312 OA 
ENDBRANCH   6  11
ENDBRANCH   3   4
TORSDOF 2
ENDMDL
MODEL       65
REMARK 921   NORMALIZED FREE ENERGY PREDICTED BY IDOCK:   -5.19 KCAL/MOL
REMARK 922        TOTAL FREE ENERGY PREDICTED BY IDOCK:   -6.23 KCAL/MOL
REMARK 923 INTER-LIGAND FREE ENERGY PREDICTED BY IDOCK:   -6.58 KCAL/MOL
REMARK 924 INTRA-LIGAND FREE ENERGY PREDICTED BY IDOCK:    0.35 KCAL/MOL
REMARK 927      BINDING AFFINITY PREDICTED BY RF-SCORE:    0.00 PKD
ROOT
HETATM    1  O5* UNL     1     -13.838  10.176  72.453  1.00  0.00    -0.519 OA 
HETATM    2  H5* UNL     1     -14.242   9.317  72.482  1.00  0.00     0.000 HD 
HETATM    3  C5* UNL     1     -12.941  10.296  71.349  1.00  0.00    -0.440 C  
ENDROOT
BRANCH   3   4
HETATM    4  C4* UNL     1     -12.291  11.677  71.303  1.00  0.00    -0.181 C  
HETATM    5  O4* UNL     1     -11.710  11.938  70.013  1.00  0.00    -0.317 OA 
HETATM    6  C1* UNL     1     -11.576  13.365  69.935  1.00  0.00    -0.200 C  
HETATM    7  C2* UNL     1     -12.804  13.937  70.640  1.00  0.00    -0.291 C  
HETATM    8  H3* UNL     1     -13.813  13.939  73.087  1.00  0.00     0.000 HD 
HETATM    9  O3* UNL     1     -13.207  13.226  72.927  1.00  0.00    -0.427 OA 
HETATM   10  C3* UNL     1     -13.266  12.824  71.561  1.00  0.00    -0.239 C  
BRANCH   6  11
HETATM   11  N   UNL     1     -11.399  13.821  68.557  1.00  0.00    -0.266 N  
HETATM   12  C   UNL     1     -10.941  15.093  68.261  1.00  0.00    -0.276 C  
HETATM   13  C   UNL     1     -10.440  16.956  66.696  1.00  0.00    -0.257 C  
HETATM   14  C   UNL     1     -10.890  15.578  67.011  1.00  0.00    -0.314 C  
HETATM   15  C   UNL     1     -11.336  14.708  65.917  1.00  0.00    -0.338 C  
HETATM   16  O   UNL     1     -11.398  15.066  64.748  1.00  0.00    -0.402 OA 
HETATM   17  N   UNL     1     -11.706  13.440  66.277  1.00  0.00    -0.349 N  
HETATM   18  F   UNL     1     -10.553  17.342  65.404  1.00  0.00    -0.348 F  
HETATM   19  F   UNL     1     -11.136  17.872  67.425  1.00  0.00    -0.318 F  
HETATM   20  F   UNL     1      -9.132  17.129  67.034  1.00  0.00    -0.213 F  
HETATM   21  C   UNL     1     -11.817  12.958  67.553  1.00  0.00    -0.351 C  
HETATM   22  H   UNL     1     -11.919  12.790  65.520  1.00  0.00     0.000 HD 
HETATM   23  O   UNL     1     -12.275  11.834  67.752  1.00  0.00    -0.536 OA 
ENDBRANCH   6  11
ENDBRANCH   3   4
TORSDOF 2
ENDMDL
MODEL       66
REMARK 921   NORMALIZED FREE ENERGY PREDICTED BY IDOCK:   -5.18 KCAL/MOL
REMARK 922        TOTAL FREE ENERGY PREDICTED BY IDOCK:   -6.22 KCAL/MOL
REMARK 923 INTER-LIGAND FREE ENERGY PREDICTED BY IDOCK:   -5.88 KCAL/MOL
REMARK 924 INTRA-LIGAND FREE ENERGY PREDICTED BY IDOCK:   -0.34 KCAL/MOL
REMARK 927      BINDING AFFINITY PREDICTED BY RF-SCORE:    0.00 PKD
ROOT
HETATM    1  O5* UNL     1     -10.476  10.485  62.350  1.00  0.00    -0.638 OA 
HETATM    2  H5* UNL     1      -9.946  10.078  61.676  1.00  0.00     0.000 HD 
HETATM    3  C5* UNL     1      -9.672  11.203  63.286  1.00  0.00    -0.371 C  
ENDROOT
BRANCH   3   4
HETATM    4  C4* UNL     1     -10.526  11.858  64.370  1.00  0.00    -0.311 C  
HETATM    5  O4* UNL     1      -9.727  12.231  65.508  1.00  0.00    -0.234 OA 
HETATM    6  C1* UNL     1     -10.497  13.223  66.205  1.00  0.00    -0.287 C  
HETATM    7  C2* UNL     1     -11.188  14.049  65.124  1.00  0.00    -0.329 C  
HETATM    8  H3* UNL     1     -12.998  13.651  63.235  1.00  0.00     0.000 HD 
HETATM    9  O3* UNL     1     -12.564  12.855  63.518  1.00  0.00    -0.711 OA 
HETATM   10  C3* UNL     1     -11.224  13.137  63.913  1.00  0.00    -0.336 C  
BRANCH   6  11
HETATM   11  N   UNL     1      -9.672  13.999  67.130  1.00  0.00    -0.236 N  
HETATM   12  C   UNL     1      -9.266  15.290  66.840  1.00  0.00    -0.234 C  
HETATM   13  C   UNL     1      -7.937  17.343  67.277  1.00  0.00    -0.200 C  
HETATM   14  C   UNL     1      -8.407  15.976  67.610  1.00  0.00    -0.164 C  
HETATM   15  C   UNL     1      -7.889  15.320  68.815  1.00  0.00    -0.154 C  
HETATM   16  O   UNL     1      -7.051  15.821  69.554  1.00  0.00    -0.195 OA 
HETATM   17  N   UNL     1      -8.391  14.073  69.077  1.00  0.00    -0.347 N  
HETATM   18  F   UNL     1      -6.984  17.861  68.086  1.00  0.00    -0.196 F  
HETATM   19  F   UNL     1      -7.425  17.386  66.016  1.00  0.00    -0.295 F  
HETATM   20  F   UNL     1      -8.971  18.228  67.288  1.00  0.00    -0.249 F  
HETATM   21  C   UNL     1      -9.219  13.344  68.268  1.00  0.00    -0.198 C  
HETATM   22  H   UNL     1      -8.121  13.646  69.964  1.00  0.00     0.000 HD 
HETATM   23  O   UNL     1      -9.507  12.184  68.559  1.00  0.00    -0.193 OA 
ENDBRANCH   6  11
ENDBRANCH   3   4
TORSDOF 2
ENDMDL
MODEL       67
REMARK 921   NORMALIZED FREE ENERGY PREDICTED BY IDOCK:   -5.17 KCAL/MOL
REMARK 922        TOTAL FREE ENERGY PREDICTED BY IDOCK:   -6.21 KCAL/MOL
REMARK 923 INTER-LIGAND FREE ENERGY PREDICTED BY IDOCK:   -5.81 KCAL/MOL
REMARK 924 INTRA-LIGAND FREE ENERGY PREDICTED BY IDOCK:   -0.40 KCAL/MOL
REMARK 927      BINDING AFFINITY PREDICTED BY RF-SCORE:    0.00 PKD
ROOT
HETATM    1  O5* UNL     1     -11.421   6.665  67.602  1.00  0.00    -0.687 OA 
HETATM    2  H5* UNL     1     -11.798   6.276  68.381  1.00  0.00     0.000 HD 
HETATM    3  C5* UNL     1     -10.240   7.407  67.907  1.00  0.00    -0.194 C  
ENDROOT
BRANCH   3   4
HETATM    4  C4* UNL     1      -9.632   8.033  66.653  1.00  0.00    -0.230 C  
HETATM    5  O4* UNL     1     -10.359   9.208  66.252  1.00  0.00    -0.244 OA 
HETATM    6  C1* UNL     1      -9.458   9.946  65.412  1.00  0.00    -0.257 C  
HETATM    7  C2* UNL     1      -8.071   9.757  66.022  1.00  0.00    -0.114 C  
HETATM    8  H3* UNL     1      -6.393   7.754  66.446  1.00  0.00     0.000 HD 
HETATM    9  O3* UNL     1      -7.295   7.477  66.337  1.00  0.00    -0.079 OA 
HETATM   10  C3* UNL     1      -8.182   8.477  66.829  1.00  0.00    -0.105 C  
BRANCH   6  11
HETATM   11  N   UNL     1      -9.871  11.340  65.263  1.00  0.00    -0.235 N  
HETATM   12  C   UNL     1     -10.293  12.097  66.343  1.00  0.00    -0.218 C  
HETATM   13  C   UNL     1     -11.289  14.129  67.367  1.00  0.00    -0.327 C  
HETATM   14  C   UNL     1     -10.797  13.334  66.215  1.00  0.00    -0.293 C  
HETATM   15  C   UNL     1     -10.892  13.902  64.866  1.00  0.00    -0.405 C  
HETATM   16  O   UNL     1     -11.396  14.991  64.623  1.00  0.00    -0.384 OA 
HETATM   17  N   UNL     1     -10.389  13.126  63.856  1.00  0.00    -0.571 N  
HETATM   18  F   UNL     1     -11.875  15.312  67.070  1.00  0.00    -0.271 F  
HETATM   19  F   UNL     1     -12.205  13.424  68.086  1.00  0.00    -0.368 F  
HETATM   20  F   UNL     1     -10.275  14.411  68.231  1.00  0.00    -0.218 F  
HETATM   21  C   UNL     1      -9.929  11.842  63.970  1.00  0.00    -0.293 C  
HETATM   22  H   UNL     1     -10.352  13.548  62.927  1.00  0.00     0.000 HD 
HETATM   23  O   UNL     1      -9.613  11.207  62.965  1.00  0.00    -0.316 OA 
ENDBRANCH   6  11
ENDBRANCH   3   4
TORSDOF 2
ENDMDL
MODEL       68
REMARK 921   NORMALIZED FREE ENERGY PREDICTED BY IDOCK:   -5.17 KCAL/MOL
REMARK 922        TOTAL FREE ENERGY PREDICTED BY IDOCK:   -6.20 KCAL/MOL
REMARK 923 INTER-LIGAND FREE ENERGY PREDICTED BY IDOCK:   -6.31 KCAL/MOL
REMARK 924 INTRA-LIGAND FREE ENERGY PREDICTED BY IDOCK:    0.10 KCAL/MOL
REMARK 927      BINDING AFFINITY PREDICTED BY RF-SCORE:    0.00 PKD
ROOT
HETATM    1  O5* UNL     1     -12.322  14.192  63.126  1.00  0.00    -1.125 OA 
HETATM    2  H5* UNL     1     -12.737  14.161  62.272  1.00  0.00     0.000 HD 
HETATM    3  C5* UNL     1     -12.535  12.984  63.855  1.00  0.00    -0.296 C  
ENDROOT
BRANCH   3   4
HETATM    4  C4* UNL     1     -11.866  13.034  65.228  1.00  0.00    -0.376 C  
HETATM    5  O4* UNL     1     -12.029  11.790  65.933  1.00  0.00    -0.405 OA 
HETATM    6  C1* UNL     1     -11.001  11.783  66.936  1.00  0.00    -0.285 C  
HETATM    7  C2* UNL     1      -9.786  12.442  66.291  1.00  0.00    -0.253 C  
HETATM    8  H3* UNL     1      -9.149  14.828  65.336  1.00  0.00     0.000 HD 
HETATM    9  O3* UNL     1     -10.084  14.670  65.372  1.00  0.00    -0.349 OA 
HETATM   10  C3* UNL     1     -10.362  13.287  65.171  1.00  0.00    -0.323 C  
BRANCH   6  11
HETATM   11  N   UNL     1     -10.759  10.437  67.456  1.00  0.00    -0.266 N  
HETATM   12  C   UNL     1     -10.970  10.119  68.786  1.00  0.00    -0.223 C  
HETATM   13  C   UNL     1     -10.821   8.603  70.749  1.00  0.00    -0.230 C  
HETATM   14  C   UNL     1     -10.635   8.931  69.314  1.00  0.00    -0.219 C  
HETATM   15  C   UNL     1     -10.028   7.931  68.429  1.00  0.00    -0.180 C  
HETATM   16  O   UNL     1      -9.622   6.842  68.814  1.00  0.00    -0.135 OA 
HETATM   17  N   UNL     1      -9.918   8.290  67.112  1.00  0.00    -0.213 N  
HETATM   18  F   UNL     1     -10.331   7.410  71.158  1.00  0.00    -0.200 F  
HETATM   19  F   UNL     1     -10.234   9.543  71.541  1.00  0.00    -0.375 F  
HETATM   20  F   UNL     1     -12.141   8.610  71.082  1.00  0.00    -0.296 F  
HETATM   21  C   UNL     1     -10.201   9.518  66.578  1.00  0.00    -0.237 C  
HETATM   22  H   UNL     1      -9.594   7.570  66.465  1.00  0.00     0.000 HD 
HETATM   23  O   UNL     1      -9.947   9.752  65.398  1.00  0.00    -0.320 OA 
ENDBRANCH   6  11
ENDBRANCH   3   4
TORSDOF 2
ENDMDL
MODEL       69
REMARK 921   NORMALIZED FREE ENERGY PREDICTED BY IDOCK:   -5.15 KCAL/MOL
REMARK 922        TOTAL FREE ENERGY PREDICTED BY IDOCK:   -6.18 KCAL/MOL
REMARK 923 INTER-LIGAND FREE ENERGY PREDICTED BY IDOCK:   -6.02 KCAL/MOL
REMARK 924 INTRA-LIGAND FREE ENERGY PREDICTED BY IDOCK:   -0.16 KCAL/MOL
REMARK 927      BINDING AFFINITY PREDICTED BY RF-SCORE:    0.00 PKD
ROOT
HETATM    1  O5* UNL     1     -14.037   8.734  73.031  1.00  0.00    -1.035 OA 
HETATM    2  H5* UNL     1     -14.949   8.855  73.266  1.00  0.00     0.000 HD 
HETATM    3  C5* UNL     1     -13.904   8.096  71.761  1.00  0.00    -0.393 C  
ENDROOT
BRANCH   3   4
HETATM    4  C4* UNL     1     -12.436   7.903  71.383  1.00  0.00    -0.309 C  
HETATM    5  O4* UNL     1     -12.029   8.845  70.375  1.00  0.00    -0.079 OA 
HETATM    6  C1* UNL     1     -10.596   8.894  70.455  1.00  0.00    -0.217 C  
HETATM    7  C2* UNL     1     -10.258   8.770  71.938  1.00  0.00    -0.415 C  
HETATM    8  H3* UNL     1     -10.526   6.955  73.846  1.00  0.00     0.000 HD 
HETATM    9  O3* UNL     1     -11.127   6.836  73.121  1.00  0.00    -0.256 OA 
HETATM   10  C3* UNL     1     -11.470   8.095  72.549  1.00  0.00    -0.404 C  
BRANCH   6  11
HETATM   11  N   UNL     1     -10.056  10.087  69.805  1.00  0.00    -0.239 N  
HETATM   12  C   UNL     1     -10.878  11.064  69.270  1.00  0.00    -0.238 C  
HETATM   13  C   UNL     1     -11.294  13.126  67.949  1.00  0.00    -0.286 C  
HETATM   14  C   UNL     1     -10.411  12.102  68.559  1.00  0.00    -0.248 C  
HETATM   15  C   UNL     1      -8.962  12.200  68.354  1.00  0.00    -0.146 C  
HETATM   16  O   UNL     1      -8.431  13.063  67.669  1.00  0.00    -0.161 OA 
HETATM   17  N   UNL     1      -8.207  11.240  68.974  1.00  0.00    -0.339 N  
HETATM   18  F   UNL     1     -10.689  14.048  67.165  1.00  0.00    -0.273 F  
HETATM   19  F   UNL     1     -12.250  12.542  67.174  1.00  0.00    -0.402 F  
HETATM   20  F   UNL     1     -11.967  13.821  68.907  1.00  0.00    -0.331 F  
HETATM   21  C   UNL     1      -8.677  10.147  69.649  1.00  0.00    -0.158 C  
HETATM   22  H   UNL     1      -7.194  11.352  68.929  1.00  0.00     0.000 HD 
HETATM   23  O   UNL     1      -7.897   9.290  70.061  1.00  0.00    -0.087 OA 
ENDBRANCH   6  11
ENDBRANCH   3   4
TORSDOF 2
ENDMDL
MODEL       70
REMARK 921   NORMALIZED FREE ENERGY PREDICTED BY IDOCK:   -5.12 KCAL/MOL
REMARK 922        TOTAL FREE ENERGY PREDICTED BY IDOCK:   -6.15 KCAL/MOL
REMARK 923 INTER-LIGAND FREE ENERGY PREDICTED BY IDOCK:   -5.71 KCAL/MOL
REMARK 924 INTRA-LIGAND FREE ENERGY PREDICTED BY IDOCK:   -0.44 KCAL/MOL
REMARK 927      BINDING AFFINITY PREDICTED BY RF-SCORE:    0.00 PKD
ROOT
HETATM    1  O5* UNL     1     -12.362  16.335  73.689  1.00  0.00    -0.497 OA 
HETATM    2  H5* UNL     1     -11.888  16.917  74.271  1.00  0.00     0.000 HD 
HETATM    3  C5* UNL     1     -11.817  16.355  72.370  1.00  0.00    -0.458 C  
ENDROOT
BRANCH   3   4
HETATM    4  C4* UNL     1     -12.580  15.418  71.435  1.00  0.00    -0.405 C  
HETATM    5  O4* UNL     1     -11.810  15.118  70.257  1.00  0.00    -0.267 OA 
HETATM    6  C1* UNL     1     -12.384  13.914  69.724  1.00  0.00    -0.275 C  
HETATM    7  C2* UNL     1     -12.777  13.070  70.933  1.00  0.00    -0.299 C  
HETATM    8  H3* UNL     1     -14.475  13.248  72.957  1.00  0.00     0.000 HD 
HETATM    9  O3* UNL     1     -14.259  14.087  72.566  1.00  0.00    -0.637 OA 
HETATM   10  C3* UNL     1     -12.926  14.070  72.062  1.00  0.00    -0.363 C  
BRANCH   6  11
HETATM   11  N   UNL     1     -11.479  13.249  68.787  1.00  0.00    -0.283 N  
HETATM   12  C   UNL     1     -10.805  12.087  69.121  1.00  0.00    -0.125 C  
HETATM   13  C   UNL     1      -9.123  10.307  68.706  1.00  0.00    -0.159 C  
HETATM   14  C   UNL     1      -9.876  11.529  68.330  1.00  0.00    -0.204 C  
HETATM   15  C   UNL     1      -9.574  12.185  67.054  1.00  0.00    -0.205 C  
HETATM   16  O   UNL     1      -8.700  11.805  66.286  1.00  0.00    -0.181 OA 
HETATM   17  N   UNL     1     -10.330  13.288  66.758  1.00  0.00    -0.255 N  
HETATM   18  F   UNL     1      -8.136   9.928  67.861  1.00  0.00    -0.105 F  
HETATM   19  F   UNL     1      -8.536  10.455  69.926  1.00  0.00    -0.175 F  
HETATM   20  F   UNL     1      -9.958   9.239  68.823  1.00  0.00    -0.163 F  
HETATM   21  C   UNL     1     -11.237  13.897  67.583  1.00  0.00    -0.295 C  
HETATM   22  H   UNL     1     -10.206  13.695  65.830  1.00  0.00     0.000 HD 
HETATM   23  O   UNL     1     -11.767  14.954  67.246  1.00  0.00    -0.362 OA 
ENDBRANCH   6  11
ENDBRANCH   3   4
TORSDOF 2
ENDMDL
MODEL       71
REMARK 921   NORMALIZED FREE ENERGY PREDICTED BY IDOCK:   -5.10 KCAL/MOL
REMARK 922        TOTAL FREE ENERGY PREDICTED BY IDOCK:   -6.13 KCAL/MOL
REMARK 923 INTER-LIGAND FREE ENERGY PREDICTED BY IDOCK:   -5.71 KCAL/MOL
REMARK 924 INTRA-LIGAND FREE ENERGY PREDICTED BY IDOCK:   -0.42 KCAL/MOL
REMARK 927      BINDING AFFINITY PREDICTED BY RF-SCORE:    0.00 PKD
ROOT
HETATM    1  O5* UNL     1     -13.299   7.937  70.932  1.00  0.00    -0.534 OA 
HETATM    2  H5* UNL     1     -14.166   7.681  71.224  1.00  0.00     0.000 HD 
HETATM    3  C5* UNL     1     -12.301   7.028  71.394  1.00  0.00    -0.377 C  
ENDROOT
BRANCH   3   4
HETATM    4  C4* UNL     1     -10.907   7.441  70.925  1.00  0.00    -0.240 C  
HETATM    5  O4* UNL     1     -10.886   7.691  69.508  1.00  0.00    -0.234 OA 
HETATM    6  C1* UNL     1      -9.722   8.501  69.281  1.00  0.00    -0.173 C  
HETATM    7  C2* UNL     1      -9.622   9.431  70.487  1.00  0.00    -0.330 C  
HETATM    8  H3* UNL     1      -9.224   9.197  73.093  1.00  0.00     0.000 HD 
HETATM    9  O3* UNL     1      -9.545   8.402  72.685  1.00  0.00    -0.277 OA 
HETATM   10  C3* UNL     1     -10.390   8.718  71.582  1.00  0.00    -0.321 C  
BRANCH   6  11
HETATM   11  N   UNL     1      -9.780   9.184  67.989  1.00  0.00    -0.151 N  
HETATM   12  C   UNL     1     -10.256  10.478  67.867  1.00  0.00    -0.183 C  
HETATM   13  C   UNL     1     -10.988  12.451  66.547  1.00  0.00    -0.272 C  
HETATM   14  C   UNL     1     -10.437  11.080  66.681  1.00  0.00    -0.307 C  
HETATM   15  C   UNL     1     -10.105  10.325  65.468  1.00  0.00    -0.281 C  
HETATM   16  O   UNL     1     -10.293  10.746  64.334  1.00  0.00    -0.353 OA 
HETATM   17  N   UNL     1      -9.571   9.080  65.669  1.00  0.00    -0.437 N  
HETATM   18  F   UNL     1     -11.223  12.880  65.285  1.00  0.00    -0.299 F  
HETATM   19  F   UNL     1     -12.172  12.565  67.210  1.00  0.00    -0.395 F  
HETATM   20  F   UNL     1     -10.155  13.366  67.114  1.00  0.00    -0.230 F  
HETATM   21  C   UNL     1      -9.438   8.437  66.870  1.00  0.00    -0.185 C  
HETATM   22  H   UNL     1      -9.238   8.584  64.842  1.00  0.00     0.000 HD 
HETATM   23  O   UNL     1      -9.052   7.270  66.907  1.00  0.00    -0.130 OA 
ENDBRANCH   6  11
ENDBRANCH   3   4
TORSDOF 2
ENDMDL
MODEL       72
REMARK 921   NORMALIZED FREE ENERGY PREDICTED BY IDOCK:   -5.10 KCAL/MOL
REMARK 922        TOTAL FREE ENERGY PREDICTED BY IDOCK:   -6.12 KCAL/MOL
REMARK 923 INTER-LIGAND FREE ENERGY PREDICTED BY IDOCK:   -6.31 KCAL/MOL
REMARK 924 INTRA-LIGAND FREE ENERGY PREDICTED BY IDOCK:    0.19 KCAL/MOL
REMARK 927      BINDING AFFINITY PREDICTED BY RF-SCORE:    0.00 PKD
ROOT
HETATM    1  O5* UNL     1     -11.340  16.547  64.040  1.00  0.00    -1.475 OA 
HETATM    2  H5* UNL     1     -11.138  17.474  64.004  1.00  0.00     0.000 HD 
HETATM    3  C5* UNL     1     -10.553  15.879  65.026  1.00  0.00    -0.346 C  
ENDROOT
BRANCH   3   4
HETATM    4  C4* UNL     1     -10.878  14.387  65.084  1.00  0.00    -0.386 C  
HETATM    5  O4* UNL     1      -9.791  13.638  65.657  1.00  0.00    -0.256 OA 
HETATM    6  C1* UNL     1     -10.370  12.398  66.092  1.00  0.00    -0.247 C  
HETATM    7  C2* UNL     1     -11.761  12.748  66.614  1.00  0.00    -0.459 C  
HETATM    8  H3* UNL     1     -14.020  13.715  65.628  1.00  0.00     0.000 HD 
HETATM    9  O3* UNL     1     -13.256  13.920  65.101  1.00  0.00    -0.768 OA 
HETATM   10  C3* UNL     1     -12.105  14.057  65.930  1.00  0.00    -0.428 C  
BRANCH   6  11
HETATM   11  N   UNL     1      -9.515  11.708  67.056  1.00  0.00    -0.180 N  
HETATM   12  C   UNL     1      -9.274  10.347  66.977  1.00  0.00    -0.147 C  
HETATM   13  C   UNL     1      -8.378   8.203  67.855  1.00  0.00    -0.129 C  
HETATM   14  C   UNL     1      -8.599   9.668  67.918  1.00  0.00    -0.122 C  
HETATM   15  C   UNL     1      -8.091  10.416  69.073  1.00  0.00    -0.138 C  
HETATM   16  O   UNL     1      -7.522   9.893  70.023  1.00  0.00    -0.134 OA 
HETATM   17  N   UNL     1      -8.303  11.769  69.047  1.00  0.00    -0.368 N  
HETATM   18  F   UNL     1      -7.782   7.642  68.933  1.00  0.00    -0.104 F  
HETATM   19  F   UNL     1      -9.557   7.541  67.691  1.00  0.00    -0.139 F  
HETATM   20  F   UNL     1      -7.614   7.872  66.779  1.00  0.00    -0.089 F  
HETATM   21  C   UNL     1      -9.040  12.458  68.123  1.00  0.00    -0.200 C  
HETATM   22  H   UNL     1      -7.867  12.316  69.790  1.00  0.00     0.000 HD 
HETATM   23  O   UNL     1      -9.256  13.659  68.275  1.00  0.00    -0.196 OA 
ENDBRANCH   6  11
ENDBRANCH   3   4
TORSDOF 2
ENDMDL
MODEL       73
REMARK 921   NORMALIZED FREE ENERGY PREDICTED BY IDOCK:   -5.09 KCAL/MOL
REMARK 922        TOTAL FREE ENERGY PREDICTED BY IDOCK:   -6.12 KCAL/MOL
REMARK 923 INTER-LIGAND FREE ENERGY PREDICTED BY IDOCK:   -6.44 KCAL/MOL
REMARK 924 INTRA-LIGAND FREE ENERGY PREDICTED BY IDOCK:    0.32 KCAL/MOL
REMARK 927      BINDING AFFINITY PREDICTED BY RF-SCORE:    0.00 PKD
ROOT
HETATM    1  O5* UNL     1     -13.527  13.949  65.335  1.00  0.00    -0.672 OA 
HETATM    2  H5* UNL     1     -14.403  13.621  65.497  1.00  0.00     0.000 HD 
HETATM    3  C5* UNL     1     -12.535  12.969  65.640  1.00  0.00    -0.390 C  
ENDROOT
BRANCH   3   4
HETATM    4  C4* UNL     1     -11.126  13.497  65.378  1.00  0.00    -0.293 C  
HETATM    5  O4* UNL     1     -11.106  14.936  65.344  1.00  0.00    -0.333 OA 
HETATM    6  C1* UNL     1      -9.737  15.304  65.574  1.00  0.00    -0.278 C  
HETATM    7  C2* UNL     1      -9.201  14.296  66.587  1.00  0.00    -0.276 C  
HETATM    8  H3* UNL     1      -8.749  11.689  66.682  1.00  0.00     0.000 HD 
HETATM    9  O3* UNL     1      -9.381  11.942  66.020  1.00  0.00    -0.229 OA 
HETATM   10  C3* UNL     1     -10.110  13.091  66.443  1.00  0.00    -0.279 C  
BRANCH   6  11
HETATM   11  N   UNL     1      -9.612  16.702  65.983  1.00  0.00    -0.287 N  
HETATM   12  C   UNL     1      -8.692  17.106  66.934  1.00  0.00    -0.232 C  
HETATM   13  C   UNL     1      -7.685  18.780  68.469  1.00  0.00    -0.327 C  
HETATM   14  C   UNL     1      -8.643  18.357  67.418  1.00  0.00    -0.261 C  
HETATM   15  C   UNL     1      -9.609  19.333  66.901  1.00  0.00    -0.331 C  
HETATM   16  O   UNL     1      -9.702  20.481  67.316  1.00  0.00    -0.443 OA 
HETATM   17  N   UNL     1     -10.439  18.881  65.910  1.00  0.00    -0.458 N  
HETATM   18  F   UNL     1      -7.832  20.041  68.939  1.00  0.00    -0.301 F  
HETATM   19  F   UNL     1      -7.764  17.962  69.555  1.00  0.00    -0.046 F  
HETATM   20  F   UNL     1      -6.402  18.684  68.024  1.00  0.00    -0.194 F  
HETATM   21  C   UNL     1     -10.535  17.595  65.454  1.00  0.00     0.096 C  
HETATM   22  H   UNL     1     -11.045  19.573  65.467  1.00  0.00     0.000 HD 
HETATM   23  O   UNL     1     -11.406  17.290  64.641  1.00  0.00    -0.905 OA 
ENDBRANCH   6  11
ENDBRANCH   3   4
TORSDOF 2
ENDMDL
MODEL       74
REMARK 921   NORMALIZED FREE ENERGY PREDICTED BY IDOCK:   -5.09 KCAL/MOL
REMARK 922        TOTAL FREE ENERGY PREDICTED BY IDOCK:   -6.11 KCAL/MOL
REMARK 923 INTER-LIGAND FREE ENERGY PREDICTED BY IDOCK:   -6.02 KCAL/MOL
REMARK 924 INTRA-LIGAND FREE ENERGY PREDICTED BY IDOCK:   -0.09 KCAL/MOL
REMARK 927      BINDING AFFINITY PREDICTED BY RF-SCORE:    0.00 PKD
ROOT
HETATM    1  O5* UNL     1      -8.901   6.950  72.157  1.00  0.00    -0.131 OA 
HETATM    2  H5* UNL     1      -8.151   6.794  72.719  1.00  0.00     0.000 HD 
HETATM    3  C5* UNL     1      -9.120   8.346  71.953  1.00  0.00    -0.221 C  
ENDROOT
BRANCH   3   4
HETATM    4  C4* UNL     1     -10.326   8.597  71.050  1.00  0.00    -0.217 C  
HETATM    5  O4* UNL     1     -10.996   9.821  71.403  1.00  0.00    -0.342 OA 
HETATM    6  C1* UNL     1     -11.764  10.183  70.245  1.00  0.00    -0.282 C  
HETATM    7  C2* UNL     1     -10.910   9.793  69.041  1.00  0.00    -0.223 C  
HETATM    8  H3* UNL     1      -9.947   7.566  67.983  1.00  0.00     0.000 HD 
HETATM    9  O3* UNL     1     -10.168   7.485  68.903  1.00  0.00    -0.197 OA 
HETATM   10  C3* UNL     1      -9.970   8.728  69.571  1.00  0.00    -0.195 C  
BRANCH   6  11
HETATM   11  N   UNL     1     -12.164  11.589  70.276  1.00  0.00    -0.339 N  
HETATM   12  C   UNL     1     -11.778  12.482  69.291  1.00  0.00    -0.321 C  
HETATM   13  C   UNL     1     -11.572  14.762  68.328  1.00  0.00    -0.323 C  
HETATM   14  C   UNL     1     -12.023  13.799  69.362  1.00  0.00    -0.397 C  
HETATM   15  C   UNL     1     -12.742  14.302  70.538  1.00  0.00    -0.328 C  
HETATM   16  O   UNL     1     -12.962  15.489  70.741  1.00  0.00    -0.475 OA 
HETATM   17  N   UNL     1     -13.157  13.353  71.433  1.00  0.00    -0.323 N  
HETATM   18  F   UNL     1     -11.792  16.071  68.593  1.00  0.00    -0.378 F  
HETATM   19  F   UNL     1     -10.234  14.643  68.106  1.00  0.00    -0.218 F  
HETATM   20  F   UNL     1     -12.171  14.508  67.133  1.00  0.00    -0.421 F  
HETATM   21  C   UNL     1     -12.860  12.018  71.399  1.00  0.00    -0.288 C  
HETATM   22  H   UNL     1     -13.747  13.674  72.202  1.00  0.00     0.000 HD 
HETATM   23  O   UNL     1     -13.193  11.286  72.329  1.00  0.00    -0.402 OA 
ENDBRANCH   6  11
ENDBRANCH   3   4
TORSDOF 2
ENDMDL
MODEL       75
REMARK 921   NORMALIZED FREE ENERGY PREDICTED BY IDOCK:   -5.07 KCAL/MOL
REMARK 922        TOTAL FREE ENERGY PREDICTED BY IDOCK:   -6.09 KCAL/MOL
REMARK 923 INTER-LIGAND FREE ENERGY PREDICTED BY IDOCK:   -6.36 KCAL/MOL
REMARK 924 INTRA-LIGAND FREE ENERGY PREDICTED BY IDOCK:    0.26 KCAL/MOL
REMARK 927      BINDING AFFINITY PREDICTED BY RF-SCORE:    0.00 PKD
ROOT
HETATM    1  O5* UNL     1     -12.047  12.018  66.355  1.00  0.00    -0.610 OA 
HETATM    2  H5* UNL     1     -12.681  11.348  66.579  1.00  0.00     0.000 HD 
HETATM    3  C5* UNL     1     -10.824  11.842  67.069  1.00  0.00    -0.259 C  
ENDROOT
BRANCH   3   4
HETATM    4  C4* UNL     1      -9.805  12.921  66.708  1.00  0.00    -0.241 C  
HETATM    5  O4* UNL     1     -10.381  14.236  66.801  1.00  0.00    -0.268 OA 
HETATM    6  C1* UNL     1      -9.267  15.134  66.917  1.00  0.00    -0.238 C  
HETATM    7  C2* UNL     1      -8.233  14.406  67.772  1.00  0.00    -0.173 C  
HETATM    8  H3* UNL     1      -6.744  12.225  67.581  1.00  0.00     0.000 HD 
HETATM    9  O3* UNL     1      -7.507  12.215  67.016  1.00  0.00    -0.146 OA 
HETATM   10  C3* UNL     1      -8.578  12.937  67.617  1.00  0.00    -0.182 C  
BRANCH   6  11
HETATM   11  N   UNL     1      -9.672  16.440  67.435  1.00  0.00    -0.236 N  
HETATM   12  C   UNL     1      -9.548  17.596  66.683  1.00  0.00    -0.295 C  
HETATM   13  C   UNL     1      -9.618  20.061  66.386  1.00  0.00    -0.421 C  
HETATM   14  C   UNL     1      -9.792  18.819  67.178  1.00  0.00    -0.352 C  
HETATM   15  C   UNL     1     -10.219  18.922  68.578  1.00  0.00    -0.347 C  
HETATM   16  O   UNL     1     -10.404  19.986  69.154  1.00  0.00    -0.350 OA 
HETATM   17  N   UNL     1     -10.391  17.734  69.237  1.00  0.00    -0.378 N  
HETATM   18  F   UNL     1      -9.791  21.225  67.054  1.00  0.00    -0.492 F  
HETATM   19  F   UNL     1      -8.370  20.119  65.845  1.00  0.00    -0.343 F  
HETATM   20  F   UNL     1     -10.481  20.091  65.334  1.00  0.00    -0.529 F  
HETATM   21  C   UNL     1     -10.087  16.488  68.759  1.00  0.00    -0.255 C  
HETATM   22  H   UNL     1     -10.786  17.783  70.177  1.00  0.00     0.000 HD 
HETATM   23  O   UNL     1     -10.176  15.505  69.493  1.00  0.00    -0.242 OA 
ENDBRANCH   6  11
ENDBRANCH   3   4
TORSDOF 2
ENDMDL
MODEL       76
REMARK 921   NORMALIZED FREE ENERGY PREDICTED BY IDOCK:   -5.05 KCAL/MOL
REMARK 922        TOTAL FREE ENERGY PREDICTED BY IDOCK:   -6.07 KCAL/MOL
REMARK 923 INTER-LIGAND FREE ENERGY PREDICTED BY IDOCK:   -5.65 KCAL/MOL
REMARK 924 INTRA-LIGAND FREE ENERGY PREDICTED BY IDOCK:   -0.43 KCAL/MOL
REMARK 927      BINDING AFFINITY PREDICTED BY RF-SCORE:    0.00 PKD
ROOT
HETATM    1  O5* UNL     1     -13.656   8.859  73.066  1.00  0.00    -0.914 OA 
HETATM    2  H5* UNL     1     -13.983   8.145  73.600  1.00  0.00     0.000 HD 
HETATM    3  C5* UNL     1     -12.351   8.579  72.560  1.00  0.00    -0.306 C  
ENDROOT
BRANCH   3   4
HETATM    4  C4* UNL     1     -11.826   9.728  71.701  1.00  0.00    -0.354 C  
HETATM    5  O4* UNL     1     -10.970   9.244  70.650  1.00  0.00    -0.237 OA 
HETATM    6  C1* UNL     1     -10.940  10.294  69.670  1.00  0.00    -0.270 C  
HETATM    7  C2* UNL     1     -12.344  10.890  69.655  1.00  0.00    -0.290 C  
HETATM    8  H3* UNL     1     -13.918  12.199  71.335  1.00  0.00     0.000 HD 
HETATM    9  O3* UNL     1     -13.234  11.699  71.765  1.00  0.00    -0.453 OA 
HETATM   10  C3* UNL     1     -12.924  10.531  71.010  1.00  0.00    -0.383 C  
BRANCH   6  11
HETATM   11  N   UNL     1     -10.469   9.812  68.372  1.00  0.00    -0.208 N  
HETATM   12  C   UNL     1     -10.379   8.461  68.083  1.00  0.00    -0.204 C  
HETATM   13  C   UNL     1      -9.695   6.544  66.659  1.00  0.00    -0.154 C  
HETATM   14  C   UNL     1      -9.832   7.992  66.951  1.00  0.00    -0.318 C  
HETATM   15  C   UNL     1      -9.320   8.964  65.980  1.00  0.00    -0.242 C  
HETATM   16  O   UNL     1      -8.743   8.652  64.946  1.00  0.00    -0.169 OA 
HETATM   17  N   UNL     1      -9.511  10.282  66.299  1.00  0.00    -0.170 N  
HETATM   18  F   UNL     1      -9.020   6.222  65.531  1.00  0.00    -0.159 F  
HETATM   19  F   UNL     1      -9.055   5.903  67.676  1.00  0.00    -0.112 F  
HETATM   20  F   UNL     1     -10.917   5.951  66.557  1.00  0.00    -0.343 F  
HETATM   21  C   UNL     1     -10.012  10.769  67.477  1.00  0.00    -0.174 C  
HETATM   22  H   UNL     1      -9.255  10.969  65.590  1.00  0.00     0.000 HD 
HETATM   23  O   UNL     1     -10.023  11.979  67.691  1.00  0.00    -0.186 OA 
ENDBRANCH   6  11
ENDBRANCH   3   4
TORSDOF 2
ENDMDL
MODEL       77
REMARK 921   NORMALIZED FREE ENERGY PREDICTED BY IDOCK:   -5.04 KCAL/MOL
REMARK 922        TOTAL FREE ENERGY PREDICTED BY IDOCK:   -6.06 KCAL/MOL
REMARK 923 INTER-LIGAND FREE ENERGY PREDICTED BY IDOCK:   -5.70 KCAL/MOL
REMARK 924 INTRA-LIGAND FREE ENERGY PREDICTED BY IDOCK:   -0.36 KCAL/MOL
REMARK 927      BINDING AFFINITY PREDICTED BY RF-SCORE:    0.00 PKD
ROOT
HETATM    1  O5* UNL     1     -11.871  12.541  62.988  1.00  0.00    -0.694 OA 
HETATM    2  H5* UNL     1     -11.694  12.427  62.062  1.00  0.00     0.000 HD 
HETATM    3  C5* UNL     1     -10.685  12.865  63.712  1.00  0.00    -0.284 C  
ENDROOT
BRANCH   3   4
HETATM    4  C4* UNL     1     -10.971  13.049  65.201  1.00  0.00    -0.295 C  
HETATM    5  O4* UNL     1      -9.801  13.503  65.905  1.00  0.00    -0.286 OA 
HETATM    6  C1* UNL     1     -10.290  14.081  67.125  1.00  0.00    -0.265 C  
HETATM    7  C2* UNL     1     -11.600  14.775  66.761  1.00  0.00    -0.333 C  
HETATM    8  H3* UNL     1     -13.992  14.066  65.875  1.00  0.00     0.000 HD 
HETATM    9  O3* UNL     1     -13.314  13.427  65.691  1.00  0.00    -0.374 OA 
HETATM   10  C3* UNL     1     -12.061  14.076  65.496  1.00  0.00    -0.410 C  
BRANCH   6  11
HETATM   11  N   UNL     1      -9.295  14.951  67.751  1.00  0.00    -0.192 N  
HETATM   12  C   UNL     1      -9.465  16.323  67.821  1.00  0.00    -0.221 C  
HETATM   13  C   UNL     1      -8.678  18.629  68.310  1.00  0.00    -0.323 C  
HETATM   14  C   UNL     1      -8.514  17.155  68.274  1.00  0.00    -0.236 C  
HETATM   15  C   UNL     1      -7.245  16.569  68.720  1.00  0.00    -0.197 C  
HETATM   16  O   UNL     1      -6.284  17.233  69.088  1.00  0.00    -0.199 OA 
HETATM   17  N   UNL     1      -7.176  15.202  68.691  1.00  0.00    -0.112 N  
HETATM   18  F   UNL     1      -7.591  19.343  68.683  1.00  0.00    -0.339 F  
HETATM   19  F   UNL     1      -9.039  19.105  67.086  1.00  0.00    -0.281 F  
HETATM   20  F   UNL     1      -9.681  18.985  69.158  1.00  0.00    -0.393 F  
HETATM   21  C   UNL     1      -8.117  14.352  68.176  1.00  0.00    -0.137 C  
HETATM   22  H   UNL     1      -6.342  14.775  69.094  1.00  0.00     0.000 HD 
HETATM   23  O   UNL     1      -7.887  13.147  68.100  1.00  0.00    -0.124 OA 
ENDBRANCH   6  11
ENDBRANCH   3   4
TORSDOF 2
ENDMDL
MODEL       78
REMARK 921   NORMALIZED FREE ENERGY PREDICTED BY IDOCK:   -5.04 KCAL/MOL
REMARK 922        TOTAL FREE ENERGY PREDICTED BY IDOCK:   -6.06 KCAL/MOL
REMARK 923 INTER-LIGAND FREE ENERGY PREDICTED BY IDOCK:   -5.59 KCAL/MOL
REMARK 924 INTRA-LIGAND FREE ENERGY PREDICTED BY IDOCK:   -0.46 KCAL/MOL
REMARK 927      BINDING AFFINITY PREDICTED BY RF-SCORE:    0.00 PKD
ROOT
HETATM    1  O5* UNL     1      -8.751   8.665  62.981  1.00  0.00    -0.414 OA 
HETATM    2  H5* UNL     1      -8.553   8.279  62.136  1.00  0.00     0.000 HD 
HETATM    3  C5* UNL     1      -7.701   8.437  63.920  1.00  0.00    -0.143 C  
ENDROOT
BRANCH   3   4
HETATM    4  C4* UNL     1      -8.019   9.059  65.279  1.00  0.00    -0.114 C  
HETATM    5  O4* UNL     1      -8.102  10.492  65.190  1.00  0.00    -0.155 OA 
HETATM    6  C1* UNL     1      -8.849  10.904  66.345  1.00  0.00    -0.171 C  
HETATM    7  C2* UNL     1      -9.911   9.828  66.558  1.00  0.00    -0.286 C  
HETATM    8  H3* UNL     1      -9.972   7.251  67.159  1.00  0.00     0.000 HD 
HETATM    9  O3* UNL     1      -9.143   7.536  66.793  1.00  0.00    -0.134 OA 
HETATM   10  C3* UNL     1      -9.351   8.599  65.868  1.00  0.00    -0.195 C  
BRANCH   6  11
HETATM   11  N   UNL     1      -9.378  12.259  66.196  1.00  0.00    -0.212 N  
HETATM   12  C   UNL     1     -10.521  12.521  65.461  1.00  0.00    -0.279 C  
HETATM   13  C   UNL     1     -12.156  14.047  64.380  1.00  0.00    -0.458 C  
HETATM   14  C   UNL     1     -10.955  13.764  65.203  1.00  0.00    -0.337 C  
HETATM   15  C   UNL     1     -10.177  14.888  65.736  1.00  0.00    -0.336 C  
HETATM   16  O   UNL     1     -10.439  16.062  65.509  1.00  0.00    -0.371 OA 
HETATM   17  N   UNL     1      -9.102  14.552  66.514  1.00  0.00    -0.394 N  
HETATM   18  F   UNL     1     -12.403  15.350  64.110  1.00  0.00    -0.492 F  
HETATM   19  F   UNL     1     -12.075  13.421  63.173  1.00  0.00    -0.577 F  
HETATM   20  F   UNL     1     -13.279  13.560  64.976  1.00  0.00    -0.346 F  
HETATM   21  C   UNL     1      -8.619  13.290  66.732  1.00  0.00    -0.026 C  
HETATM   22  H   UNL     1      -8.612  15.318  66.977  1.00  0.00     0.000 HD 
HETATM   23  O   UNL     1      -7.571  13.128  67.355  1.00  0.00    -0.155 OA 
ENDBRANCH   6  11
ENDBRANCH   3   4
TORSDOF 2
ENDMDL
MODEL       79
REMARK 921   NORMALIZED FREE ENERGY PREDICTED BY IDOCK:   -5.03 KCAL/MOL
REMARK 922        TOTAL FREE ENERGY PREDICTED BY IDOCK:   -6.05 KCAL/MOL
REMARK 923 INTER-LIGAND FREE ENERGY PREDICTED BY IDOCK:   -5.66 KCAL/MOL
REMARK 924 INTRA-LIGAND FREE ENERGY PREDICTED BY IDOCK:   -0.40 KCAL/MOL
REMARK 927      BINDING AFFINITY PREDICTED BY RF-SCORE:    0.00 PKD
ROOT
HETATM    1  O5* UNL     1     -11.203  10.212  67.516  1.00  0.00    -0.371 OA 
HETATM    2  H5* UNL     1     -10.707   9.411  67.633  1.00  0.00     0.000 HD 
HETATM    3  C5* UNL     1     -10.476  11.170  66.747  1.00  0.00    -0.252 C  
ENDROOT
BRANCH   3   4
HETATM    4  C4* UNL     1     -11.273  12.459  66.559  1.00  0.00    -0.319 C  
HETATM    5  O4* UNL     1     -10.751  13.520  67.378  1.00  0.00    -0.259 OA 
HETATM    6  C1* UNL     1     -11.234  14.735  66.784  1.00  0.00    -0.344 C  
HETATM    7  C2* UNL     1     -11.210  14.498  65.276  1.00  0.00    -0.352 C  
HETATM    8  H3* UNL     1     -12.417  12.904  63.541  1.00  0.00     0.000 HD 
HETATM    9  O3* UNL     1     -12.428  12.574  64.431  1.00  0.00    -0.475 OA 
HETATM   10  C3* UNL     1     -11.256  12.989  65.128  1.00  0.00    -0.293 C  
BRANCH   6  11
HETATM   11  N   UNL     1     -10.470  15.899  67.228  1.00  0.00    -0.305 N  
HETATM   12  C   UNL     1      -9.311  16.301  66.588  1.00  0.00    -0.248 C  
HETATM   13  C   UNL     1      -7.259  17.688  66.389  1.00  0.00    -0.284 C  
HETATM   14  C   UNL     1      -8.524  17.285  67.050  1.00  0.00    -0.240 C  
HETATM   15  C   UNL     1      -8.928  17.964  68.287  1.00  0.00    -0.275 C  
HETATM   16  O   UNL     1      -8.256  18.828  68.836  1.00  0.00    -0.306 OA 
HETATM   17  N   UNL     1     -10.122  17.564  68.824  1.00  0.00    -0.350 N  
HETATM   18  F   UNL     1      -6.516  18.616  67.034  1.00  0.00    -0.180 F  
HETATM   19  F   UNL     1      -6.444  16.612  66.207  1.00  0.00    -0.200 F  
HETATM   20  F   UNL     1      -7.499  18.186  65.145  1.00  0.00     0.074 F  
HETATM   21  C   UNL     1     -10.899  16.523  68.393  1.00  0.00    -0.348 C  
HETATM   22  H   UNL     1     -10.468  18.095  69.623  1.00  0.00     0.000 HD 
HETATM   23  O   UNL     1     -11.893  16.186  69.033  1.00  0.00    -0.327 OA 
ENDBRANCH   6  11
ENDBRANCH   3   4
TORSDOF 2
ENDMDL
MODEL       80
REMARK 921   NORMALIZED FREE ENERGY PREDICTED BY IDOCK:   -5.03 KCAL/MOL
REMARK 922        TOTAL FREE ENERGY PREDICTED BY IDOCK:   -6.05 KCAL/MOL
REMARK 923 INTER-LIGAND FREE ENERGY PREDICTED BY IDOCK:   -5.76 KCAL/MOL
REMARK 924 INTRA-LIGAND FREE ENERGY PREDICTED BY IDOCK:   -0.28 KCAL/MOL
REMARK 927      BINDING AFFINITY PREDICTED BY RF-SCORE:    0.00 PKD
ROOT
HETATM    1  O5* UNL     1     -13.432  16.295  73.984  1.00  0.00    -0.915 OA 
HETATM    2  H5* UNL     1     -13.264  16.411  74.912  1.00  0.00     0.000 HD 
HETATM    3  C5* UNL     1     -12.241  15.951  73.276  1.00  0.00    -0.520 C  
ENDROOT
BRANCH   3   4
HETATM    4  C4* UNL     1     -12.511  15.765  71.784  1.00  0.00    -0.459 C  
HETATM    5  O4* UNL     1     -11.377  16.165  70.995  1.00  0.00    -0.387 OA 
HETATM    6  C1* UNL     1     -11.550  15.519  69.724  1.00  0.00    -0.334 C  
HETATM    7  C2* UNL     1     -12.153  14.151  70.031  1.00  0.00    -0.409 C  
HETATM    8  H3* UNL     1     -14.398  13.207  71.068  1.00  0.00     0.000 HD 
HETATM    9  O3* UNL     1     -14.214  14.105  71.314  1.00  0.00    -0.223 OA 
HETATM   10  C3* UNL     1     -12.808  14.320  71.388  1.00  0.00    -0.344 C  
BRANCH   6  11
HETATM   11  N   UNL     1     -10.303  15.477  68.961  1.00  0.00    -0.223 N  
HETATM   12  C   UNL     1      -9.074  15.708  69.556  1.00  0.00    -0.240 C  
HETATM   13  C   UNL     1      -6.621  16.092  69.490  1.00  0.00    -0.201 C  
HETATM   14  C   UNL     1      -7.931  15.801  68.859  1.00  0.00    -0.197 C  
HETATM   15  C   UNL     1      -7.999  15.639  67.403  1.00  0.00    -0.178 C  
HETATM   16  O   UNL     1      -7.034  15.769  66.660  1.00  0.00    -0.177 OA 
HETATM   17  N   UNL     1      -9.234  15.339  66.893  1.00  0.00    -0.220 N  
HETATM   18  F   UNL     1      -5.577  16.270  68.647  1.00  0.00    -0.101 F  
HETATM   19  F   UNL     1      -6.688  17.221  70.249  1.00  0.00     0.096 F  
HETATM   20  F   UNL     1      -6.259  15.093  70.342  1.00  0.00    -0.149 F  
HETATM   21  C   UNL     1     -10.413  15.302  67.588  1.00  0.00    -0.263 C  
HETATM   22  H   UNL     1      -9.281  15.121  65.898  1.00  0.00     0.000 HD 
HETATM   23  O   UNL     1     -11.477  15.137  66.994  1.00  0.00    -0.319 OA 
ENDBRANCH   6  11
ENDBRANCH   3   4
TORSDOF 2
ENDMDL
MODEL       81
REMARK 921   NORMALIZED FREE ENERGY PREDICTED BY IDOCK:   -5.02 KCAL/MOL
REMARK 922        TOTAL FREE ENERGY PREDICTED BY IDOCK:   -6.04 KCAL/MOL
REMARK 923 INTER-LIGAND FREE ENERGY PREDICTED BY IDOCK:   -6.21 KCAL/MOL
REMARK 924 INTRA-LIGAND FREE ENERGY PREDICTED BY IDOCK:    0.17 KCAL/MOL
REMARK 927      BINDING AFFINITY PREDICTED BY RF-SCORE:    0.00 PKD
ROOT
HETATM    1  O5* UNL     1      -8.873  11.801  64.934  1.00  0.00    -0.336 OA 
HETATM    2  H5* UNL     1      -8.565  11.154  64.311  1.00  0.00     0.000 HD 
HETATM    3  C5* UNL     1      -9.178  11.209  66.196  1.00  0.00    -0.198 C  
ENDROOT
BRANCH   3   4
HETATM    4  C4* UNL     1      -9.674  12.250  67.198  1.00  0.00    -0.201 C  
HETATM    5  O4* UNL     1      -9.301  13.580  66.796  1.00  0.00    -0.247 OA 
HETATM    6  C1* UNL     1     -10.192  14.456  67.504  1.00  0.00    -0.240 C  
HETATM    7  C2* UNL     1     -11.538  13.738  67.543  1.00  0.00    -0.387 C  
HETATM    8  H3* UNL     1     -12.525  11.518  68.595  1.00  0.00     0.000 HD 
HETATM    9  O3* UNL     1     -11.581  11.504  68.494  1.00  0.00    -0.263 OA 
HETATM   10  C3* UNL     1     -11.192  12.272  67.360  1.00  0.00    -0.301 C  
BRANCH   6  11
HETATM   11  N   UNL     1     -10.232  15.790  66.905  1.00  0.00    -0.274 N  
HETATM   12  C   UNL     1      -9.941  16.928  67.636  1.00  0.00    -0.271 C  
HETATM   13  C   UNL     1      -9.824  19.390  67.945  1.00  0.00    -0.361 C  
HETATM   14  C   UNL     1     -10.094  18.169  67.148  1.00  0.00    -0.358 C  
HETATM   15  C   UNL     1     -10.583  18.311  65.772  1.00  0.00    -0.186 C  
HETATM   16  O   UNL     1     -10.823  19.390  65.246  1.00  0.00    -0.477 OA 
HETATM   17  N   UNL     1     -10.778  17.142  65.086  1.00  0.00    -0.150 N  
HETATM   18  F   UNL     1     -10.133  20.569  67.356  1.00  0.00    -0.549 F  
HETATM   19  F   UNL     1     -10.512  19.364  69.120  1.00  0.00    -0.357 F  
HETATM   20  F   UNL     1      -8.508  19.467  68.287  1.00  0.00    -0.331 F  
HETATM   21  C   UNL     1     -10.683  15.875  65.595  1.00  0.00    -0.339 C  
HETATM   22  H   UNL     1     -11.018  17.224  64.097  1.00  0.00     0.000 HD 
HETATM   23  O   UNL     1     -11.000  14.907  64.907  1.00  0.00    -0.381 OA 
ENDBRANCH   6  11
ENDBRANCH   3   4
TORSDOF 2
ENDMDL
MODEL       82
REMARK 921   NORMALIZED FREE ENERGY PREDICTED BY IDOCK:   -5.01 KCAL/MOL
REMARK 922        TOTAL FREE ENERGY PREDICTED BY IDOCK:   -6.03 KCAL/MOL
REMARK 923 INTER-LIGAND FREE ENERGY PREDICTED BY IDOCK:   -5.51 KCAL/MOL
REMARK 924 INTRA-LIGAND FREE ENERGY PREDICTED BY IDOCK:   -0.52 KCAL/MOL
REMARK 927      BINDING AFFINITY PREDICTED BY RF-SCORE:    0.00 PKD
ROOT
HETATM    1  O5* UNL     1      -7.920   6.840  66.012  1.00  0.00    -0.099 OA 
HETATM    2  H5* UNL     1      -7.773   5.905  65.930  1.00  0.00     0.000 HD 
HETATM    3  C5* UNL     1      -9.274   7.128  66.358  1.00  0.00    -0.157 C  
ENDROOT
BRANCH   3   4
HETATM    4  C4* UNL     1      -9.511   8.632  66.490  1.00  0.00    -0.216 C  
HETATM    5  O4* UNL     1     -10.556   8.915  67.437  1.00  0.00    -0.277 OA 
HETATM    6  C1* UNL     1     -10.361  10.284  67.824  1.00  0.00    -0.204 C  
HETATM    7  C2* UNL     1      -8.849  10.490  67.875  1.00  0.00    -0.133 C  
HETATM    8  H3* UNL     1      -6.824  10.448  66.171  1.00  0.00     0.000 HD 
HETATM    9  O3* UNL     1      -7.585   9.966  65.869  1.00  0.00    -0.100 OA 
HETATM   10  C3* UNL     1      -8.287   9.406  66.975  1.00  0.00    -0.127 C  
BRANCH   6  11
HETATM   11  N   UNL     1     -11.061  10.602  69.067  1.00  0.00    -0.235 N  
HETATM   12  C   UNL     1     -11.408   9.623  69.982  1.00  0.00    -0.195 C  
HETATM   13  C   UNL     1     -12.568   8.814  72.024  1.00  0.00    -0.385 C  
HETATM   14  C   UNL     1     -12.159   9.870  71.066  1.00  0.00    -0.450 C  
HETATM   15  C   UNL     1     -12.620  11.246  71.285  1.00  0.00    -0.382 C  
HETATM   16  O   UNL     1     -13.364  11.574  72.200  1.00  0.00    -0.477 OA 
HETATM   17  N   UNL     1     -12.177  12.173  70.380  1.00  0.00    -0.330 N  
HETATM   18  F   UNL     1     -13.421   9.193  73.004  1.00  0.00    -0.458 F  
HETATM   19  F   UNL     1     -13.175   7.781  71.376  1.00  0.00    -0.334 F  
HETATM   20  F   UNL     1     -11.484   8.277  72.647  1.00  0.00    -0.407 F  
HETATM   21  C   UNL     1     -11.461  11.920  69.241  1.00  0.00    -0.306 C  
HETATM   22  H   UNL     1     -12.402  13.149  70.575  1.00  0.00     0.000 HD 
HETATM   23  O   UNL     1     -11.224  12.827  68.445  1.00  0.00    -0.243 OA 
ENDBRANCH   6  11
ENDBRANCH   3   4
TORSDOF 2
ENDMDL
MODEL       83
REMARK 921   NORMALIZED FREE ENERGY PREDICTED BY IDOCK:   -5.01 KCAL/MOL
REMARK 922        TOTAL FREE ENERGY PREDICTED BY IDOCK:   -6.03 KCAL/MOL
REMARK 923 INTER-LIGAND FREE ENERGY PREDICTED BY IDOCK:   -5.49 KCAL/MOL
REMARK 924 INTRA-LIGAND FREE ENERGY PREDICTED BY IDOCK:   -0.54 KCAL/MOL
REMARK 927      BINDING AFFINITY PREDICTED BY RF-SCORE:    0.00 PKD
ROOT
HETATM    1  O5* UNL     1     -12.392  12.097  63.121  1.00  0.00    -0.732 OA 
HETATM    2  H5* UNL     1     -12.417  11.242  62.709  1.00  0.00     0.000 HD 
HETATM    3  C5* UNL     1     -12.295  11.992  64.541  1.00  0.00    -0.209 C  
ENDROOT
BRANCH   3   4
HETATM    4  C4* UNL     1     -12.256  13.368  65.203  1.00  0.00    -0.434 C  
HETATM    5  O4* UNL     1     -11.358  13.380  66.327  1.00  0.00    -0.295 OA 
HETATM    6  C1* UNL     1     -11.043  14.763  66.549  1.00  0.00    -0.334 C  
HETATM    7  C2* UNL     1     -10.959  15.398  65.164  1.00  0.00    -0.430 C  
HETATM    8  H3* UNL     1     -12.597  15.864  63.138  1.00  0.00     0.000 HD 
HETATM    9  O3* UNL     1     -12.894  15.170  63.714  1.00  0.00    -0.636 OA 
HETATM   10  C3* UNL     1     -11.779  14.483  64.276  1.00  0.00    -0.295 C  
BRANCH   6  11
HETATM   11  N   UNL     1      -9.841  14.923  67.366  1.00  0.00    -0.221 N  
HETATM   12  C   UNL     1      -8.849  13.958  67.404  1.00  0.00    -0.207 C  
HETATM   13  C   UNL     1      -6.760  12.965  68.311  1.00  0.00    -0.093 C  
HETATM   14  C   UNL     1      -7.801  14.021  68.239  1.00  0.00    -0.140 C  
HETATM   15  C   UNL     1      -7.707  15.174  69.140  1.00  0.00    -0.195 C  
HETATM   16  O   UNL     1      -6.834  15.303  69.989  1.00  0.00    -0.162 OA 
HETATM   17  N   UNL     1      -8.683  16.124  68.995  1.00  0.00    -0.248 N  
HETATM   18  F   UNL     1      -5.828  13.110  69.281  1.00  0.00    -0.073 F  
HETATM   19  F   UNL     1      -7.324  11.742  68.510  1.00  0.00    -0.077 F  
HETATM   20  F   UNL     1      -6.080  12.873  67.135  1.00  0.00    -0.158 F  
HETATM   21  C   UNL     1      -9.786  16.039  68.190  1.00  0.00    -0.222 C  
HETATM   22  H   UNL     1      -8.576  16.980  69.541  1.00  0.00     0.000 HD 
HETATM   23  O   UNL     1     -10.655  16.909  68.237  1.00  0.00    -0.329 OA 
ENDBRANCH   6  11
ENDBRANCH   3   4
TORSDOF 2
ENDMDL
MODEL       84
REMARK 921   NORMALIZED FREE ENERGY PREDICTED BY IDOCK:   -4.99 KCAL/MOL
REMARK 922        TOTAL FREE ENERGY PREDICTED BY IDOCK:   -6.01 KCAL/MOL
REMARK 923 INTER-LIGAND FREE ENERGY PREDICTED BY IDOCK:   -5.82 KCAL/MOL
REMARK 924 INTRA-LIGAND FREE ENERGY PREDICTED BY IDOCK:   -0.19 KCAL/MOL
REMARK 927      BINDING AFFINITY PREDICTED BY RF-SCORE:    0.00 PKD
ROOT
HETATM    1  O5* UNL     1     -11.792  16.254  63.583  1.00  0.00    -1.404 OA 
HETATM    2  H5* UNL     1     -11.919  17.193  63.527  1.00  0.00     0.000 HD 
HETATM    3  C5* UNL     1     -11.267  15.871  64.854  1.00  0.00    -0.337 C  
ENDROOT
BRANCH   3   4
HETATM    4  C4* UNL     1     -11.064  14.360  64.944  1.00  0.00    -0.398 C  
HETATM    5  O4* UNL     1      -9.847  14.037  65.641  1.00  0.00    -0.291 OA 
HETATM    6  C1* UNL     1     -10.004  12.677  66.073  1.00  0.00    -0.258 C  
HETATM    7  C2* UNL     1     -11.474  12.530  66.458  1.00  0.00    -0.418 C  
HETATM    8  H3* UNL     1     -13.821  12.649  65.240  1.00  0.00     0.000 HD 
HETATM    9  O3* UNL     1     -13.128  13.101  64.774  1.00  0.00    -0.728 OA 
HETATM   10  C3* UNL     1     -12.179  13.634  65.693  1.00  0.00    -0.454 C  
BRANCH   6  11
HETATM   11  N   UNL     1      -9.060  12.333  67.136  1.00  0.00    -0.186 N  
HETATM   12  C   UNL     1      -8.274  13.290  67.754  1.00  0.00    -0.168 C  
HETATM   13  C   UNL     1      -6.440  14.005  69.269  1.00  0.00    -0.114 C  
HETATM   14  C   UNL     1      -7.312  12.984  68.639  1.00  0.00    -0.097 C  
HETATM   15  C   UNL     1      -7.101  11.570  68.964  1.00  0.00    -0.115 C  
HETATM   16  O   UNL     1      -6.211  11.169  69.703  1.00  0.00    -0.079 OA 
HETATM   17  N   UNL     1      -7.964  10.687  68.371  1.00  0.00    -0.114 N  
HETATM   18  F   UNL     1      -5.440  13.537  70.052  1.00  0.00    -0.086 F  
HETATM   19  F   UNL     1      -5.845  14.784  68.324  1.00  0.00    -0.084 F  
HETATM   20  F   UNL     1      -7.168  14.854  70.045  1.00  0.00    -0.186 F  
HETATM   21  C   UNL     1      -8.906  10.983  67.424  1.00  0.00    -0.138 C  
HETATM   22  H   UNL     1      -7.898   9.712  68.665  1.00  0.00     0.000 HD 
HETATM   23  O   UNL     1      -9.540  10.082  66.879  1.00  0.00    -0.164 OA 
ENDBRANCH   6  11
ENDBRANCH   3   4
TORSDOF 2
ENDMDL
MODEL       85
REMARK 921   NORMALIZED FREE ENERGY PREDICTED BY IDOCK:   -4.99 KCAL/MOL
REMARK 922        TOTAL FREE ENERGY PREDICTED BY IDOCK:   -6.01 KCAL/MOL
REMARK 923 INTER-LIGAND FREE ENERGY PREDICTED BY IDOCK:   -5.42 KCAL/MOL
REMARK 924 INTRA-LIGAND FREE ENERGY PREDICTED BY IDOCK:   -0.58 KCAL/MOL
REMARK 927      BINDING AFFINITY PREDICTED BY RF-SCORE:    0.00 PKD
ROOT
HETATM    1  O5* UNL     1      -6.715  12.046  66.362  1.00  0.00    -0.351 OA 
HETATM    2  H5* UNL     1      -6.014  12.612  66.660  1.00  0.00     0.000 HD 
HETATM    3  C5* UNL     1      -6.682  10.780  67.021  1.00  0.00    -0.090 C  
ENDROOT
BRANCH   3   4
HETATM    4  C4* UNL     1      -7.811   9.869  66.541  1.00  0.00    -0.110 C  
HETATM    5  O4* UNL     1      -8.253   8.989  67.590  1.00  0.00    -0.108 OA 
HETATM    6  C1* UNL     1      -9.564   8.557  67.198  1.00  0.00    -0.178 C  
HETATM    7  C2* UNL     1     -10.218   9.764  66.531  1.00  0.00    -0.289 C  
HETATM    8  H3* UNL     1      -9.817  11.243  64.373  1.00  0.00     0.000 HD 
HETATM    9  O3* UNL     1      -9.043  10.774  64.661  1.00  0.00    -0.199 OA 
HETATM   10  C3* UNL     1      -9.054  10.624  66.078  1.00  0.00    -0.180 C  
BRANCH   6  11
HETATM   11  N   UNL     1     -10.314   8.005  68.326  1.00  0.00    -0.205 N  
HETATM   12  C   UNL     1     -10.371   8.648  69.551  1.00  0.00    -0.214 C  
HETATM   13  C   UNL     1     -10.967   8.774  71.959  1.00  0.00    -0.368 C  
HETATM   14  C   UNL     1     -10.943   8.104  70.636  1.00  0.00    -0.255 C  
HETATM   15  C   UNL     1     -11.541   6.771  70.502  1.00  0.00    -0.372 C  
HETATM   16  O   UNL     1     -12.029   6.150  71.437  1.00  0.00    -0.225 OA 
HETATM   17  N   UNL     1     -11.513   6.229  69.245  1.00  0.00    -0.558 N  
HETATM   18  F   UNL     1     -11.477   8.053  72.985  1.00  0.00    -0.446 F  
HETATM   19  F   UNL     1      -9.711   9.135  72.341  1.00  0.00    -0.301 F  
HETATM   20  F   UNL     1     -11.686   9.928  71.907  1.00  0.00    -0.439 F  
HETATM   21  C   UNL     1     -10.879   6.749  68.149  1.00  0.00    -0.228 C  
HETATM   22  H   UNL     1     -12.014   5.350  69.112  1.00  0.00     0.000 HD 
HETATM   23  O   UNL     1     -10.825   6.107  67.102  1.00  0.00    -0.308 OA 
ENDBRANCH   6  11
ENDBRANCH   3   4
TORSDOF 2
ENDMDL
MODEL       86
REMARK 921   NORMALIZED FREE ENERGY PREDICTED BY IDOCK:   -4.98 KCAL/MOL
REMARK 922        TOTAL FREE ENERGY PREDICTED BY IDOCK:   -5.99 KCAL/MOL
REMARK 923 INTER-LIGAND FREE ENERGY PREDICTED BY IDOCK:   -6.84 KCAL/MOL
REMARK 924 INTRA-LIGAND FREE ENERGY PREDICTED BY IDOCK:    0.85 KCAL/MOL
REMARK 927      BINDING AFFINITY PREDICTED BY RF-SCORE:    0.00 PKD
ROOT
HETATM    1  O5* UNL     1     -11.151  15.027  71.114  1.00  0.00    -0.516 OA 
HETATM    2  H5* UNL     1     -11.711  14.968  71.878  1.00  0.00     0.000 HD 
HETATM    3  C5* UNL     1     -11.266  16.299  70.478  1.00  0.00    -0.309 C  
ENDROOT
BRANCH   3   4
HETATM    4  C4* UNL     1     -10.366  16.394  69.247  1.00  0.00    -0.292 C  
HETATM    5  O4* UNL     1     -10.371  15.163  68.501  1.00  0.00    -0.221 OA 
HETATM    6  C1* UNL     1      -9.914  15.513  67.185  1.00  0.00    -0.242 C  
HETATM    7  C2* UNL     1     -10.503  16.891  66.893  1.00  0.00    -0.271 C  
HETATM    8  H3* UNL     1     -10.282  19.343  67.866  1.00  0.00     0.000 HD 
HETATM    9  O3* UNL     1     -10.022  18.666  68.479  1.00  0.00    -0.355 OA 
HETATM   10  C3* UNL     1     -10.784  17.482  68.261  1.00  0.00    -0.309 C  
BRANCH   6  11
HETATM   11  N   UNL     1     -10.253  14.486  66.201  1.00  0.00    -0.293 N  
HETATM   12  C   UNL     1     -10.058  13.139  66.453  1.00  0.00    -0.281 C  
HETATM   13  C   UNL     1      -9.990  10.749  65.781  1.00  0.00    -0.251 C  
HETATM   14  C   UNL     1     -10.241  12.188  65.524  1.00  0.00    -0.294 C  
HETATM   15  C   UNL     1     -10.675  12.608  64.187  1.00  0.00    -0.406 C  
HETATM   16  O   UNL     1     -10.808  11.837  63.245  1.00  0.00    -0.374 OA 
HETATM   17  N   UNL     1     -10.919  13.946  64.033  1.00  0.00    -0.521 N  
HETATM   18  F   UNL     1     -10.106   9.923  64.715  1.00  0.00    -0.396 F  
HETATM   19  F   UNL     1      -8.735  10.555  66.272  1.00  0.00    -0.138 F  
HETATM   20  F   UNL     1     -10.839  10.270  66.731  1.00  0.00    -0.294 F  
HETATM   21  C   UNL     1     -10.679  14.928  64.955  1.00  0.00    -0.431 C  
HETATM   22  H   UNL     1     -11.321  14.240  63.142  1.00  0.00     0.000 HD 
HETATM   23  O   UNL     1     -10.829  16.110  64.654  1.00  0.00    -0.650 OA 
ENDBRANCH   6  11
ENDBRANCH   3   4
TORSDOF 2
ENDMDL
MODEL       87
REMARK 921   NORMALIZED FREE ENERGY PREDICTED BY IDOCK:   -4.97 KCAL/MOL
REMARK 922        TOTAL FREE ENERGY PREDICTED BY IDOCK:   -5.98 KCAL/MOL
REMARK 923 INTER-LIGAND FREE ENERGY PREDICTED BY IDOCK:   -5.67 KCAL/MOL
REMARK 924 INTRA-LIGAND FREE ENERGY PREDICTED BY IDOCK:   -0.32 KCAL/MOL
REMARK 927      BINDING AFFINITY PREDICTED BY RF-SCORE:    0.00 PKD
ROOT
HETATM    1  O5* UNL     1      -8.478   5.060  67.349  1.00  0.00    -0.106 OA 
HETATM    2  H5* UNL     1      -8.090   5.016  66.484  1.00  0.00     0.000 HD 
HETATM    3  C5* UNL     1      -8.434   6.386  67.875  1.00  0.00    -0.118 C  
ENDROOT
BRANCH   3   4
HETATM    4  C4* UNL     1      -9.058   6.457  69.268  1.00  0.00    -0.136 C  
HETATM    5  O4* UNL     1      -9.487   7.794  69.580  1.00  0.00    -0.157 OA 
HETATM    6  C1* UNL     1     -10.446   7.650  70.639  1.00  0.00    -0.216 C  
HETATM    7  C2* UNL     1     -11.221   6.372  70.327  1.00  0.00    -0.445 C  
HETATM    8  H3* UNL     1     -10.703   3.783  70.141  1.00  0.00     0.000 HD 
HETATM    9  O3* UNL     1      -9.935   4.332  70.038  1.00  0.00    -0.223 OA 
HETATM   10  C3* UNL     1     -10.292   5.573  69.434  1.00  0.00    -0.278 C  
BRANCH   6  11
HETATM   11  N   UNL     1     -11.277   8.844  70.786  1.00  0.00    -0.264 N  
HETATM   12  C   UNL     1     -11.205   9.900  69.894  1.00  0.00    -0.250 C  
HETATM   13  C   UNL     1     -11.749  12.204  69.143  1.00  0.00    -0.328 C  
HETATM   14  C   UNL     1     -11.860  11.056  70.076  1.00  0.00    -0.435 C  
HETATM   15  C   UNL     1     -12.695  11.192  71.275  1.00  0.00    -0.426 C  
HETATM   16  O   UNL     1     -13.284  12.222  71.578  1.00  0.00    -0.339 OA 
HETATM   17  N   UNL     1     -12.777  10.082  72.072  1.00  0.00    -0.381 N  
HETATM   18  F   UNL     1     -12.376  13.343  69.518  1.00  0.00    -0.330 F  
HETATM   19  F   UNL     1     -10.445  12.541  68.942  1.00  0.00    -0.224 F  
HETATM   20  F   UNL     1     -12.242  11.882  67.916  1.00  0.00    -0.341 F  
HETATM   21  C   UNL     1     -12.067   8.922  71.926  1.00  0.00    -0.373 C  
HETATM   22  H   UNL     1     -13.434  10.124  72.852  1.00  0.00     0.000 HD 
HETATM   23  O   UNL     1     -12.140   8.039  72.779  1.00  0.00    -0.297 OA 
ENDBRANCH   6  11
ENDBRANCH   3   4
TORSDOF 2
ENDMDL
MODEL       88
REMARK 921   NORMALIZED FREE ENERGY PREDICTED BY IDOCK:   -4.97 KCAL/MOL
REMARK 922        TOTAL FREE ENERGY PREDICTED BY IDOCK:   -5.98 KCAL/MOL
REMARK 923 INTER-LIGAND FREE ENERGY PREDICTED BY IDOCK:   -5.52 KCAL/MOL
REMARK 924 INTRA-LIGAND FREE ENERGY PREDICTED BY IDOCK:   -0.46 KCAL/MOL
REMARK 927      BINDING AFFINITY PREDICTED BY RF-SCORE:    0.00 PKD
ROOT
HETATM    1  O5* UNL     1     -13.754   9.497  72.933  1.00  0.00    -0.685 OA 
HETATM    2  H5* UNL     1     -14.544   9.529  73.460  1.00  0.00     0.000 HD 
HETATM    3  C5* UNL     1     -13.622   8.244  72.263  1.00  0.00    -0.208 C  
ENDROOT
BRANCH   3   4
HETATM    4  C4* UNL     1     -12.352   8.193  71.416  1.00  0.00    -0.298 C  
HETATM    5  O4* UNL     1     -12.480   9.005  70.235  1.00  0.00     0.290 OA 
HETATM    6  C1* UNL     1     -11.135   9.260  69.800  1.00  0.00    -0.150 C  
HETATM    7  C2* UNL     1     -10.311   9.428  71.074  1.00  0.00    -0.382 C  
HETATM    8  H3* UNL     1      -9.598   7.930  73.137  1.00  0.00     0.000 HD 
HETATM    9  O3* UNL     1     -10.371   7.613  72.686  1.00  0.00    -0.227 OA 
HETATM   10  C3* UNL     1     -11.109   8.703  72.141  1.00  0.00    -0.364 C  
BRANCH   6  11
HETATM   11  N   UNL     1     -11.068  10.394  68.879  1.00  0.00    -0.239 N  
HETATM   12  C   UNL     1     -11.312  11.691  69.297  1.00  0.00    -0.290 C  
HETATM   13  C   UNL     1     -11.686  14.113  68.892  1.00  0.00    -0.334 C  
HETATM   14  C   UNL     1     -11.382  12.730  68.451  1.00  0.00    -0.331 C  
HETATM   15  C   UNL     1     -11.181  12.468  67.022  1.00  0.00    -0.302 C  
HETATM   16  O   UNL     1     -11.288  13.324  66.153  1.00  0.00    -0.297 OA 
HETATM   17  N   UNL     1     -10.871  11.176  66.691  1.00  0.00    -0.268 N  
HETATM   18  F   UNL     1     -11.838  15.034  67.912  1.00  0.00    -0.342 F  
HETATM   19  F   UNL     1     -12.836  14.147  69.622  1.00  0.00    -0.299 F  
HETATM   20  F   UNL     1     -10.710  14.586  69.715  1.00  0.00    -0.243 F  
HETATM   21  C   UNL     1     -10.856  10.101  67.539  1.00  0.00    -0.290 C  
HETATM   22  H   UNL     1     -10.626  10.996  65.717  1.00  0.00     0.000 HD 
HETATM   23  O   UNL     1     -10.678   8.967  67.098  1.00  0.00    -0.259 OA 
ENDBRANCH   6  11
ENDBRANCH   3   4
TORSDOF 2
ENDMDL
MODEL       89
REMARK 921   NORMALIZED FREE ENERGY PREDICTED BY IDOCK:   -4.96 KCAL/MOL
REMARK 922        TOTAL FREE ENERGY PREDICTED BY IDOCK:   -5.97 KCAL/MOL
REMARK 923 INTER-LIGAND FREE ENERGY PREDICTED BY IDOCK:   -6.24 KCAL/MOL
REMARK 924 INTRA-LIGAND FREE ENERGY PREDICTED BY IDOCK:    0.27 KCAL/MOL
REMARK 927      BINDING AFFINITY PREDICTED BY RF-SCORE:    0.00 PKD
ROOT
HETATM    1  O5* UNL     1      -6.441  13.029  66.849  1.00  0.00    -0.450 OA 
HETATM    2  H5* UNL     1      -5.702  12.438  66.779  1.00  0.00     0.000 HD 
HETATM    3  C5* UNL     1      -7.674  12.316  66.944  1.00  0.00    -0.015 C  
ENDROOT
BRANCH   3   4
HETATM    4  C4* UNL     1      -8.864  13.267  67.057  1.00  0.00    -0.212 C  
HETATM    5  O4* UNL     1      -9.858  12.754  67.962  1.00  0.00    -0.213 OA 
HETATM    6  C1* UNL     1     -10.647  13.891  68.346  1.00  0.00    -0.255 C  
HETATM    7  C2* UNL     1      -9.669  15.058  68.454  1.00  0.00    -0.216 C  
HETATM    8  H3* UNL     1      -8.088  16.423  66.827  1.00  0.00     0.000 HD 
HETATM    9  O3* UNL     1      -8.317  15.562  66.500  1.00  0.00    -0.269 OA 
HETATM   10  C3* UNL     1      -8.496  14.652  67.582  1.00  0.00    -0.180 C  
BRANCH   6  11
HETATM   11  N   UNL     1     -11.418  13.631  69.561  1.00  0.00    -0.275 N  
HETATM   12  C   UNL     1     -11.747  12.346  69.957  1.00  0.00    -0.230 C  
HETATM   13  C   UNL     1     -12.946  10.711  71.392  1.00  0.00    -0.443 C  
HETATM   14  C   UNL     1     -12.559  12.086  70.994  1.00  0.00    -0.370 C  
HETATM   15  C   UNL     1     -13.110  13.224  71.737  1.00  0.00    -0.379 C  
HETATM   16  O   UNL     1     -13.912  13.110  72.655  1.00  0.00    -0.708 OA 
HETATM   17  N   UNL     1     -12.683  14.462  71.335  1.00  0.00    -0.322 N  
HETATM   18  F   UNL     1     -13.862  10.611  72.383  1.00  0.00    -0.320 F  
HETATM   19  F   UNL     1     -13.461  10.026  70.334  1.00  0.00    -0.310 F  
HETATM   20  F   UNL     1     -11.860  10.000  71.802  1.00  0.00    -0.440 F  
HETATM   21  C   UNL     1     -11.904  14.738  70.244  1.00  0.00    -0.302 C  
HETATM   22  H   UNL     1     -12.974  15.256  71.905  1.00  0.00     0.000 HD 
HETATM   23  O   UNL     1     -11.687  15.903  69.918  1.00  0.00    -0.333 OA 
ENDBRANCH   6  11
ENDBRANCH   3   4
TORSDOF 2
ENDMDL
MODEL       90
REMARK 921   NORMALIZED FREE ENERGY PREDICTED BY IDOCK:   -4.96 KCAL/MOL
REMARK 922        TOTAL FREE ENERGY PREDICTED BY IDOCK:   -5.97 KCAL/MOL
REMARK 923 INTER-LIGAND FREE ENERGY PREDICTED BY IDOCK:   -5.53 KCAL/MOL
REMARK 924 INTRA-LIGAND FREE ENERGY PREDICTED BY IDOCK:   -0.44 KCAL/MOL
REMARK 927      BINDING AFFINITY PREDICTED BY RF-SCORE:    0.00 PKD
ROOT
HETATM    1  O5* UNL     1      -9.924  20.238  66.267  1.00  0.00    -0.534 OA 
HETATM    2  H5* UNL     1     -10.543  20.824  65.849  1.00  0.00     0.000 HD 
HETATM    3  C5* UNL     1      -9.797  20.517  67.660  1.00  0.00    -0.343 C  
ENDROOT
BRANCH   3   4
HETATM    4  C4* UNL     1      -8.799  19.574  68.332  1.00  0.00    -0.342 C  
HETATM    5  O4* UNL     1      -9.328  18.240  68.430  1.00  0.00    -0.295 OA 
HETATM    6  C1* UNL     1      -8.185  17.389  68.611  1.00  0.00    -0.264 C  
HETATM    7  C2* UNL     1      -7.078  17.991  67.751  1.00  0.00    -0.207 C  
HETATM    8  H3* UNL     1      -5.676  20.236  67.681  1.00  0.00     0.000 HD 
HETATM    9  O3* UNL     1      -6.500  20.317  68.147  1.00  0.00    -0.264 OA 
HETATM   10  C3* UNL     1      -7.475  19.445  67.582  1.00  0.00    -0.252 C  
BRANCH   6  11
HETATM   11  N   UNL     1      -8.495  15.992  68.313  1.00  0.00    -0.173 N  
HETATM   12  C   UNL     1      -9.430  15.639  67.355  1.00  0.00    -0.215 C  
HETATM   13  C   UNL     1     -10.858  13.998  66.154  1.00  0.00    -0.291 C  
HETATM   14  C   UNL     1      -9.824  14.372  67.151  1.00  0.00    -0.254 C  
HETATM   15  C   UNL     1      -9.224  13.323  67.982  1.00  0.00    -0.217 C  
HETATM   16  O   UNL     1      -9.555  12.145  67.931  1.00  0.00    -0.185 OA 
HETATM   17  N   UNL     1      -8.254  13.737  68.855  1.00  0.00    -0.343 N  
HETATM   18  F   UNL     1     -11.234  12.698  66.143  1.00  0.00    -0.292 F  
HETATM   19  F   UNL     1     -11.997  14.718  66.344  1.00  0.00    -0.362 F  
HETATM   20  F   UNL     1     -10.441  14.287  64.891  1.00  0.00    -0.363 F  
HETATM   21  C   UNL     1      -7.890  15.031  69.111  1.00  0.00    -0.188 C  
HETATM   22  H   UNL     1      -7.754  13.008  69.366  1.00  0.00     0.000 HD 
HETATM   23  O   UNL     1      -7.086  15.281  70.008  1.00  0.00    -0.147 OA 
ENDBRANCH   6  11
ENDBRANCH   3   4
TORSDOF 2
ENDMDL
MODEL       91
REMARK 921   NORMALIZED FREE ENERGY PREDICTED BY IDOCK:   -4.95 KCAL/MOL
REMARK 922        TOTAL FREE ENERGY PREDICTED BY IDOCK:   -5.96 KCAL/MOL
REMARK 923 INTER-LIGAND FREE ENERGY PREDICTED BY IDOCK:   -5.53 KCAL/MOL
REMARK 924 INTRA-LIGAND FREE ENERGY PREDICTED BY IDOCK:   -0.43 KCAL/MOL
REMARK 927      BINDING AFFINITY PREDICTED BY RF-SCORE:    0.00 PKD
ROOT
HETATM    1  O5* UNL     1      -8.942  10.815  69.741  1.00  0.00    -0.367 OA 
HETATM    2  H5* UNL     1      -8.838  10.615  70.663  1.00  0.00     0.000 HD 
HETATM    3  C5* UNL     1     -10.313  10.775  69.348  1.00  0.00    -0.179 C  
ENDROOT
BRANCH   3   4
HETATM    4  C4* UNL     1     -10.480  11.098  67.863  1.00  0.00    -0.190 C  
HETATM    5  O4* UNL     1     -10.889  12.463  67.669  1.00  0.00    -0.214 OA 
HETATM    6  C1* UNL     1     -10.552  12.772  66.308  1.00  0.00    -0.257 C  
HETATM    7  C2* UNL     1      -9.237  12.048  66.031  1.00  0.00    -0.152 C  
HETATM    8  H3* UNL     1      -8.388   9.544  65.908  1.00  0.00     0.000 HD 
HETATM    9  O3* UNL     1      -9.184   9.651  66.414  1.00  0.00    -0.150 OA 
HETATM   10  C3* UNL     1      -9.199  10.925  67.050  1.00  0.00    -0.152 C  
BRANCH   6  11
HETATM   11  N   UNL     1     -10.512  14.215  66.072  1.00  0.00    -0.295 N  
HETATM   12  C   UNL     1     -10.189  15.111  67.076  1.00  0.00    -0.262 C  
HETATM   13  C   UNL     1      -9.965  17.402  68.010  1.00  0.00    -0.302 C  
HETATM   14  C   UNL     1     -10.270  16.442  66.921  1.00  0.00    -0.290 C  
HETATM   15  C   UNL     1     -10.713  16.957  65.621  1.00  0.00    -0.167 C  
HETATM   16  O   UNL     1     -10.888  18.146  65.387  1.00  0.00    -0.556 OA 
HETATM   17  N   UNL     1     -10.943  16.015  64.654  1.00  0.00    -0.621 N  
HETATM   18  F   UNL     1     -10.203  18.707  67.740  1.00  0.00    -0.328 F  
HETATM   19  F   UNL     1     -10.687  17.112  69.128  1.00  0.00    -0.307 F  
HETATM   20  F   UNL     1      -8.658  17.319  68.380  1.00  0.00    -0.218 F  
HETATM   21  C   UNL     1     -10.922  14.657  64.821  1.00  0.00    -0.386 C  
HETATM   22  H   UNL     1     -11.151  16.360  63.717  1.00  0.00     0.000 HD 
HETATM   23  O   UNL     1     -11.264  13.915  63.902  1.00  0.00    -0.131 OA 
ENDBRANCH   6  11
ENDBRANCH   3   4
TORSDOF 2
ENDMDL
MODEL       92
REMARK 921   NORMALIZED FREE ENERGY PREDICTED BY IDOCK:   -4.93 KCAL/MOL
REMARK 922        TOTAL FREE ENERGY PREDICTED BY IDOCK:   -5.94 KCAL/MOL
REMARK 923 INTER-LIGAND FREE ENERGY PREDICTED BY IDOCK:   -5.52 KCAL/MOL
REMARK 924 INTRA-LIGAND FREE ENERGY PREDICTED BY IDOCK:   -0.42 KCAL/MOL
REMARK 927      BINDING AFFINITY PREDICTED BY RF-SCORE:    0.00 PKD
ROOT
HETATM    1  O5* UNL     1     -10.779  16.950  64.616  1.00  0.00    -0.756 OA 
HETATM    2  H5* UNL     1     -10.400  17.769  64.912  1.00  0.00     0.000 HD 
HETATM    3  C5* UNL     1     -10.436  15.871  65.485  1.00  0.00    -0.404 C  
ENDROOT
BRANCH   3   4
HETATM    4  C4* UNL     1     -11.045  14.553  65.008  1.00  0.00    -0.387 C  
HETATM    5  O4* UNL     1     -10.057  13.508  64.961  1.00  0.00    -0.316 OA 
HETATM    6  C1* UNL     1     -10.800  12.280  64.979  1.00  0.00    -0.298 C  
HETATM    7  C2* UNL     1     -11.988  12.525  65.905  1.00  0.00    -0.472 C  
HETATM    8  H3* UNL     1     -14.129  14.081  65.948  1.00  0.00     0.000 HD 
HETATM    9  O3* UNL     1     -13.434  14.406  65.388  1.00  0.00    -0.485 OA 
HETATM   10  C3* UNL     1     -12.162  14.031  65.909  1.00  0.00    -0.456 C  
BRANCH   6  11
HETATM   11  N   UNL     1      -9.961  11.142  65.354  1.00  0.00    -0.245 N  
HETATM   12  C   UNL     1      -9.517  10.958  66.652  1.00  0.00    -0.179 C  
HETATM   13  C   UNL     1      -8.136   9.827  68.380  1.00  0.00    -0.104 C  
HETATM   14  C   UNL     1      -8.645   9.998  66.997  1.00  0.00    -0.126 C  
HETATM   15  C   UNL     1      -8.154   9.104  65.942  1.00  0.00    -0.111 C  
HETATM   16  O   UNL     1      -7.309   8.239  66.126  1.00  0.00    -0.075 OA 
HETATM   17  N   UNL     1      -8.693   9.299  64.698  1.00  0.00    -0.200 N  
HETATM   18  F   UNL     1      -7.175   8.890  68.551  1.00  0.00    -0.069 F  
HETATM   19  F   UNL     1      -7.614  10.993  68.852  1.00  0.00    -0.098 F  
HETATM   20  F   UNL     1      -9.146   9.500  69.232  1.00  0.00    -0.135 F  
HETATM   21  C   UNL     1      -9.535  10.311  64.326  1.00  0.00    -0.307 C  
HETATM   22  H   UNL     1      -8.441   8.622  63.978  1.00  0.00     0.000 HD 
HETATM   23  O   UNL     1      -9.856  10.448  63.147  1.00  0.00    -0.299 OA 
ENDBRANCH   6  11
ENDBRANCH   3   4
TORSDOF 2
ENDMDL
MODEL       93
REMARK 921   NORMALIZED FREE ENERGY PREDICTED BY IDOCK:   -4.93 KCAL/MOL
REMARK 922        TOTAL FREE ENERGY PREDICTED BY IDOCK:   -5.93 KCAL/MOL
REMARK 923 INTER-LIGAND FREE ENERGY PREDICTED BY IDOCK:   -6.02 KCAL/MOL
REMARK 924 INTRA-LIGAND FREE ENERGY PREDICTED BY IDOCK:    0.09 KCAL/MOL
REMARK 927      BINDING AFFINITY PREDICTED BY RF-SCORE:    0.00 PKD
ROOT
HETATM    1  O5* UNL     1     -11.831  16.663  72.141  1.00  0.00    -0.641 OA 
HETATM    2  H5* UNL     1     -11.231  17.399  72.146  1.00  0.00     0.000 HD 
HETATM    3  C5* UNL     1     -11.731  15.913  70.931  1.00  0.00    -0.420 C  
ENDROOT
BRANCH   3   4
HETATM    4  C4* UNL     1     -12.696  14.729  70.925  1.00  0.00    -0.342 C  
HETATM    5  O4* UNL     1     -12.117  13.588  70.267  1.00  0.00    -0.335 OA 
HETATM    6  C1* UNL     1     -12.871  12.457  70.731  1.00  0.00    -0.015 C  
HETATM    7  C2* UNL     1     -13.188  12.742  72.196  1.00  0.00    -0.546 C  
HETATM    8  H3* UNL     1     -14.587  14.521  73.570  1.00  0.00     0.000 HD 
HETATM    9  O3* UNL     1     -14.341  14.819  72.702  1.00  0.00    -0.399 OA 
HETATM   10  C3* UNL     1     -13.092  14.251  72.319  1.00  0.00    -0.405 C  
BRANCH   6  11
HETATM   11  N   UNL     1     -12.163  11.199  70.496  1.00  0.00    -0.357 N  
HETATM   12  C   UNL     1     -11.077  11.120  69.641  1.00  0.00    -0.232 C  
HETATM   13  C   UNL     1      -9.355   9.869  68.361  1.00  0.00    -0.133 C  
HETATM   14  C   UNL     1     -10.491   9.959  69.310  1.00  0.00    -0.240 C  
HETATM   15  C   UNL     1     -11.030   8.726  69.894  1.00  0.00    -0.179 C  
HETATM   16  O   UNL     1     -10.621   7.607  69.613  1.00  0.00    -0.238 OA 
HETATM   17  N   UNL     1     -12.056   8.888  70.787  1.00  0.00    -0.476 N  
HETATM   18  F   UNL     1      -8.945   8.620  68.037  1.00  0.00    -0.137 F  
HETATM   19  F   UNL     1      -9.656  10.484  67.184  1.00  0.00    -0.172 F  
HETATM   20  F   UNL     1      -8.262  10.516  68.849  1.00  0.00    -0.105 F  
HETATM   21  C   UNL     1     -12.697  10.060  71.083  1.00  0.00    -0.387 C  
HETATM   22  H   UNL     1     -12.373   8.053  71.280  1.00  0.00     0.000 HD 
HETATM   23  O   UNL     1     -13.686  10.057  71.815  1.00  0.00    -0.259 OA 
ENDBRANCH   6  11
ENDBRANCH   3   4
TORSDOF 2
ENDMDL
MODEL       94
REMARK 921   NORMALIZED FREE ENERGY PREDICTED BY IDOCK:   -4.86 KCAL/MOL
REMARK 922        TOTAL FREE ENERGY PREDICTED BY IDOCK:   -5.86 KCAL/MOL
REMARK 923 INTER-LIGAND FREE ENERGY PREDICTED BY IDOCK:   -5.97 KCAL/MOL
REMARK 924 INTRA-LIGAND FREE ENERGY PREDICTED BY IDOCK:    0.11 KCAL/MOL
REMARK 927      BINDING AFFINITY PREDICTED BY RF-SCORE:    0.00 PKD
ROOT
HETATM    1  O5* UNL     1     -12.403  14.417  63.366  1.00  0.00    -1.094 OA 
HETATM    2  H5* UNL     1     -13.195  14.915  63.207  1.00  0.00     0.000 HD 
HETATM    3  C5* UNL     1     -12.270  14.072  64.745  1.00  0.00    -0.433 C  
ENDROOT
BRANCH   3   4
HETATM    4  C4* UNL     1     -10.995  13.270  65.002  1.00  0.00    -0.313 C  
HETATM    5  O4* UNL     1     -10.807  13.025  66.407  1.00  0.00    -0.275 OA 
HETATM    6  C1* UNL     1      -9.905  11.911  66.482  1.00  0.00    -0.206 C  
HETATM    7  C2* UNL     1     -10.283  10.991  65.324  1.00  0.00    -0.344 C  
HETATM    8  H3* UNL     1     -10.283  11.098  62.679  1.00  0.00     0.000 HD 
HETATM    9  O3* UNL     1     -10.288  11.953  63.094  1.00  0.00    -0.402 OA 
HETATM   10  C3* UNL     1     -10.988  11.897  64.334  1.00  0.00    -0.337 C  
BRANCH   6  11
HETATM   11  N   UNL     1      -9.936  11.275  67.799  1.00  0.00    -0.174 N  
HETATM   12  C   UNL     1      -8.785  10.817  68.417  1.00  0.00    -0.142 C  
HETATM   13  C   UNL     1      -7.571   9.591  70.204  1.00  0.00    -0.142 C  
HETATM   14  C   UNL     1      -8.800  10.119  69.563  1.00  0.00    -0.198 C  
HETATM   15  C   UNL     1     -10.100   9.841  70.182  1.00  0.00    -0.265 C  
HETATM   16  O   UNL     1     -10.240   9.158  71.188  1.00  0.00    -0.262 OA 
HETATM   17  N   UNL     1     -11.188  10.387  69.554  1.00  0.00    -0.253 N  
HETATM   18  F   UNL     1      -7.753   8.808  71.292  1.00  0.00    -0.086 F  
HETATM   19  F   UNL     1      -6.845   8.849  69.323  1.00  0.00    -0.047 F  
HETATM   20  F   UNL     1      -6.753  10.606  70.596  1.00  0.00    -0.132 F  
HETATM   21  C   UNL     1     -11.187  11.048  68.356  1.00  0.00    -0.274 C  
HETATM   22  H   UNL     1     -12.087  10.292  70.027  1.00  0.00     0.000 HD 
HETATM   23  O   UNL     1     -12.249  11.389  67.837  1.00  0.00    -0.592 OA 
ENDBRANCH   6  11
ENDBRANCH   3   4
TORSDOF 2
ENDMDL
MODEL       95
REMARK 921   NORMALIZED FREE ENERGY PREDICTED BY IDOCK:   -4.86 KCAL/MOL
REMARK 922        TOTAL FREE ENERGY PREDICTED BY IDOCK:   -5.86 KCAL/MOL
REMARK 923 INTER-LIGAND FREE ENERGY PREDICTED BY IDOCK:   -5.29 KCAL/MOL
REMARK 924 INTRA-LIGAND FREE ENERGY PREDICTED BY IDOCK:   -0.56 KCAL/MOL
REMARK 927      BINDING AFFINITY PREDICTED BY RF-SCORE:    0.00 PKD
ROOT
HETATM    1  O5* UNL     1     -11.892  10.322  68.055  1.00  0.00    -0.708 OA 
HETATM    2  H5* UNL     1     -11.871   9.556  68.616  1.00  0.00     0.000 HD 
HETATM    3  C5* UNL     1     -11.870  11.529  68.815  1.00  0.00    -0.330 C  
ENDROOT
BRANCH   3   4
HETATM    4  C4* UNL     1     -11.905  12.761  67.911  1.00  0.00    -0.339 C  
HETATM    5  O4* UNL     1     -11.102  13.826  68.450  1.00  0.00    -0.242 OA 
HETATM    6  C1* UNL     1     -10.827  14.695  67.340  1.00  0.00    -0.298 C  
HETATM    7  C2* UNL     1     -10.638  13.781  66.133  1.00  0.00    -0.291 C  
HETATM    8  H3* UNL     1     -12.113  12.088  64.730  1.00  0.00     0.000 HD 
HETATM    9  O3* UNL     1     -12.445  12.246  65.605  1.00  0.00    -0.591 OA 
HETATM   10  C3* UNL     1     -11.370  12.505  66.504  1.00  0.00    -0.334 C  
BRANCH   6  11
HETATM   11  N   UNL     1      -9.697  15.583  67.612  1.00  0.00    -0.212 N  
HETATM   12  C   UNL     1      -8.636  15.192  68.411  1.00  0.00    -0.159 C  
HETATM   13  C   UNL     1      -6.538  15.622  69.670  1.00  0.00    -0.181 C  
HETATM   14  C   UNL     1      -7.653  16.028  68.779  1.00  0.00    -0.184 C  
HETATM   15  C   UNL     1      -7.712  17.413  68.300  1.00  0.00    -0.241 C  
HETATM   16  O   UNL     1      -6.909  18.278  68.626  1.00  0.00    -0.236 OA 
HETATM   17  N   UNL     1      -8.749  17.707  67.455  1.00  0.00    -0.232 N  
HETATM   18  F   UNL     1      -5.686  16.604  70.047  1.00  0.00    -0.176 F  
HETATM   19  F   UNL     1      -7.014  15.074  70.823  1.00  0.00     0.040 F  
HETATM   20  F   UNL     1      -5.777  14.657  69.087  1.00  0.00    -0.092 F  
HETATM   21  C   UNL     1      -9.787  16.879  67.124  1.00  0.00    -0.270 C  
HETATM   22  H   UNL     1      -8.747  18.635  67.031  1.00  0.00     0.000 HD 
HETATM   23  O   UNL     1     -10.723  17.301  66.447  1.00  0.00    -0.216 OA 
ENDBRANCH   6  11
ENDBRANCH   3   4
TORSDOF 2
ENDMDL
MODEL       96
REMARK 921   NORMALIZED FREE ENERGY PREDICTED BY IDOCK:   -4.85 KCAL/MOL
REMARK 922        TOTAL FREE ENERGY PREDICTED BY IDOCK:   -5.85 KCAL/MOL
REMARK 923 INTER-LIGAND FREE ENERGY PREDICTED BY IDOCK:   -5.43 KCAL/MOL
REMARK 924 INTRA-LIGAND FREE ENERGY PREDICTED BY IDOCK:   -0.42 KCAL/MOL
REMARK 927      BINDING AFFINITY PREDICTED BY RF-SCORE:    0.00 PKD
ROOT
HETATM    1  O5* UNL     1     -12.141  15.335  70.289  1.00  0.00    -0.303 OA 
HETATM    2  H5* UNL     1     -12.298  15.048  71.180  1.00  0.00     0.000 HD 
HETATM    3  C5* UNL     1     -11.556  14.300  69.500  1.00  0.00    -0.301 C  
ENDROOT
BRANCH   3   4
HETATM    4  C4* UNL     1     -11.305  14.763  68.065  1.00  0.00    -0.316 C  
HETATM    5  O4* UNL     1     -10.965  16.161  68.021  1.00  0.00    -0.331 OA 
HETATM    6  C1* UNL     1     -10.306  16.353  66.759  1.00  0.00    -0.293 C  
HETATM    7  C2* UNL     1      -9.481  15.091  66.525  1.00  0.00    -0.306 C  
HETATM    8  H3* UNL     1      -9.942  12.512  66.145  1.00  0.00     0.000 HD 
HETATM    9  O3* UNL     1     -10.657  12.966  66.574  1.00  0.00    -0.256 OA 
HETATM   10  C3* UNL     1     -10.156  14.032  67.376  1.00  0.00    -0.244 C  
BRANCH   6  11
HETATM   11  N   UNL     1      -9.537  17.596  66.732  1.00  0.00    -0.283 N  
HETATM   12  C   UNL     1      -8.489  17.827  67.607  1.00  0.00    -0.229 C  
HETATM   13  C   UNL     1      -6.757  19.266  68.656  1.00  0.00    -0.286 C  
HETATM   14  C   UNL     1      -7.851  19.005  67.688  1.00  0.00    -0.269 C  
HETATM   15  C   UNL     1      -8.288  20.086  66.798  1.00  0.00    -0.323 C  
HETATM   16  O   UNL     1      -7.826  21.219  66.831  1.00  0.00    -0.100 OA 
HETATM   17  N   UNL     1      -9.278  19.763  65.910  1.00  0.00    -0.304 N  
HETATM   18  F   UNL     1      -6.289  20.535  68.700  1.00  0.00    -0.315 F  
HETATM   19  F   UNL     1      -7.150  18.965  69.924  1.00  0.00    -0.114 F  
HETATM   20  F   UNL     1      -5.683  18.470  68.400  1.00  0.00    -0.172 F  
HETATM   21  C   UNL     1      -9.974  18.585  65.861  1.00  0.00    -0.085 C  
HETATM   22  H   UNL     1      -9.522  20.470  65.216  1.00  0.00     0.000 HD 
HETATM   23  O   UNL     1     -10.925  18.459  65.092  1.00  0.00    -0.604 OA 
ENDBRANCH   6  11
ENDBRANCH   3   4
TORSDOF 2
ENDMDL
MODEL       97
REMARK 921   NORMALIZED FREE ENERGY PREDICTED BY IDOCK:   -4.83 KCAL/MOL
REMARK 922        TOTAL FREE ENERGY PREDICTED BY IDOCK:   -5.82 KCAL/MOL
REMARK 923 INTER-LIGAND FREE ENERGY PREDICTED BY IDOCK:   -5.91 KCAL/MOL
REMARK 924 INTRA-LIGAND FREE ENERGY PREDICTED BY IDOCK:    0.09 KCAL/MOL
REMARK 927      BINDING AFFINITY PREDICTED BY RF-SCORE:    0.00 PKD
ROOT
HETATM    1  O5* UNL     1     -10.902  18.901  67.078  1.00  0.00    -0.427 OA 
HETATM    2  H5* UNL     1     -10.956  19.791  67.405  1.00  0.00     0.000 HD 
HETATM    3  C5* UNL     1      -9.971  18.122  67.830  1.00  0.00    -0.327 C  
ENDROOT
BRANCH   3   4
HETATM    4  C4* UNL     1      -9.884  16.691  67.304  1.00  0.00    -0.255 C  
HETATM    5  O4* UNL     1      -9.943  15.736  68.378  1.00  0.00    -0.213 OA 
HETATM    6  C1* UNL     1     -10.331  14.496  67.766  1.00  0.00    -0.237 C  
HETATM    7  C2* UNL     1     -11.326  14.867  66.670  1.00  0.00    -0.326 C  
HETATM    8  H3* UNL     1     -11.299  16.237  64.404  1.00  0.00     0.000 HD 
HETATM    9  O3* UNL     1     -10.595  16.469  64.997  1.00  0.00    -0.670 OA 
HETATM   10  C3* UNL     1     -11.016  16.317  66.350  1.00  0.00     0.004 C  
BRANCH   6  11
HETATM   11  N   UNL     1     -10.838  13.540  68.749  1.00  0.00    -0.253 N  
HETATM   12  C   UNL     1     -10.574  12.184  68.654  1.00  0.00    -0.223 C  
HETATM   13  C   UNL     1     -10.881   9.816  69.339  1.00  0.00    -0.232 C  
HETATM   14  C   UNL     1     -11.130  11.273  69.467  1.00  0.00    -0.299 C  
HETATM   15  C   UNL     1     -12.051  11.749  70.505  1.00  0.00    -0.347 C  
HETATM   16  O   UNL     1     -12.667  11.005  71.257  1.00  0.00    -0.387 OA 
HETATM   17  N   UNL     1     -12.207  13.107  70.586  1.00  0.00    -0.441 N  
HETATM   18  F   UNL     1     -11.601   9.013  70.155  1.00  0.00    -0.243 F  
HETATM   19  F   UNL     1     -11.136   9.391  68.071  1.00  0.00    -0.260 F  
HETATM   20  F   UNL     1      -9.572   9.525  69.572  1.00  0.00    -0.154 F  
HETATM   21  C   UNL     1     -11.692  14.037  69.725  1.00  0.00    -0.313 C  
HETATM   22  H   UNL     1     -12.762  13.460  71.366  1.00  0.00     0.000 HD 
HETATM   23  O   UNL     1     -12.002  15.222  69.835  1.00  0.00    -0.304 OA 
ENDBRANCH   6  11
ENDBRANCH   3   4
TORSDOF 2
ENDMDL
MODEL       98
REMARK 921   NORMALIZED FREE ENERGY PREDICTED BY IDOCK:   -4.80 KCAL/MOL
REMARK 922        TOTAL FREE ENERGY PREDICTED BY IDOCK:   -5.80 KCAL/MOL
REMARK 923 INTER-LIGAND FREE ENERGY PREDICTED BY IDOCK:   -5.58 KCAL/MOL
REMARK 924 INTRA-LIGAND FREE ENERGY PREDICTED BY IDOCK:   -0.21 KCAL/MOL
REMARK 927      BINDING AFFINITY PREDICTED BY RF-SCORE:    0.00 PKD
ROOT
HETATM    1  O5* UNL     1      -9.356   4.375  73.640  1.00  0.00    -0.113 OA 
HETATM    2  H5* UNL     1      -8.596   4.231  74.190  1.00  0.00     0.000 HD 
HETATM    3  C5* UNL     1      -9.269   5.617  72.942  1.00  0.00    -0.135 C  
ENDROOT
BRANCH   3   4
HETATM    4  C4* UNL     1     -10.491   5.849  72.055  1.00  0.00    -0.214 C  
HETATM    5  O4* UNL     1     -11.122   7.107  72.354  1.00  0.00    -0.243 OA 
HETATM    6  C1* UNL     1     -11.910   7.423  71.197  1.00  0.00    -0.301 C  
HETATM    7  C2* UNL     1     -11.098   6.945  69.997  1.00  0.00    -0.344 C  
HETATM    8  H3* UNL     1     -10.217   4.637  69.043  1.00  0.00     0.000 HD 
HETATM    9  O3* UNL     1     -10.416   4.614  69.971  1.00  0.00    -0.116 OA 
HETATM   10  C3* UNL     1     -10.171   5.886  70.563  1.00  0.00    -0.211 C  
BRANCH   6  11
HETATM   11  N   UNL     1     -12.275   8.839  71.158  1.00  0.00    -0.276 N  
HETATM   12  C   UNL     1     -11.746   9.705  70.216  1.00  0.00    -0.155 C  
HETATM   13  C   UNL     1     -11.364  11.963  69.254  1.00  0.00    -0.277 C  
HETATM   14  C   UNL     1     -11.965  11.029  70.237  1.00  0.00    -0.452 C  
HETATM   15  C   UNL     1     -12.811  11.569  71.307  1.00  0.00    -0.360 C  
HETATM   16  O   UNL     1     -13.024  12.764  71.465  1.00  0.00    -0.377 OA 
HETATM   17  N   UNL     1     -13.359  10.646  72.157  1.00  0.00    -0.580 N  
HETATM   18  F   UNL     1     -11.582  13.281  69.471  1.00  0.00    -0.302 F  
HETATM   19  F   UNL     1     -10.012  11.808  69.202  1.00  0.00    -0.147 F  
HETATM   20  F   UNL     1     -11.816  11.702  67.997  1.00  0.00    -0.360 F  
HETATM   21  C   UNL     1     -13.093   9.303  72.179  1.00  0.00    -0.443 C  
HETATM   22  H   UNL     1     -14.031  10.993  72.842  1.00  0.00     0.000 HD 
HETATM   23  O   UNL     1     -13.558   8.595  73.070  1.00  0.00    -0.179 OA 
ENDBRANCH   6  11
ENDBRANCH   3   4
TORSDOF 2
ENDMDL
MODEL       99
REMARK 921   NORMALIZED FREE ENERGY PREDICTED BY IDOCK:   -4.75 KCAL/MOL
REMARK 922        TOTAL FREE ENERGY PREDICTED BY IDOCK:   -5.74 KCAL/MOL
REMARK 923 INTER-LIGAND FREE ENERGY PREDICTED BY IDOCK:   -5.32 KCAL/MOL
REMARK 924 INTRA-LIGAND FREE ENERGY PREDICTED BY IDOCK:   -0.41 KCAL/MOL
REMARK 927      BINDING AFFINITY PREDICTED BY RF-SCORE:    0.00 PKD
ROOT
HETATM    1  O5* UNL     1      -7.629  14.395  69.587  1.00  0.00    -0.363 OA 
HETATM    2  H5* UNL     1      -6.875  14.782  70.015  1.00  0.00     0.000 HD 
HETATM    3  C5* UNL     1      -8.652  15.362  69.354  1.00  0.00    -0.249 C  
ENDROOT
BRANCH   3   4
HETATM    4  C4* UNL     1      -9.865  14.739  68.665  1.00  0.00    -0.225 C  
HETATM    5  O4* UNL     1      -9.640  13.350  68.368  1.00  0.00    -0.217 OA 
HETATM    6  C1* UNL     1     -10.946  12.782  68.187  1.00  0.00    -0.247 C  
HETATM    7  C2* UNL     1     -11.848  13.480  69.201  1.00  0.00    -0.386 C  
HETATM    8  H3* UNL     1     -12.731  15.935  69.649  1.00  0.00     0.000 HD 
HETATM    9  O3* UNL     1     -11.938  15.906  69.127  1.00  0.00    -0.380 OA 
HETATM   10  C3* UNL     1     -11.140  14.787  69.503  1.00  0.00    -0.279 C  
BRANCH   6  11
HETATM   11  N   UNL     1     -10.925  11.324  68.294  1.00  0.00    -0.205 N  
HETATM   12  C   UNL     1     -11.161  10.676  69.495  1.00  0.00    -0.272 C  
HETATM   13  C   UNL     1     -11.233   8.660  70.945  1.00  0.00    -0.267 C  
HETATM   14  C   UNL     1     -11.023   9.350  69.648  1.00  0.00    -0.216 C  
HETATM   15  C   UNL     1     -10.611   8.562  68.482  1.00  0.00    -0.111 C  
HETATM   16  O   UNL     1     -10.388   7.359  68.520  1.00  0.00    -0.190 OA 
HETATM   17  N   UNL     1     -10.468   9.259  67.312  1.00  0.00    -0.266 N  
HETATM   18  F   UNL     1     -10.944   7.338  70.972  1.00  0.00    -0.245 F  
HETATM   19  F   UNL     1     -10.480   9.231  71.925  1.00  0.00    -0.399 F  
HETATM   20  F   UNL     1     -12.526   8.778  71.353  1.00  0.00    -0.310 F  
HETATM   21  C   UNL     1     -10.548  10.617  67.160  1.00  0.00    -0.260 C  
HETATM   22  H   UNL     1     -10.283   8.713  66.470  1.00  0.00     0.000 HD 
HETATM   23  O   UNL     1     -10.282  11.136  66.078  1.00  0.00    -0.234 OA 
ENDBRANCH   6  11
ENDBRANCH   3   4
TORSDOF 2
ENDMDL
MODEL      100
REMARK 921   NORMALIZED FREE ENERGY PREDICTED BY IDOCK:   -4.73 KCAL/MOL
REMARK 922        TOTAL FREE ENERGY PREDICTED BY IDOCK:   -5.72 KCAL/MOL
REMARK 923 INTER-LIGAND FREE ENERGY PREDICTED BY IDOCK:   -5.25 KCAL/MOL
REMARK 924 INTRA-LIGAND FREE ENERGY PREDICTED BY IDOCK:   -0.47 KCAL/MOL
REMARK 927      BINDING AFFINITY PREDICTED BY RF-SCORE:    0.00 PKD
ROOT
HETATM    1  O5* UNL     1      -7.818  11.001  63.696  1.00  0.00    -0.329 OA 
HETATM    2  H5* UNL     1      -7.045  10.484  63.502  1.00  0.00     0.000 HD 
HETATM    3  C5* UNL     1      -8.655  10.352  64.652  1.00  0.00    -0.185 C  
ENDROOT
BRANCH   3   4
HETATM    4  C4* UNL     1      -9.898  11.185  64.964  1.00  0.00    -0.266 C  
HETATM    5  O4* UNL     1      -9.659  12.088  66.058  1.00  0.00    -0.232 OA 
HETATM    6  C1* UNL     1     -10.670  13.102  65.942  1.00  0.00    -0.274 C  
HETATM    7  C2* UNL     1     -10.858  13.333  64.445  1.00  0.00    -0.422 C  
HETATM    8  H3* UNL     1     -11.698  11.942  62.356  1.00  0.00     0.000 HD 
HETATM    9  O3* UNL     1     -11.408  11.401  63.081  1.00  0.00    -0.176 OA 
HETATM   10  C3* UNL     1     -10.364  12.053  63.798  1.00  0.00    -0.426 C  
BRANCH   6  11
HETATM   11  N   UNL     1     -10.325  14.302  66.704  1.00  0.00    -0.275 N  
HETATM   12  C   UNL     1      -9.228  15.082  66.382  1.00  0.00    -0.295 C  
HETATM   13  C   UNL     1      -7.617  16.922  66.817  1.00  0.00    -0.245 C  
HETATM   14  C   UNL     1      -8.817  16.112  67.138  1.00  0.00    -0.218 C  
HETATM   15  C   UNL     1      -9.579  16.419  68.353  1.00  0.00    -0.219 C  
HETATM   16  O   UNL     1      -9.259  17.290  69.152  1.00  0.00    -0.164 OA 
HETATM   17  N   UNL     1     -10.693  15.653  68.568  1.00  0.00    -0.253 N  
HETATM   18  F   UNL     1      -7.261  17.852  67.733  1.00  0.00    -0.194 F  
HETATM   19  F   UNL     1      -6.526  16.125  66.646  1.00  0.00    -0.181 F  
HETATM   20  F   UNL     1      -7.779  17.586  65.640  1.00  0.00    -0.252 F  
HETATM   21  C   UNL     1     -11.085  14.565  67.836  1.00  0.00    -0.279 C  
HETATM   22  H   UNL     1     -11.291  15.920  69.351  1.00  0.00     0.000 HD 
HETATM   23  O   UNL     1     -12.042  13.885  68.201  1.00  0.00    -0.365 OA 
ENDBRANCH   6  11
ENDBRANCH   3   4
TORSDOF 2
ENDMDL
MODEL      101
REMARK 921   NORMALIZED FREE ENERGY PREDICTED BY IDOCK:   -4.72 KCAL/MOL
REMARK 922        TOTAL FREE ENERGY PREDICTED BY IDOCK:   -5.71 KCAL/MOL
REMARK 923 INTER-LIGAND FREE ENERGY PREDICTED BY IDOCK:   -5.45 KCAL/MOL
REMARK 924 INTRA-LIGAND FREE ENERGY PREDICTED BY IDOCK:   -0.26 KCAL/MOL
REMARK 927      BINDING AFFINITY PREDICTED BY RF-SCORE:    0.00 PKD
ROOT
HETATM    1  O5* UNL     1     -13.232  15.548  71.354  1.00  0.00    -0.467 OA 
HETATM    2  H5* UNL     1     -13.397  15.634  72.286  1.00  0.00     0.000 HD 
HETATM    3  C5* UNL     1     -12.505  14.357  71.059  1.00  0.00    -0.355 C  
ENDROOT
BRANCH   3   4
HETATM    4  C4* UNL     1     -12.239  14.219  69.561  1.00  0.00    -0.297 C  
HETATM    5  O4* UNL     1     -11.573  15.384  69.040  1.00  0.00    -0.306 OA 
HETATM    6  C1* UNL     1     -10.968  14.958  67.809  1.00  0.00    -0.293 C  
HETATM    7  C2* UNL     1     -10.492  13.528  68.052  1.00  0.00    -0.245 C  
HETATM    8  H3* UNL     1     -11.592  11.180  68.583  1.00  0.00     0.000 HD 
HETATM    9  O3* UNL     1     -12.146  11.918  68.807  1.00  0.00    -0.303 OA 
HETATM   10  C3* UNL     1     -11.350  13.032  69.200  1.00  0.00    -0.273 C  
BRANCH   6  11
HETATM   11  N   UNL     1      -9.922  15.881  67.371  1.00  0.00    -0.236 N  
HETATM   12  C   UNL     1      -9.391  16.840  68.217  1.00  0.00    -0.230 C  
HETATM   13  C   UNL     1      -7.989  18.832  68.700  1.00  0.00    -0.336 C  
HETATM   14  C   UNL     1      -8.525  17.778  67.805  1.00  0.00    -0.236 C  
HETATM   15  C   UNL     1      -8.123  17.772  66.394  1.00  0.00    -0.261 C  
HETATM   16  O   UNL     1      -7.394  18.617  65.892  1.00  0.00    -0.362 OA 
HETATM   17  N   UNL     1      -8.630  16.751  65.635  1.00  0.00     0.242 N  
HETATM   18  F   UNL     1      -7.216  19.777  68.116  1.00  0.00    -0.295 F  
HETATM   19  F   UNL     1      -9.000  19.503  69.319  1.00  0.00    -0.374 F  
HETATM   20  F   UNL     1      -7.239  18.288  69.697  1.00  0.00    -0.125 F  
HETATM   21  C   UNL     1      -9.559  15.827  66.032  1.00  0.00    -0.353 C  
HETATM   22  H   UNL     1      -8.281  16.671  64.680  1.00  0.00     0.000 HD 
HETATM   23  O   UNL     1     -10.026  15.030  65.220  1.00  0.00    -0.341 OA 
ENDBRANCH   6  11
ENDBRANCH   3   4
TORSDOF 2
ENDMDL
MODEL      102
REMARK 921   NORMALIZED FREE ENERGY PREDICTED BY IDOCK:   -4.70 KCAL/MOL
REMARK 922        TOTAL FREE ENERGY PREDICTED BY IDOCK:   -5.68 KCAL/MOL
REMARK 923 INTER-LIGAND FREE ENERGY PREDICTED BY IDOCK:   -5.30 KCAL/MOL
REMARK 924 INTRA-LIGAND FREE ENERGY PREDICTED BY IDOCK:   -0.39 KCAL/MOL
REMARK 927      BINDING AFFINITY PREDICTED BY RF-SCORE:    0.00 PKD
ROOT
HETATM    1  O5* UNL     1      -5.995  10.337  67.923  1.00  0.00    -0.042 OA 
HETATM    2  H5* UNL     1      -5.073  10.523  67.793  1.00  0.00     0.000 HD 
HETATM    3  C5* UNL     1      -6.333   9.026  67.473  1.00  0.00    -0.063 C  
ENDROOT
BRANCH   3   4
HETATM    4  C4* UNL     1      -7.817   8.728  67.683  1.00  0.00    -0.102 C  
HETATM    5  O4* UNL     1      -8.595   9.938  67.698  1.00  0.00    -0.121 OA 
HETATM    6  C1* UNL     1      -9.943   9.528  67.419  1.00  0.00    -0.189 C  
HETATM    7  C2* UNL     1      -9.831   8.395  66.402  1.00  0.00    -0.310 C  
HETATM    8  H3* UNL     1      -8.833   5.944  66.327  1.00  0.00     0.000 HD 
HETATM    9  O3* UNL     1      -8.453   6.489  67.006  1.00  0.00    -0.112 OA 
HETATM   10  C3* UNL     1      -8.428   7.852  66.592  1.00  0.00    -0.131 C  
BRANCH   6  11
HETATM   11  N   UNL     1     -10.774  10.652  66.988  1.00  0.00    -0.266 N  
HETATM   12  C   UNL     1     -10.973  10.943  65.650  1.00  0.00     0.038 C  
HETATM   13  C   UNL     1     -11.800  12.375  63.796  1.00  0.00    -0.502 C  
HETATM   14  C   UNL     1     -11.624  12.039  65.230  1.00  0.00    -0.337 C  
HETATM   15  C   UNL     1     -12.151  12.957  66.245  1.00  0.00    -0.365 C  
HETATM   16  O   UNL     1     -12.701  14.018  65.980  1.00  0.00    -0.475 OA 
HETATM   17  N   UNL     1     -11.981  12.567  67.547  1.00  0.00    -0.306 N  
HETATM   18  F   UNL     1     -12.376  13.570  63.528  1.00  0.00    -0.522 F  
HETATM   19  F   UNL     1     -10.602  12.381  63.149  1.00  0.00    -0.444 F  
HETATM   20  F   UNL     1     -12.557  11.435  63.166  1.00  0.00    -0.558 F  
HETATM   21  C   UNL     1     -11.268  11.484  67.984  1.00  0.00    -0.269 C  
HETATM   22  H   UNL     1     -12.432  13.140  68.261  1.00  0.00     0.000 HD 
HETATM   23  O   UNL     1     -11.089  11.306  69.187  1.00  0.00    -0.220 OA 
ENDBRANCH   6  11
ENDBRANCH   3   4
TORSDOF 2
ENDMDL
MODEL      103
REMARK 921   NORMALIZED FREE ENERGY PREDICTED BY IDOCK:   -4.70 KCAL/MOL
REMARK 922        TOTAL FREE ENERGY PREDICTED BY IDOCK:   -5.68 KCAL/MOL
REMARK 923 INTER-LIGAND FREE ENERGY PREDICTED BY IDOCK:   -5.12 KCAL/MOL
REMARK 924 INTRA-LIGAND FREE ENERGY PREDICTED BY IDOCK:   -0.56 KCAL/MOL
REMARK 927      BINDING AFFINITY PREDICTED BY RF-SCORE:    0.00 PKD
ROOT
HETATM    1  O5* UNL     1     -12.288  10.502  71.946  1.00  0.00    -0.269 OA 
HETATM    2  H5* UNL     1     -13.074  10.742  72.421  1.00  0.00     0.000 HD 
HETATM    3  C5* UNL     1     -12.577   9.606  70.873  1.00  0.00    -0.219 C  
ENDROOT
BRANCH   3   4
HETATM    4  C4* UNL     1     -11.312   9.222  70.108  1.00  0.00    -0.164 C  
HETATM    5  O4* UNL     1     -11.500   9.357  68.688  1.00  0.00     0.204 OA 
HETATM    6  C1* UNL     1     -10.178   9.443  68.135  1.00  0.00    -0.200 C  
HETATM    7  C2* UNL     1      -9.358  10.246  69.141  1.00  0.00    -0.214 C  
HETATM    8  H3* UNL     1      -8.535   9.966  71.641  1.00  0.00     0.000 HD 
HETATM    9  O3* UNL     1      -9.290   9.430  71.427  1.00  0.00    -0.265 OA 
HETATM   10  C3* UNL     1     -10.100  10.083  70.453  1.00  0.00    -0.106 C  
BRANCH   6  11
HETATM   11  N   UNL     1     -10.190   9.996  66.781  1.00  0.00    -0.227 N  
HETATM   12  C   UNL     1     -10.816  11.195  66.487  1.00  0.00    -0.245 C  
HETATM   13  C   UNL     1     -11.659  12.924  64.915  1.00  0.00    -0.327 C  
HETATM   14  C   UNL     1     -10.951  11.660  65.235  1.00  0.00    -0.327 C  
HETATM   15  C   UNL     1     -10.400  10.856  64.139  1.00  0.00    -0.364 C  
HETATM   16  O   UNL     1     -10.523  11.146  62.956  1.00  0.00    -0.261 OA 
HETATM   17  N   UNL     1      -9.732   9.720  64.511  1.00  0.00    -0.417 N  
HETATM   18  F   UNL     1     -11.816  13.205  63.600  1.00  0.00    -0.449 F  
HETATM   19  F   UNL     1     -12.910  12.929  65.453  1.00  0.00    -0.539 F  
HETATM   20  F   UNL     1     -11.015  13.993  65.460  1.00  0.00    -0.292 F  
HETATM   21  C   UNL     1      -9.641   9.209  65.778  1.00  0.00    -0.253 C  
HETATM   22  H   UNL     1      -9.254   9.205  63.772  1.00  0.00     0.000 HD 
HETATM   23  O   UNL     1      -9.112   8.115  65.967  1.00  0.00    -0.183 OA 
ENDBRANCH   6  11
ENDBRANCH   3   4
TORSDOF 2
ENDMDL
MODEL      104
REMARK 921   NORMALIZED FREE ENERGY PREDICTED BY IDOCK:   -4.69 KCAL/MOL
REMARK 922        TOTAL FREE ENERGY PREDICTED BY IDOCK:   -5.67 KCAL/MOL
REMARK 923 INTER-LIGAND FREE ENERGY PREDICTED BY IDOCK:   -5.26 KCAL/MOL
REMARK 924 INTRA-LIGAND FREE ENERGY PREDICTED BY IDOCK:   -0.41 KCAL/MOL
REMARK 927      BINDING AFFINITY PREDICTED BY RF-SCORE:    0.00 PKD
ROOT
HETATM    1  O5* UNL     1     -12.104  11.675  62.962  1.00  0.00    -0.915 OA 
HETATM    2  H5* UNL     1     -11.840  11.424  62.085  1.00  0.00     0.000 HD 
HETATM    3  C5* UNL     1     -11.097  12.453  63.609  1.00  0.00    -0.473 C  
ENDROOT
BRANCH   3   4
HETATM    4  C4* UNL     1     -11.522  12.857  65.020  1.00  0.00    -0.315 C  
HETATM    5  O4* UNL     1     -11.263  11.803  65.965  1.00  0.00    -0.322 OA 
HETATM    6  C1* UNL     1     -11.242  12.441  67.251  1.00  0.00    -0.303 C  
HETATM    7  C2* UNL     1     -10.587  13.802  67.029  1.00  0.00    -0.278 C  
HETATM    8  H3* UNL     1     -11.125  16.021  65.688  1.00  0.00     0.000 HD 
HETATM    9  O3* UNL     1     -11.580  15.256  65.356  1.00  0.00    -0.243 OA 
HETATM   10  C3* UNL     1     -10.791  14.086  65.553  1.00  0.00    -0.309 C  
BRANCH   6  11
HETATM   11  N   UNL     1     -10.587  11.609  68.259  1.00  0.00    -0.197 N  
HETATM   12  C   UNL     1      -9.229  11.345  68.220  1.00  0.00    -0.183 C  
HETATM   13  C   UNL     1      -7.180  10.168  68.987  1.00  0.00    -0.076 C  
HETATM   14  C   UNL     1      -8.628  10.484  69.056  1.00  0.00    -0.160 C  
HETATM   15  C   UNL     1      -9.457   9.806  70.058  1.00  0.00    -0.238 C  
HETATM   16  O   UNL     1      -9.031   8.954  70.827  1.00  0.00    -0.170 OA 
HETATM   17  N   UNL     1     -10.776  10.172  70.086  1.00  0.00    -0.291 N  
HETATM   18  F   UNL     1      -6.740   9.195  69.819  1.00  0.00    -0.044 F  
HETATM   19  F   UNL     1      -6.830   9.775  67.731  1.00  0.00    -0.075 F  
HETATM   20  F   UNL     1      -6.428  11.270  69.255  1.00  0.00    -0.056 F  
HETATM   21  C   UNL     1     -11.408  11.002  69.200  1.00  0.00    -0.280 C  
HETATM   22  H   UNL     1     -11.344   9.789  70.843  1.00  0.00     0.000 HD 
HETATM   23  O   UNL     1     -12.626  11.160  69.261  1.00  0.00    -0.336 OA 
ENDBRANCH   6  11
ENDBRANCH   3   4
TORSDOF 2
ENDMDL
MODEL      105
REMARK 921   NORMALIZED FREE ENERGY PREDICTED BY IDOCK:   -4.66 KCAL/MOL
REMARK 922        TOTAL FREE ENERGY PREDICTED BY IDOCK:   -5.64 KCAL/MOL
REMARK 923 INTER-LIGAND FREE ENERGY PREDICTED BY IDOCK:   -5.75 KCAL/MOL
REMARK 924 INTRA-LIGAND FREE ENERGY PREDICTED BY IDOCK:    0.11 KCAL/MOL
REMARK 927      BINDING AFFINITY PREDICTED BY RF-SCORE:    0.00 PKD
ROOT
HETATM    1  O5* UNL     1      -9.222  10.308  67.384  1.00  0.00    -0.141 OA 
HETATM    2  H5* UNL     1      -8.579   9.609  67.344  1.00  0.00     0.000 HD 
HETATM    3  C5* UNL     1      -8.679  11.485  67.980  1.00  0.00    -0.151 C  
ENDROOT
BRANCH   3   4
HETATM    4  C4* UNL     1      -9.713  12.608  68.045  1.00  0.00    -0.215 C  
HETATM    5  O4* UNL     1      -9.081  13.889  68.218  1.00  0.00    -0.184 OA 
HETATM    6  C1* UNL     1     -10.054  14.855  67.791  1.00  0.00    -0.234 C  
HETATM    7  C2* UNL     1     -10.777  14.221  66.605  1.00  0.00    -0.290 C  
HETATM    8  H3* UNL     1     -12.338  12.127  66.175  1.00  0.00     0.000 HD 
HETATM    9  O3* UNL     1     -11.807  12.051  66.959  1.00  0.00    -0.573 OA 
HETATM   10  C3* UNL     1     -10.567  12.730  66.785  1.00  0.00    -0.252 C  
BRANCH   6  11
HETATM   11  N   UNL     1      -9.444  16.153  67.508  1.00  0.00    -0.222 N  
HETATM   12  C   UNL     1     -10.115  17.342  67.736  1.00  0.00    -0.323 C  
HETATM   13  C   UNL     1     -10.366  19.808  67.574  1.00  0.00    -0.440 C  
HETATM   14  C   UNL     1      -9.628  18.537  67.368  1.00  0.00    -0.307 C  
HETATM   15  C   UNL     1      -8.322  18.573  66.701  1.00  0.00    -0.272 C  
HETATM   16  O   UNL     1      -7.812  19.596  66.262  1.00  0.00    -0.291 OA 
HETATM   17  N   UNL     1      -7.685  17.367  66.576  1.00  0.00    -0.257 N  
HETATM   18  F   UNL     1      -9.801  20.919  67.046  1.00  0.00    -0.599 F  
HETATM   19  F   UNL     1     -11.617  19.734  67.042  1.00  0.00    -0.292 F  
HETATM   20  F   UNL     1     -10.540  20.060  68.900  1.00  0.00    -0.505 F  
HETATM   21  C   UNL     1      -8.198  16.139  66.894  1.00  0.00    -0.238 C  
HETATM   22  H   UNL     1      -6.733  17.387  66.209  1.00  0.00     0.000 HD 
HETATM   23  O   UNL     1      -7.571  15.117  66.623  1.00  0.00     0.038 OA 
ENDBRANCH   6  11
ENDBRANCH   3   4
TORSDOF 2
ENDMDL
MODEL      106
REMARK 921   NORMALIZED FREE ENERGY PREDICTED BY IDOCK:   -4.64 KCAL/MOL
REMARK 922        TOTAL FREE ENERGY PREDICTED BY IDOCK:   -5.61 KCAL/MOL
REMARK 923 INTER-LIGAND FREE ENERGY PREDICTED BY IDOCK:   -6.30 KCAL/MOL
REMARK 924 INTRA-LIGAND FREE ENERGY PREDICTED BY IDOCK:    0.69 KCAL/MOL
REMARK 927      BINDING AFFINITY PREDICTED BY RF-SCORE:    0.00 PKD
ROOT
HETATM    1  O5* UNL     1     -12.965  15.895  74.024  1.00  0.00    -0.752 OA 
HETATM    2  H5* UNL     1     -12.553  16.462  74.665  1.00  0.00     0.000 HD 
HETATM    3  C5* UNL     1     -12.410  16.085  72.723  1.00  0.00    -0.507 C  
ENDROOT
BRANCH   3   4
HETATM    4  C4* UNL     1     -13.073  15.173  71.693  1.00  0.00    -0.388 C  
HETATM    5  O4* UNL     1     -12.400  15.244  70.423  1.00  0.00    -0.333 OA 
HETATM    6  C1* UNL     1     -12.779  14.049  69.723  1.00  0.00     0.077 C  
HETATM    7  C2* UNL     1     -12.853  12.953  70.782  1.00  0.00    -0.128 C  
HETATM    8  H3* UNL     1     -14.307  12.422  72.930  1.00  0.00     0.000 HD 
HETATM    9  O3* UNL     1     -14.310  13.340  72.686  1.00  0.00    -0.679 OA 
HETATM   10  C3* UNL     1     -13.068  13.697  72.085  1.00  0.00    -0.396 C  
BRANCH   6  11
HETATM   11  N   UNL     1     -11.873  13.761  68.611  1.00  0.00    -0.357 N  
HETATM   12  C   UNL     1     -11.446  14.749  67.741  1.00  0.00    -0.345 C  
HETATM   13  C   UNL     1     -10.299  15.542  65.686  1.00  0.00    -0.384 C  
HETATM   14  C   UNL     1     -10.720  14.490  66.642  1.00  0.00    -0.305 C  
HETATM   15  C   UNL     1     -10.362  13.094  66.367  1.00  0.00    -0.287 C  
HETATM   16  O   UNL     1      -9.763  12.733  65.363  1.00  0.00    -0.178 OA 
HETATM   17  N   UNL     1     -10.756  12.182  67.310  1.00  0.00    -0.223 N  
HETATM   18  F   UNL     1      -9.671  15.116  64.565  1.00  0.00    -0.016 F  
HETATM   19  F   UNL     1     -11.369  16.271  65.264  1.00  0.00    -0.199 F  
HETATM   20  F   UNL     1      -9.457  16.431  66.281  1.00  0.00    -0.259 F  
HETATM   21  C   UNL     1     -11.546  12.428  68.399  1.00  0.00    -0.324 C  
HETATM   22  H   UNL     1     -10.427  11.224  67.187  1.00  0.00     0.000 HD 
HETATM   23  O   UNL     1     -11.929  11.500  69.108  1.00  0.00    -0.321 OA 
ENDBRANCH   6  11
ENDBRANCH   3   4
TORSDOF 2
ENDMDL
MODEL      107
REMARK 921   NORMALIZED FREE ENERGY PREDICTED BY IDOCK:   -4.64 KCAL/MOL
REMARK 922        TOTAL FREE ENERGY PREDICTED BY IDOCK:   -5.61 KCAL/MOL
REMARK 923 INTER-LIGAND FREE ENERGY PREDICTED BY IDOCK:   -5.85 KCAL/MOL
REMARK 924 INTRA-LIGAND FREE ENERGY PREDICTED BY IDOCK:    0.24 KCAL/MOL
REMARK 927      BINDING AFFINITY PREDICTED BY RF-SCORE:    0.00 PKD
ROOT
HETATM    1  O5* UNL     1      -8.061   8.809  72.054  1.00  0.00    -0.315 OA 
HETATM    2  H5* UNL     1      -7.436   8.115  72.225  1.00  0.00     0.000 HD 
HETATM    3  C5* UNL     1      -8.546   8.758  70.712  1.00  0.00    -0.187 C  
ENDROOT
BRANCH   3   4
HETATM    4  C4* UNL     1      -9.552   9.875  70.438  1.00  0.00    -0.056 C  
HETATM    5  O4* UNL     1      -9.323  10.479  69.152  1.00  0.00    -0.194 OA 
HETATM    6  C1* UNL     1     -10.556  11.133  68.813  1.00  0.00    -0.202 C  
HETATM    7  C2* UNL     1     -11.666  10.224  69.334  1.00  0.00    -0.166 C  
HETATM    8  H3* UNL     1     -12.517   9.349  71.683  1.00  0.00     0.000 HD 
HETATM    9  O3* UNL     1     -11.613   9.641  71.691  1.00  0.00    -0.382 OA 
HETATM   10  C3* UNL     1     -11.005   9.404  70.425  1.00  0.00    -0.266 C  
BRANCH   6  11
HETATM   11  N   UNL     1     -10.636  11.433  67.384  1.00  0.00    -0.208 N  
HETATM   12  C   UNL     1     -11.232  12.590  66.912  1.00  0.00    -0.303 C  
HETATM   13  C   UNL     1     -12.110  14.048  65.103  1.00  0.00    -0.410 C  
HETATM   14  C   UNL     1     -11.432  12.828  65.607  1.00  0.00    -0.379 C  
HETATM   15  C   UNL     1     -10.987  11.813  64.646  1.00  0.00    -0.310 C  
HETATM   16  O   UNL     1     -11.177  11.892  63.439  1.00  0.00    -0.401 OA 
HETATM   17  N   UNL     1     -10.340  10.731  65.180  1.00  0.00    -0.289 N  
HETATM   18  F   UNL     1     -12.343  14.095  63.770  1.00  0.00    -0.511 F  
HETATM   19  F   UNL     1     -13.321  14.212  65.703  1.00  0.00    -0.541 F  
HETATM   20  F   UNL     1     -11.391  15.163  65.405  1.00  0.00    -0.339 F  
HETATM   21  C   UNL     1     -10.185  10.452  66.511  1.00  0.00    -0.229 C  
HETATM   22  H   UNL     1      -9.933  10.067  64.521  1.00  0.00     0.000 HD 
HETATM   23  O   UNL     1      -9.688   9.384  66.866  1.00  0.00    -0.163 OA 
ENDBRANCH   6  11
ENDBRANCH   3   4
TORSDOF 2
ENDMDL
MODEL      108
REMARK 921   NORMALIZED FREE ENERGY PREDICTED BY IDOCK:   -4.63 KCAL/MOL
REMARK 922        TOTAL FREE ENERGY PREDICTED BY IDOCK:   -5.60 KCAL/MOL
REMARK 923 INTER-LIGAND FREE ENERGY PREDICTED BY IDOCK:   -5.52 KCAL/MOL
REMARK 924 INTRA-LIGAND FREE ENERGY PREDICTED BY IDOCK:   -0.09 KCAL/MOL
REMARK 927      BINDING AFFINITY PREDICTED BY RF-SCORE:    0.00 PKD
ROOT
HETATM    1  O5* UNL     1      -6.633  13.017  68.704  1.00  0.00    -0.079 OA 
HETATM    2  H5* UNL     1      -5.721  12.838  68.897  1.00  0.00     0.000 HD 
HETATM    3  C5* UNL     1      -6.945  12.734  67.340  1.00  0.00    -0.129 C  
ENDROOT
BRANCH   3   4
HETATM    4  C4* UNL     1      -8.413  13.021  67.030  1.00  0.00    -0.136 C  
HETATM    5  O4* UNL     1      -9.283  12.130  67.751  1.00  0.00    -0.176 OA 
HETATM    6  C1* UNL     1     -10.564  12.777  67.766  1.00  0.00    -0.221 C  
HETATM    7  C2* UNL     1     -10.276  14.268  67.914  1.00  0.00    -0.237 C  
HETATM    8  H3* UNL     1      -9.085  16.166  66.503  1.00  0.00     0.000 HD 
HETATM    9  O3* UNL     1      -8.809  15.288  66.268  1.00  0.00    -0.297 OA 
HETATM   10  C3* UNL     1      -8.856  14.433  67.407  1.00  0.00    -0.203 C  
BRANCH   6  11
HETATM   11  N   UNL     1     -11.441  12.222  68.797  1.00  0.00    -0.285 N  
HETATM   12  C   UNL     1     -11.981  13.010  69.798  1.00  0.00    -0.308 C  
HETATM   13  C   UNL     1     -13.225  13.345  71.923  1.00  0.00    -0.431 C  
HETATM   14  C   UNL     1     -12.682  12.506  70.826  1.00  0.00    -0.209 C  
HETATM   15  C   UNL     1     -12.886  11.054  70.873  1.00  0.00    -0.301 C  
HETATM   16  O   UNL     1     -13.450  10.478  71.794  1.00  0.00    -0.338 OA 
HETATM   17  N   UNL     1     -12.387  10.348  69.811  1.00  0.00    -0.538 N  
HETATM   18  F   UNL     1     -13.810  12.683  72.948  1.00  0.00    -0.369 F  
HETATM   19  F   UNL     1     -12.245  14.109  72.479  1.00  0.00    -0.266 F  
HETATM   20  F   UNL     1     -14.156  14.219  71.451  1.00  0.00    -0.417 F  
HETATM   21  C   UNL     1     -11.621  10.845  68.792  1.00  0.00    -0.309 C  
HETATM   22  H   UNL     1     -12.609   9.353  69.776  1.00  0.00     0.000 HD 
HETATM   23  O   UNL     1     -11.132  10.086  67.958  1.00  0.00    -0.266 OA 
ENDBRANCH   6  11
ENDBRANCH   3   4
TORSDOF 2
ENDMDL
MODEL      109
REMARK 921   NORMALIZED FREE ENERGY PREDICTED BY IDOCK:   -4.59 KCAL/MOL
REMARK 922        TOTAL FREE ENERGY PREDICTED BY IDOCK:   -5.56 KCAL/MOL
REMARK 923 INTER-LIGAND FREE ENERGY PREDICTED BY IDOCK:   -5.82 KCAL/MOL
REMARK 924 INTRA-LIGAND FREE ENERGY PREDICTED BY IDOCK:    0.26 KCAL/MOL
REMARK 927      BINDING AFFINITY PREDICTED BY RF-SCORE:    0.00 PKD
ROOT
HETATM    1  O5* UNL     1     -12.536  14.671  64.201  1.00  0.00    -0.743 OA 
HETATM    2  H5* UNL     1     -13.285  15.252  64.146  1.00  0.00     0.000 HD 
HETATM    3  C5* UNL     1     -12.409  14.104  65.505  1.00  0.00    -0.458 C  
ENDROOT
BRANCH   3   4
HETATM    4  C4* UNL     1     -11.204  13.169  65.594  1.00  0.00    -0.283 C  
HETATM    5  O4* UNL     1     -11.120  12.548  66.889  1.00  0.00    -0.255 OA 
HETATM    6  C1* UNL     1     -10.294  11.388  66.703  1.00  0.00    -0.233 C  
HETATM    7  C2* UNL     1     -10.652  10.839  65.325  1.00  0.00    -0.230 C  
HETATM    8  H3* UNL     1     -10.477  11.643  62.808  1.00  0.00     0.000 HD 
HETATM    9  O3* UNL     1     -10.457  12.355  63.437  1.00  0.00    -0.426 OA 
HETATM   10  C3* UNL     1     -11.237  12.026  64.583  1.00  0.00    -0.326 C  
BRANCH   6  11
HETATM   11  N   UNL     1     -10.447  10.430  67.797  1.00  0.00    -0.209 N  
HETATM   12  C   UNL     1     -10.366   9.064  67.590  1.00  0.00    -0.257 C  
HETATM   13  C   UNL     1     -10.584   6.699  68.317  1.00  0.00    -0.241 C  
HETATM   14  C   UNL     1     -10.629   8.163  68.549  1.00  0.00    -0.142 C  
HETATM   15  C   UNL     1     -11.009   8.661  69.875  1.00  0.00    -0.168 C  
HETATM   16  O   UNL     1     -11.335   7.935  70.805  1.00  0.00    -0.273 OA 
HETATM   17  N   UNL     1     -10.997  10.022  70.026  1.00  0.00    -0.278 N  
HETATM   18  F   UNL     1     -10.985   5.917  69.346  1.00  0.00    -0.335 F  
HETATM   19  F   UNL     1     -11.364   6.352  67.255  1.00  0.00    -0.412 F  
HETATM   20  F   UNL     1      -9.323   6.296  67.998  1.00  0.00    -0.119 F  
HETATM   21  C   UNL     1     -10.789  10.948  69.040  1.00  0.00    -0.230 C  
HETATM   22  H   UNL     1     -11.158  10.382  70.968  1.00  0.00     0.000 HD 
HETATM   23  O   UNL     1     -10.922  12.147  69.278  1.00  0.00    -0.200 OA 
ENDBRANCH   6  11
ENDBRANCH   3   4
TORSDOF 2
ENDMDL
MODEL      110
REMARK 921   NORMALIZED FREE ENERGY PREDICTED BY IDOCK:   -4.58 KCAL/MOL
REMARK 922        TOTAL FREE ENERGY PREDICTED BY IDOCK:   -5.54 KCAL/MOL
REMARK 923 INTER-LIGAND FREE ENERGY PREDICTED BY IDOCK:   -5.65 KCAL/MOL
REMARK 924 INTRA-LIGAND FREE ENERGY PREDICTED BY IDOCK:    0.11 KCAL/MOL
REMARK 927      BINDING AFFINITY PREDICTED BY RF-SCORE:    0.00 PKD
ROOT
HETATM    1  O5* UNL     1     -10.246  18.489  66.960  1.00  0.00    -0.341 OA 
HETATM    2  H5* UNL     1     -10.055  19.196  67.565  1.00  0.00     0.000 HD 
HETATM    3  C5* UNL     1      -9.146  17.588  66.844  1.00  0.00    -0.254 C  
ENDROOT
BRANCH   3   4
HETATM    4  C4* UNL     1      -9.453  16.451  65.871  1.00  0.00    -0.254 C  
HETATM    5  O4* UNL     1      -9.187  15.169  66.467  1.00  0.00    -0.249 OA 
HETATM    6  C1* UNL     1      -9.937  14.223  65.689  1.00  0.00    -0.320 C  
HETATM    7  C2* UNL     1     -11.238  14.929  65.317  1.00  0.00    -0.369 C  
HETATM    8  H3* UNL     1     -11.965  17.029  63.878  1.00  0.00     0.000 HD 
HETATM    9  O3* UNL     1     -11.058  17.057  64.159  1.00  0.00    -0.941 OA 
HETATM   10  C3* UNL     1     -10.911  16.407  65.419  1.00  0.00    -0.239 C  
BRANCH   6  11
HETATM   11  N   UNL     1     -10.114  12.956  66.396  1.00  0.00    -0.263 N  
HETATM   12  C   UNL     1      -9.593  11.768  65.911  1.00  0.00    -0.230 C  
HETATM   13  C   UNL     1      -9.326   9.299  65.927  1.00  0.00    -0.236 C  
HETATM   14  C   UNL     1      -9.849  10.576  66.472  1.00  0.00    -0.255 C  
HETATM   15  C   UNL     1     -10.713  10.544  67.657  1.00  0.00    -0.275 C  
HETATM   16  O   UNL     1     -11.067   9.511  68.209  1.00  0.00    -0.132 OA 
HETATM   17  N   UNL     1     -11.130  11.762  68.123  1.00  0.00    -0.225 N  
HETATM   18  F   UNL     1      -9.762   8.169  66.531  1.00  0.00    -0.239 F  
HETATM   19  F   UNL     1      -9.644   9.168  64.609  1.00  0.00    -0.187 F  
HETATM   20  F   UNL     1      -7.967   9.265  65.987  1.00  0.00    -0.104 F  
HETATM   21  C   UNL     1     -10.924  12.975  67.524  1.00  0.00    -0.259 C  
HETATM   22  H   UNL     1     -11.645  11.765  69.004  1.00  0.00     0.000 HD 
HETATM   23  O   UNL     1     -11.453  13.988  67.979  1.00  0.00    -0.277 OA 
ENDBRANCH   6  11
ENDBRANCH   3   4
TORSDOF 2
ENDMDL
MODEL      111
REMARK 921   NORMALIZED FREE ENERGY PREDICTED BY IDOCK:   -4.57 KCAL/MOL
REMARK 922        TOTAL FREE ENERGY PREDICTED BY IDOCK:   -5.54 KCAL/MOL
REMARK 923 INTER-LIGAND FREE ENERGY PREDICTED BY IDOCK:   -6.19 KCAL/MOL
REMARK 924 INTRA-LIGAND FREE ENERGY PREDICTED BY IDOCK:    0.65 KCAL/MOL
REMARK 927      BINDING AFFINITY PREDICTED BY RF-SCORE:    0.00 PKD
ROOT
HETATM    1  O5* UNL     1     -13.131  13.240  64.786  1.00  0.00    -0.709 OA 
HETATM    2  H5* UNL     1     -13.237  12.320  64.576  1.00  0.00     0.000 HD 
HETATM    3  C5* UNL     1     -11.928  13.475  65.517  1.00  0.00    -0.390 C  
ENDROOT
BRANCH   3   4
HETATM    4  C4* UNL     1     -11.757  14.956  65.854  1.00  0.00    -0.175 C  
HETATM    5  O4* UNL     1     -10.941  15.133  67.025  1.00  0.00    -0.314 OA 
HETATM    6  C1* UNL     1     -10.469  16.488  66.959  1.00  0.00    -0.289 C  
HETATM    7  C2* UNL     1     -10.212  16.767  65.481  1.00  0.00    -0.188 C  
HETATM    8  H3* UNL     1     -11.641  16.921  63.257  1.00  0.00     0.000 HD 
HETATM    9  O3* UNL     1     -12.061  16.418  63.945  1.00  0.00    -0.977 OA 
HETATM   10  C3* UNL     1     -11.082  15.764  64.748  1.00  0.00    -0.400 C  
BRANCH   6  11
HETATM   11  N   UNL     1      -9.312  16.703  67.828  1.00  0.00    -0.221 N  
HETATM   12  C   UNL     1      -8.550  17.856  67.758  1.00  0.00    -0.242 C  
HETATM   13  C   UNL     1      -6.572  19.240  68.344  1.00  0.00    -0.254 C  
HETATM   14  C   UNL     1      -7.413  18.023  68.451  1.00  0.00    -0.281 C  
HETATM   15  C   UNL     1      -6.974  16.930  69.326  1.00  0.00    -0.211 C  
HETATM   16  O   UNL     1      -5.923  16.943  69.953  1.00  0.00    -0.220 OA 
HETATM   17  N   UNL     1      -7.816  15.853  69.401  1.00  0.00    -0.227 N  
HETATM   18  F   UNL     1      -5.397  19.216  69.015  1.00  0.00    -0.190 F  
HETATM   19  F   UNL     1      -6.259  19.500  67.045  1.00  0.00    -0.186 F  
HETATM   20  F   UNL     1      -7.245  20.336  68.790  1.00  0.00    -0.307 F  
HETATM   21  C   UNL     1      -8.944  15.649  68.654  1.00  0.00    -0.202 C  
HETATM   22  H   UNL     1      -7.579  15.130  70.082  1.00  0.00     0.000 HD 
HETATM   23  O   UNL     1      -9.552  14.583  68.729  1.00  0.00    -0.210 OA 
ENDBRANCH   6  11
ENDBRANCH   3   4
TORSDOF 2
ENDMDL
MODEL      112
REMARK 921   NORMALIZED FREE ENERGY PREDICTED BY IDOCK:   -4.57 KCAL/MOL
REMARK 922        TOTAL FREE ENERGY PREDICTED BY IDOCK:   -5.54 KCAL/MOL
REMARK 923 INTER-LIGAND FREE ENERGY PREDICTED BY IDOCK:   -5.22 KCAL/MOL
REMARK 924 INTRA-LIGAND FREE ENERGY PREDICTED BY IDOCK:   -0.32 KCAL/MOL
REMARK 927      BINDING AFFINITY PREDICTED BY RF-SCORE:    0.00 PKD
ROOT
HETATM    1  O5* UNL     1     -10.643  10.911  66.469  1.00  0.00    -0.248 OA 
HETATM    2  H5* UNL     1     -10.592  10.319  65.728  1.00  0.00     0.000 HD 
HETATM    3  C5* UNL     1     -10.659  10.200  67.707  1.00  0.00    -0.256 C  
ENDROOT
BRANCH   3   4
HETATM    4  C4* UNL     1     -10.740  11.153  68.898  1.00  0.00    -0.207 C  
HETATM    5  O4* UNL     1     -10.316  12.479  68.536  1.00  0.00    -0.232 OA 
HETATM    6  C1* UNL     1     -10.873  13.345  69.537  1.00  0.00     0.137 C  
HETATM    7  C2* UNL     1     -12.243  12.763  69.874  1.00  0.00    -0.245 C  
HETATM    8  H3* UNL     1     -13.200  10.539  70.944  1.00  0.00     0.000 HD 
HETATM    9  O3* UNL     1     -12.324  10.444  70.590  1.00  0.00    -0.301 OA 
HETATM   10  C3* UNL     1     -12.148  11.305  69.469  1.00  0.00    -0.317 C  
BRANCH   6  11
HETATM   11  N   UNL     1     -10.895  14.739  69.099  1.00  0.00    -0.252 N  
HETATM   12  C   UNL     1     -10.751  15.090  67.768  1.00  0.00    -0.278 C  
HETATM   13  C   UNL     1     -10.442  16.736  65.933  1.00  0.00    -0.301 C  
HETATM   14  C   UNL     1     -10.640  16.362  67.355  1.00  0.00    -0.306 C  
HETATM   15  C   UNL     1     -10.684  17.420  68.370  1.00  0.00    -0.301 C  
HETATM   16  O   UNL     1     -10.526  18.608  68.118  1.00  0.00    -0.367 OA 
HETATM   17  N   UNL     1     -10.903  17.004  69.656  1.00  0.00    -0.358 N  
HETATM   18  F   UNL     1     -10.232  18.050  65.685  1.00  0.00    -0.279 F  
HETATM   19  F   UNL     1      -9.375  16.077  65.403  1.00  0.00    -0.276 F  
HETATM   20  F   UNL     1     -11.516  16.371  65.181  1.00  0.00    -0.138 F  
HETATM   21  C   UNL     1     -10.957  15.708  70.092  1.00  0.00    -0.339 C  
HETATM   22  H   UNL     1     -11.040  17.732  70.358  1.00  0.00     0.000 HD 
HETATM   23  O   UNL     1     -11.040  15.463  71.294  1.00  0.00    -0.360 OA 
ENDBRANCH   6  11
ENDBRANCH   3   4
TORSDOF 2
ENDMDL
MODEL      113
REMARK 921   NORMALIZED FREE ENERGY PREDICTED BY IDOCK:   -4.57 KCAL/MOL
REMARK 922        TOTAL FREE ENERGY PREDICTED BY IDOCK:   -5.54 KCAL/MOL
REMARK 923 INTER-LIGAND FREE ENERGY PREDICTED BY IDOCK:   -5.59 KCAL/MOL
REMARK 924 INTRA-LIGAND FREE ENERGY PREDICTED BY IDOCK:    0.05 KCAL/MOL
REMARK 927      BINDING AFFINITY PREDICTED BY RF-SCORE:    0.00 PKD
ROOT
HETATM    1  O5* UNL     1      -9.620   4.678  70.957  1.00  0.00    -0.152 OA 
HETATM    2  H5* UNL     1      -9.895   4.105  71.662  1.00  0.00     0.000 HD 
HETATM    3  C5* UNL     1     -10.558   5.732  70.741  1.00  0.00    -0.269 C  
ENDROOT
BRANCH   3   4
HETATM    4  C4* UNL     1     -10.115   6.653  69.607  1.00  0.00    -0.181 C  
HETATM    5  O4* UNL     1     -11.027   7.754  69.442  1.00  0.00    -0.165 OA 
HETATM    6  C1* UNL     1     -10.289   8.757  68.727  1.00  0.00    -0.213 C  
HETATM    7  C2* UNL     1      -8.861   8.682  69.260  1.00  0.00    -0.137 C  
HETATM    8  H3* UNL     1      -6.884   6.921  69.277  1.00  0.00     0.000 HD 
HETATM    9  O3* UNL     1      -7.740   6.531  69.141  1.00  0.00    -0.098 OA 
HETATM   10  C3* UNL     1      -8.740   7.280  69.826  1.00  0.00    -0.142 C  
BRANCH   6  11
HETATM   11  N   UNL     1     -10.913  10.075  68.842  1.00  0.00    -0.224 N  
HETATM   12  C   UNL     1     -11.090  10.898  67.743  1.00  0.00    -0.309 C  
HETATM   13  C   UNL     1     -11.691  13.055  66.668  1.00  0.00    -0.381 C  
HETATM   14  C   UNL     1     -11.541  12.158  67.840  1.00  0.00    -0.413 C  
HETATM   15  C   UNL     1     -11.865  12.672  69.175  1.00  0.00    -0.297 C  
HETATM   16  O   UNL     1     -12.219  13.824  69.391  1.00  0.00    -0.334 OA 
HETATM   17  N   UNL     1     -11.735  11.779  70.204  1.00  0.00    -0.475 N  
HETATM   18  F   UNL     1     -12.046  14.333  66.935  1.00  0.00    -0.408 F  
HETATM   19  F   UNL     1     -10.529  13.127  65.961  1.00  0.00    -0.266 F  
HETATM   20  F   UNL     1     -12.623  12.572  65.802  1.00  0.00    -0.460 F  
HETATM   21  C   UNL     1     -11.220  10.513  70.123  1.00  0.00    -0.315 C  
HETATM   22  H   UNL     1     -12.055  12.087  71.123  1.00  0.00     0.000 HD 
HETATM   23  O   UNL     1     -11.045   9.849  71.142  1.00  0.00    -0.350 OA 
ENDBRANCH   6  11
ENDBRANCH   3   4
TORSDOF 2
ENDMDL
MODEL      114
REMARK 921   NORMALIZED FREE ENERGY PREDICTED BY IDOCK:   -4.57 KCAL/MOL
REMARK 922        TOTAL FREE ENERGY PREDICTED BY IDOCK:   -5.53 KCAL/MOL
REMARK 923 INTER-LIGAND FREE ENERGY PREDICTED BY IDOCK:   -5.12 KCAL/MOL
REMARK 924 INTRA-LIGAND FREE ENERGY PREDICTED BY IDOCK:   -0.41 KCAL/MOL
REMARK 927      BINDING AFFINITY PREDICTED BY RF-SCORE:    0.00 PKD
ROOT
HETATM    1  O5* UNL     1     -10.113   5.781  72.904  1.00  0.00    -0.177 OA 
HETATM    2  H5* UNL     1      -9.373   5.216  72.714  1.00  0.00     0.000 HD 
HETATM    3  C5* UNL     1     -10.286   6.776  71.896  1.00  0.00    -0.197 C  
ENDROOT
BRANCH   3   4
HETATM    4  C4* UNL     1     -11.476   7.683  72.203  1.00  0.00    -0.298 C  
HETATM    5  O4* UNL     1     -11.202   9.047  71.835  1.00  0.00    -0.354 OA 
HETATM    6  C1* UNL     1     -12.487   9.675  71.714  1.00  0.00    -0.402 C  
HETATM    7  C2* UNL     1     -13.412   8.619  71.116  1.00  0.00    -0.058 C  
HETATM    8  H3* UNL     1     -14.383   6.261  71.826  1.00  0.00     0.000 HD 
HETATM    9  O3* UNL     1     -13.590   6.500  72.290  1.00  0.00     0.021 OA 
HETATM   10  C3* UNL     1     -12.752   7.297  71.458  1.00  0.00    -0.384 C  
BRANCH   6  11
HETATM   11  N   UNL     1     -12.413  10.921  70.952  1.00  0.00    -0.375 N  
HETATM   12  C   UNL     1     -11.853  10.972  69.687  1.00  0.00    -0.342 C  
HETATM   13  C   UNL     1     -11.018  12.180  67.683  1.00  0.00    -0.243 C  
HETATM   14  C   UNL     1     -11.658  12.120  69.021  1.00  0.00    -0.374 C  
HETATM   15  C   UNL     1     -12.070  13.370  69.669  1.00  0.00    -0.289 C  
HETATM   16  O   UNL     1     -11.880  14.479  69.186  1.00  0.00    -0.293 OA 
HETATM   17  N   UNL     1     -12.683  13.236  70.885  1.00  0.00    -0.293 N  
HETATM   18  F   UNL     1     -10.784  13.417  67.187  1.00  0.00    -0.256 F  
HETATM   19  F   UNL     1      -9.814  11.545  67.694  1.00  0.00    -0.173 F  
HETATM   20  F   UNL     1     -11.772  11.531  66.755  1.00  0.00    -0.359 F  
HETATM   21  C   UNL     1     -12.831  12.077  71.598  1.00  0.00    -0.294 C  
HETATM   22  H   UNL     1     -13.068  14.084  71.302  1.00  0.00     0.000 HD 
HETATM   23  O   UNL     1     -13.295  12.105  72.736  1.00  0.00     0.024 OA 
ENDBRANCH   6  11
ENDBRANCH   3   4
TORSDOF 2
ENDMDL
MODEL      115
REMARK 921   NORMALIZED FREE ENERGY PREDICTED BY IDOCK:   -4.56 KCAL/MOL
REMARK 922        TOTAL FREE ENERGY PREDICTED BY IDOCK:   -5.53 KCAL/MOL
REMARK 923 INTER-LIGAND FREE ENERGY PREDICTED BY IDOCK:   -5.44 KCAL/MOL
REMARK 924 INTRA-LIGAND FREE ENERGY PREDICTED BY IDOCK:   -0.08 KCAL/MOL
REMARK 927      BINDING AFFINITY PREDICTED BY RF-SCORE:    0.00 PKD
ROOT
HETATM    1  O5* UNL     1     -10.711  18.707  65.497  1.00  0.00    -0.577 OA 
HETATM    2  H5* UNL     1     -11.007  19.148  64.710  1.00  0.00     0.000 HD 
HETATM    3  C5* UNL     1     -10.542  19.624  66.578  1.00  0.00    -0.482 C  
ENDROOT
BRANCH   3   4
HETATM    4  C4* UNL     1     -10.066  18.915  67.845  1.00  0.00    -0.371 C  
HETATM    5  O4* UNL     1     -10.777  17.681  68.050  1.00  0.00    -0.389 OA 
HETATM    6  C1* UNL     1      -9.953  16.910  68.937  1.00  0.00    -0.279 C  
HETATM    7  C2* UNL     1      -8.512  17.206  68.530  1.00  0.00    -0.262 C  
HETATM    8  H3* UNL     1      -6.897  19.304  68.493  1.00  0.00     0.000 HD 
HETATM    9  O3* UNL     1      -7.818  19.534  68.507  1.00  0.00    -0.332 OA 
HETATM   10  C3* UNL     1      -8.585  18.546  67.823  1.00  0.00    -0.271 C  
BRANCH   6  11
HETATM   11  N   UNL     1     -10.311  15.492  68.916  1.00  0.00    -0.213 N  
HETATM   12  C   UNL     1      -9.395  14.512  68.576  1.00  0.00    -0.203 C  
HETATM   13  C   UNL     1      -8.757  12.176  68.018  1.00  0.00    -0.180 C  
HETATM   14  C   UNL     1      -9.729  13.221  68.425  1.00  0.00    -0.198 C  
HETATM   15  C   UNL     1     -11.129  12.843  68.642  1.00  0.00    -0.269 C  
HETATM   16  O   UNL     1     -11.561  11.710  68.468  1.00  0.00    -0.266 OA 
HETATM   17  N   UNL     1     -11.962  13.851  69.048  1.00  0.00    -0.353 N  
HETATM   18  F   UNL     1      -9.264  10.942  67.795  1.00  0.00    -0.146 F  
HETATM   19  F   UNL     1      -8.114  12.532  66.871  1.00  0.00    -0.171 F  
HETATM   20  F   UNL     1      -7.783  12.026  68.958  1.00  0.00    -0.109 F  
HETATM   21  C   UNL     1     -11.644  15.178  69.146  1.00  0.00    -0.323 C  
HETATM   22  H   UNL     1     -12.914  13.586  69.303  1.00  0.00     0.000 HD 
HETATM   23  O   UNL     1     -12.514  16.006  69.408  1.00  0.00    -0.050 OA 
ENDBRANCH   6  11
ENDBRANCH   3   4
TORSDOF 2
ENDMDL
MODEL      116
REMARK 921   NORMALIZED FREE ENERGY PREDICTED BY IDOCK:   -4.55 KCAL/MOL
REMARK 922        TOTAL FREE ENERGY PREDICTED BY IDOCK:   -5.51 KCAL/MOL
REMARK 923 INTER-LIGAND FREE ENERGY PREDICTED BY IDOCK:   -5.13 KCAL/MOL
REMARK 924 INTRA-LIGAND FREE ENERGY PREDICTED BY IDOCK:   -0.39 KCAL/MOL
REMARK 927      BINDING AFFINITY PREDICTED BY RF-SCORE:    0.00 PKD
ROOT
HETATM    1  O5* UNL     1      -8.622   9.672  64.280  1.00  0.00    -0.164 OA 
HETATM    2  H5* UNL     1      -8.270   8.980  63.734  1.00  0.00     0.000 HD 
HETATM    3  C5* UNL     1      -8.903   9.205  65.599  1.00  0.00    -0.185 C  
ENDROOT
BRANCH   3   4
HETATM    4  C4* UNL     1      -9.470  10.319  66.478  1.00  0.00    -0.171 C  
HETATM    5  O4* UNL     1     -10.464   9.812  67.387  1.00  0.00    -0.227 OA 
HETATM    6  C1* UNL     1     -10.559  10.790  68.433  1.00  0.00    -0.197 C  
HETATM    7  C2* UNL     1      -9.138  11.304  68.652  1.00  0.00    -0.153 C  
HETATM    8  H3* UNL     1      -7.319  12.637  67.265  1.00  0.00     0.000 HD 
HETATM    9  O3* UNL     1      -7.971  12.208  66.724  1.00  0.00    -0.126 OA 
HETATM   10  C3* UNL     1      -8.422  11.009  67.348  1.00  0.00    -0.132 C  
BRANCH   6  11
HETATM   11  N   UNL     1     -11.199  10.246  69.630  1.00  0.00    -0.255 N  
HETATM   12  C   UNL     1     -11.120   8.902  69.955  1.00  0.00    -0.136 C  
HETATM   13  C   UNL     1     -11.750   6.909  71.295  1.00  0.00    -0.328 C  
HETATM   14  C   UNL     1     -11.801   8.356  70.973  1.00  0.00    -0.278 C  
HETATM   15  C   UNL     1     -12.659   9.234  71.776  1.00  0.00    -0.382 C  
HETATM   16  O   UNL     1     -13.377   8.835  72.684  1.00  0.00    -0.392 OA 
HETATM   17  N   UNL     1     -12.631  10.561  71.443  1.00  0.00    -0.404 N  
HETATM   18  F   UNL     1     -12.580   6.485  72.277  1.00  0.00    -0.315 F  
HETATM   19  F   UNL     1     -12.049   6.157  70.200  1.00  0.00    -0.356 F  
HETATM   20  F   UNL     1     -10.495   6.538  71.669  1.00  0.00    -0.220 F  
HETATM   21  C   UNL     1     -11.987  11.117  70.371  1.00  0.00    -0.378 C  
HETATM   22  H   UNL     1     -13.140  11.200  72.055  1.00  0.00     0.000 HD 
HETATM   23  O   UNL     1     -12.135  12.309  70.109  1.00  0.00    -0.327 OA 
ENDBRANCH   6  11
ENDBRANCH   3   4
TORSDOF 2
ENDMDL
MODEL      117
REMARK 921   NORMALIZED FREE ENERGY PREDICTED BY IDOCK:   -4.55 KCAL/MOL
REMARK 922        TOTAL FREE ENERGY PREDICTED BY IDOCK:   -5.51 KCAL/MOL
REMARK 923 INTER-LIGAND FREE ENERGY PREDICTED BY IDOCK:   -5.22 KCAL/MOL
REMARK 924 INTRA-LIGAND FREE ENERGY PREDICTED BY IDOCK:   -0.29 KCAL/MOL
REMARK 927      BINDING AFFINITY PREDICTED BY RF-SCORE:    0.00 PKD
ROOT
HETATM    1  O5* UNL     1     -11.941  13.720  70.837  1.00  0.00    -0.459 OA 
HETATM    2  H5* UNL     1     -12.338  14.377  71.395  1.00  0.00     0.000 HD 
HETATM    3  C5* UNL     1     -11.575  14.261  69.568  1.00  0.00    -0.301 C  
ENDROOT
BRANCH   3   4
HETATM    4  C4* UNL     1     -10.935  13.203  68.671  1.00  0.00    -0.265 C  
HETATM    5  O4* UNL     1     -10.777  11.954  69.368  1.00  0.00    -0.113 OA 
HETATM    6  C1* UNL     1     -10.637  10.960  68.342  1.00  0.00    -0.194 C  
HETATM    7  C2* UNL     1     -11.570  11.392  67.213  1.00  0.00    -0.232 C  
HETATM    8  H3* UNL     1     -11.769  13.424  65.528  1.00  0.00     0.000 HD 
HETATM    9  O3* UNL     1     -11.261  13.623  66.306  1.00  0.00    -0.299 OA 
HETATM   10  C3* UNL     1     -11.751  12.883  67.420  1.00  0.00    -0.372 C  
BRANCH   6  11
HETATM   11  N   UNL     1     -10.885   9.613  68.853  1.00  0.00    -0.206 N  
HETATM   12  C   UNL     1     -11.503   9.396  70.073  1.00  0.00    -0.077 C  
HETATM   13  C   UNL     1     -12.251   7.950  71.949  1.00  0.00    -0.314 C  
HETATM   14  C   UNL     1     -11.627   8.178  70.622  1.00  0.00    -0.199 C  
HETATM   15  C   UNL     1     -11.088   7.032  69.883  1.00  0.00    -0.264 C  
HETATM   16  O   UNL     1     -11.085   5.886  70.315  1.00  0.00    -0.327 OA 
HETATM   17  N   UNL     1     -10.558   7.313  68.652  1.00  0.00    -0.274 N  
HETATM   18  F   UNL     1     -12.201   6.683  72.423  1.00  0.00    -0.291 F  
HETATM   19  F   UNL     1     -11.667   8.730  72.900  1.00  0.00    -0.325 F  
HETATM   20  F   UNL     1     -13.565   8.302  71.935  1.00  0.00    -0.331 F  
HETATM   21  C   UNL     1     -10.373   8.556  68.111  1.00  0.00    -0.206 C  
HETATM   22  H   UNL     1     -10.273   6.516  68.081  1.00  0.00     0.000 HD 
HETATM   23  O   UNL     1      -9.776   8.685  67.044  1.00  0.00    -0.168 OA 
ENDBRANCH   6  11
ENDBRANCH   3   4
TORSDOF 2
ENDMDL
MODEL      118
REMARK 921   NORMALIZED FREE ENERGY PREDICTED BY IDOCK:   -4.54 KCAL/MOL
REMARK 922        TOTAL FREE ENERGY PREDICTED BY IDOCK:   -5.50 KCAL/MOL
REMARK 923 INTER-LIGAND FREE ENERGY PREDICTED BY IDOCK:   -5.87 KCAL/MOL
REMARK 924 INTRA-LIGAND FREE ENERGY PREDICTED BY IDOCK:    0.38 KCAL/MOL
REMARK 927      BINDING AFFINITY PREDICTED BY RF-SCORE:    0.00 PKD
ROOT
HETATM    1  O5* UNL     1      -7.572  20.302  65.805  1.00  0.00    -0.482 OA 
HETATM    2  H5* UNL     1      -6.718  20.718  65.808  1.00  0.00     0.000 HD 
HETATM    3  C5* UNL     1      -7.587  19.136  66.628  1.00  0.00    -0.242 C  
ENDROOT
BRANCH   3   4
HETATM    4  C4* UNL     1      -8.960  18.466  66.624  1.00  0.00    -0.289 C  
HETATM    5  O4* UNL     1      -8.843  17.036  66.515  1.00  0.00    -0.232 OA 
HETATM    6  C1* UNL     1     -10.092  16.513  66.993  1.00  0.00    -0.279 C  
HETATM    7  C2* UNL     1     -10.509  17.421  68.146  1.00  0.00    -0.389 C  
HETATM    8  H3* UNL     1     -11.190  19.959  68.472  1.00  0.00     0.000 HD 
HETATM    9  O3* UNL     1     -10.684  19.799  67.684  1.00  0.00    -0.420 OA 
HETATM   10  C3* UNL     1      -9.774  18.723  67.890  1.00  0.00    -0.329 C  
BRANCH   6  11
HETATM   11  N   UNL     1      -9.990  15.096  67.341  1.00  0.00    -0.226 N  
HETATM   12  C   UNL     1     -10.554  14.108  66.553  1.00  0.00    -0.282 C  
HETATM   13  C   UNL     1     -11.227  11.762  66.090  1.00  0.00    -0.306 C  
HETATM   14  C   UNL     1     -10.585  12.815  66.914  1.00  0.00    -0.257 C  
HETATM   15  C   UNL     1      -9.984  12.446  68.200  1.00  0.00    -0.215 C  
HETATM   16  O   UNL     1     -10.014  11.312  68.661  1.00  0.00    -0.196 OA 
HETATM   17  N   UNL     1      -9.381  13.463  68.890  1.00  0.00    -0.392 N  
HETATM   18  F   UNL     1     -11.282  10.525  66.638  1.00  0.00    -0.242 F  
HETATM   19  F   UNL     1     -12.512  12.097  65.789  1.00  0.00    -0.364 F  
HETATM   20  F   UNL     1     -10.590  11.624  64.895  1.00  0.00    -0.294 F  
HETATM   21  C   UNL     1      -9.397  14.791  68.559  1.00  0.00    -0.199 C  
HETATM   22  H   UNL     1      -8.869  13.206  69.734  1.00  0.00     0.000 HD 
HETATM   23  O   UNL     1      -8.919  15.626  69.324  1.00  0.00    -0.238 OA 
ENDBRANCH   6  11
ENDBRANCH   3   4
TORSDOF 2
ENDMDL
MODEL      119
REMARK 921   NORMALIZED FREE ENERGY PREDICTED BY IDOCK:   -4.53 KCAL/MOL
REMARK 922        TOTAL FREE ENERGY PREDICTED BY IDOCK:   -5.48 KCAL/MOL
REMARK 923 INTER-LIGAND FREE ENERGY PREDICTED BY IDOCK:   -5.09 KCAL/MOL
REMARK 924 INTRA-LIGAND FREE ENERGY PREDICTED BY IDOCK:   -0.40 KCAL/MOL
REMARK 927      BINDING AFFINITY PREDICTED BY RF-SCORE:    0.00 PKD
ROOT
HETATM    1  O5* UNL     1      -6.368  13.800  71.164  1.00  0.00    -0.501 OA 
HETATM    2  H5* UNL     1      -5.988  13.390  71.932  1.00  0.00     0.000 HD 
HETATM    3  C5* UNL     1      -5.433  14.660  70.513  1.00  0.00    -0.136 C  
ENDROOT
BRANCH   3   4
HETATM    4  C4* UNL     1      -6.045  15.320  69.279  1.00  0.00    -0.110 C  
HETATM    5  O4* UNL     1      -7.020  14.463  68.658  1.00  0.00    -0.090 OA 
HETATM    6  C1* UNL     1      -7.834  15.331  67.854  1.00  0.00    -0.139 C  
HETATM    7  C2* UNL     1      -7.968  16.628  68.647  1.00  0.00    -0.236 C  
HETATM    8  H3* UNL     1      -6.366  18.554  69.504  1.00  0.00     0.000 HD 
HETATM    9  O3* UNL     1      -5.915  17.740  69.318  1.00  0.00    -0.204 OA 
HETATM   10  C3* UNL     1      -6.770  16.630  69.578  1.00  0.00    -0.189 C  
BRANCH   6  11
HETATM   11  N   UNL     1      -9.106  14.704  67.495  1.00  0.00    -0.184 N  
HETATM   12  C   UNL     1      -9.672  13.705  68.267  1.00  0.00    -0.231 C  
HETATM   13  C   UNL     1     -11.352  11.927  68.700  1.00  0.00    -0.276 C  
HETATM   14  C   UNL     1     -10.769  13.027  67.894  1.00  0.00    -0.249 C  
HETATM   15  C   UNL     1     -11.391  13.377  66.612  1.00  0.00    -0.323 C  
HETATM   16  O   UNL     1     -12.352  12.783  66.140  1.00  0.00    -0.542 OA 
HETATM   17  N   UNL     1     -10.820  14.424  65.939  1.00  0.00    -0.297 N  
HETATM   18  F   UNL     1     -12.389  11.261  68.141  1.00  0.00    -0.231 F  
HETATM   19  F   UNL     1     -10.411  10.986  68.988  1.00  0.00    -0.190 F  
HETATM   20  F   UNL     1     -11.796  12.387  69.902  1.00  0.00    -0.347 F  
HETATM   21  C   UNL     1      -9.668  15.079  66.282  1.00  0.00    -0.291 C  
HETATM   22  H   UNL     1     -11.300  14.747  65.099  1.00  0.00     0.000 HD 
HETATM   23  O   UNL     1      -9.191  15.927  65.530  1.00  0.00    -0.323 OA 
ENDBRANCH   6  11
ENDBRANCH   3   4
TORSDOF 2
ENDMDL
MODEL      120
REMARK 921   NORMALIZED FREE ENERGY PREDICTED BY IDOCK:   -4.52 KCAL/MOL
REMARK 922        TOTAL FREE ENERGY PREDICTED BY IDOCK:   -5.47 KCAL/MOL
REMARK 923 INTER-LIGAND FREE ENERGY PREDICTED BY IDOCK:   -4.92 KCAL/MOL
REMARK 924 INTRA-LIGAND FREE ENERGY PREDICTED BY IDOCK:   -0.56 KCAL/MOL
REMARK 927      BINDING AFFINITY PREDICTED BY RF-SCORE:    0.00 PKD
ROOT
HETATM    1  O5* UNL     1      -5.537  17.635  69.137  1.00  0.00    -0.178 OA 
HETATM    2  H5* UNL     1      -4.798  17.662  69.733  1.00  0.00     0.000 HD 
HETATM    3  C5* UNL     1      -5.887  16.293  68.799  1.00  0.00    -0.110 C  
ENDROOT
BRANCH   3   4
HETATM    4  C4* UNL     1      -7.076  16.250  67.840  1.00  0.00    -0.133 C  
HETATM    5  O4* UNL     1      -7.801  15.013  67.963  1.00  0.00    -0.113 OA 
HETATM    6  C1* UNL     1      -9.100  15.276  67.410  1.00  0.00    -0.192 C  
HETATM    7  C2* UNL     1      -9.442  16.708  67.812  1.00  0.00    -0.227 C  
HETATM    8  H3* UNL     1      -8.502  19.136  67.335  1.00  0.00     0.000 HD 
HETATM    9  O3* UNL     1      -7.866  18.447  67.187  1.00  0.00    -0.223 OA 
HETATM   10  C3* UNL     1      -8.098  17.359  68.078  1.00  0.00    -0.227 C  
BRANCH   6  11
HETATM   11  N   UNL     1     -10.081  14.276  67.828  1.00  0.00    -0.229 N  
HETATM   12  C   UNL     1     -10.900  14.471  68.927  1.00  0.00    -0.253 C  
HETATM   13  C   UNL     1     -12.563  13.713  70.610  1.00  0.00    -0.296 C  
HETATM   14  C   UNL     1     -11.717  13.520  69.407  1.00  0.00    -0.381 C  
HETATM   15  C   UNL     1     -11.739  12.223  68.722  1.00  0.00    -0.340 C  
HETATM   16  O   UNL     1     -12.392  11.262  69.110  1.00  0.00    -0.403 OA 
HETATM   17  N   UNL     1     -10.959  12.127  67.601  1.00  0.00    -0.231 N  
HETATM   18  F   UNL     1     -13.246  12.627  71.041  1.00  0.00    -0.262 F  
HETATM   19  F   UNL     1     -11.814  14.131  71.667  1.00  0.00    -0.360 F  
HETATM   20  F   UNL     1     -13.488  14.689  70.401  1.00  0.00    -0.307 F  
HETATM   21  C   UNL     1     -10.080  13.070  67.140  1.00  0.00    -0.244 C  
HETATM   22  H   UNL     1     -11.041  11.269  67.055  1.00  0.00     0.000 HD 
HETATM   23  O   UNL     1      -9.346  12.818  66.186  1.00  0.00    -0.210 OA 
ENDBRANCH   6  11
ENDBRANCH   3   4
TORSDOF 2
ENDMDL
MODEL      121
REMARK 921   NORMALIZED FREE ENERGY PREDICTED BY IDOCK:   -4.51 KCAL/MOL
REMARK 922        TOTAL FREE ENERGY PREDICTED BY IDOCK:   -5.47 KCAL/MOL
REMARK 923 INTER-LIGAND FREE ENERGY PREDICTED BY IDOCK:   -5.24 KCAL/MOL
REMARK 924 INTRA-LIGAND FREE ENERGY PREDICTED BY IDOCK:   -0.23 KCAL/MOL
REMARK 927      BINDING AFFINITY PREDICTED BY RF-SCORE:    0.00 PKD
ROOT
HETATM    1  O5* UNL     1      -9.333   4.693  66.891  1.00  0.00    -0.124 OA 
HETATM    2  H5* UNL     1      -9.265   4.269  66.044  1.00  0.00     0.000 HD 
HETATM    3  C5* UNL     1      -9.280   6.114  66.772  1.00  0.00    -0.135 C  
ENDROOT
BRANCH   3   4
HETATM    4  C4* UNL     1      -9.390   6.795  68.135  1.00  0.00    -0.122 C  
HETATM    5  O4* UNL     1      -9.603   8.211  67.995  1.00  0.00    -0.151 OA 
HETATM    6  C1* UNL     1     -10.154   8.640  69.250  1.00  0.00    -0.202 C  
HETATM    7  C2* UNL     1     -11.067   7.507  69.713  1.00  0.00    -0.143 C  
HETATM    8  H3* UNL     1     -10.805   4.974  70.437  1.00  0.00     0.000 HD 
HETATM    9  O3* UNL     1     -10.085   5.294  69.907  1.00  0.00    -0.217 OA 
HETATM   10  C3* UNL     1     -10.547   6.280  68.988  1.00  0.00    -0.267 C  
BRANCH   6  11
HETATM   11  N   UNL     1     -10.809   9.942  69.140  1.00  0.00    -0.223 N  
HETATM   12  C   UNL     1     -10.890  10.620  67.935  1.00  0.00    -0.277 C  
HETATM   13  C   UNL     1     -11.418  12.611  66.548  1.00  0.00    -0.353 C  
HETATM   14  C   UNL     1     -11.371  11.868  67.831  1.00  0.00    -0.358 C  
HETATM   15  C   UNL     1     -11.837  12.530  69.054  1.00  0.00    -0.296 C  
HETATM   16  O   UNL     1     -12.232  13.689  69.090  1.00  0.00    -0.326 OA 
HETATM   17  N   UNL     1     -11.795  11.773  70.194  1.00  0.00    -0.422 N  
HETATM   18  F   UNL     1     -11.822  13.901  66.619  1.00  0.00    -0.348 F  
HETATM   19  F   UNL     1     -10.193  12.632  65.954  1.00  0.00    -0.253 F  
HETATM   20  F   UNL     1     -12.250  11.998  65.662  1.00  0.00    -0.409 F  
HETATM   21  C   UNL     1     -11.252  10.523  70.320  1.00  0.00    -0.313 C  
HETATM   22  H   UNL     1     -12.211  12.181  71.032  1.00  0.00     0.000 HD 
HETATM   23  O   UNL     1     -11.168   9.994  71.427  1.00  0.00    -0.306 OA 
ENDBRANCH   6  11
ENDBRANCH   3   4
TORSDOF 2
ENDMDL
MODEL      122
REMARK 921   NORMALIZED FREE ENERGY PREDICTED BY IDOCK:   -4.50 KCAL/MOL
REMARK 922        TOTAL FREE ENERGY PREDICTED BY IDOCK:   -5.46 KCAL/MOL
REMARK 923 INTER-LIGAND FREE ENERGY PREDICTED BY IDOCK:   -5.24 KCAL/MOL
REMARK 924 INTRA-LIGAND FREE ENERGY PREDICTED BY IDOCK:   -0.22 KCAL/MOL
REMARK 927      BINDING AFFINITY PREDICTED BY RF-SCORE:    0.00 PKD
ROOT
HETATM    1  O5* UNL     1      -5.521  12.592  70.191  1.00  0.00    -0.099 OA 
HETATM    2  H5* UNL     1      -5.177  13.334  70.672  1.00  0.00     0.000 HD 
HETATM    3  C5* UNL     1      -6.574  12.982  69.309  1.00  0.00    -0.089 C  
ENDROOT
BRANCH   3   4
HETATM    4  C4* UNL     1      -7.127  11.787  68.535  1.00  0.00    -0.091 C  
HETATM    5  O4* UNL     1      -8.367  12.117  67.882  1.00  0.00    -0.142 OA 
HETATM    6  C1* UNL     1      -8.526  11.135  66.847  1.00  0.00    -0.147 C  
HETATM    7  C2* UNL     1      -7.123  10.869  66.307  1.00  0.00    -0.119 C  
HETATM    8  H3* UNL     1      -4.849   9.866  67.218  1.00  0.00     0.000 HD 
HETATM    9  O3* UNL     1      -5.428  10.179  67.903  1.00  0.00    -0.038 OA 
HETATM   10  C3* UNL     1      -6.197  11.283  67.434  1.00  0.00    -0.071 C  
BRANCH   6  11
HETATM   11  N   UNL     1      -9.495  11.562  65.838  1.00  0.00    -0.227 N  
HETATM   12  C   UNL     1     -10.049  12.830  65.847  1.00  0.00    -0.276 C  
HETATM   13  C   UNL     1     -11.657  14.548  65.050  1.00  0.00    -0.382 C  
HETATM   14  C   UNL     1     -11.032  13.203  65.013  1.00  0.00    -0.322 C  
HETATM   15  C   UNL     1     -11.525  12.216  64.046  1.00  0.00    -0.411 C  
HETATM   16  O   UNL     1     -12.461  12.423  63.284  1.00  0.00    -0.604 OA 
HETATM   17  N   UNL     1     -10.880  11.009  64.045  1.00  0.00    -0.473 N  
HETATM   18  F   UNL     1     -12.713  14.740  64.226  1.00  0.00    -0.460 F  
HETATM   19  F   UNL     1     -12.100  14.842  66.304  1.00  0.00    -0.339 F  
HETATM   20  F   UNL     1     -10.749  15.514  64.741  1.00  0.00    -0.404 F  
HETATM   21  C   UNL     1      -9.920  10.600  64.931  1.00  0.00    -0.318 C  
HETATM   22  H   UNL     1     -11.140  10.349  63.312  1.00  0.00     0.000 HD 
HETATM   23  O   UNL     1      -9.500   9.445  64.899  1.00  0.00    -0.229 OA 
ENDBRANCH   6  11
ENDBRANCH   3   4
TORSDOF 2
ENDMDL
MODEL      123
REMARK 921   NORMALIZED FREE ENERGY PREDICTED BY IDOCK:   -4.50 KCAL/MOL
REMARK 922        TOTAL FREE ENERGY PREDICTED BY IDOCK:   -5.45 KCAL/MOL
REMARK 923 INTER-LIGAND FREE ENERGY PREDICTED BY IDOCK:   -5.56 KCAL/MOL
REMARK 924 INTRA-LIGAND FREE ENERGY PREDICTED BY IDOCK:    0.11 KCAL/MOL
REMARK 927      BINDING AFFINITY PREDICTED BY RF-SCORE:    0.00 PKD
ROOT
HETATM    1  O5* UNL     1      -9.924   8.810  67.491  1.00  0.00    -0.171 OA 
HETATM    2  H5* UNL     1      -9.346   8.140  67.837  1.00  0.00     0.000 HD 
HETATM    3  C5* UNL     1      -9.510   9.241  66.195  1.00  0.00    -0.236 C  
ENDROOT
BRANCH   3   4
HETATM    4  C4* UNL     1     -10.440  10.317  65.639  1.00  0.00    -0.082 C  
HETATM    5  O4* UNL     1     -10.828  11.251  66.663  1.00  0.00    -0.266 OA 
HETATM    6  C1* UNL     1     -11.269  12.424  65.962  1.00  0.00    -0.335 C  
HETATM    7  C2* UNL     1     -10.349  12.556  64.752  1.00  0.00    -0.331 C  
HETATM    8  H3* UNL     1      -9.815  11.174  62.558  1.00  0.00     0.000 HD 
HETATM    9  O3* UNL     1     -10.204  10.653  63.250  1.00  0.00    -0.274 OA 
HETATM   10  C3* UNL     1      -9.815  11.155  64.526  1.00  0.00    -0.280 C  
BRANCH   6  11
HETATM   11  N   UNL     1     -11.299  13.598  66.834  1.00  0.00    -0.315 N  
HETATM   12  C   UNL     1     -10.707  14.795  66.469  1.00  0.00    -0.319 C  
HETATM   13  C   UNL     1      -9.937  17.113  66.924  1.00  0.00    -0.288 C  
HETATM   14  C   UNL     1     -10.610  15.845  67.299  1.00  0.00    -0.314 C  
HETATM   15  C   UNL     1     -11.168  15.708  68.649  1.00  0.00    -0.338 C  
HETATM   16  O   UNL     1     -11.078  16.573  69.511  1.00  0.00    -0.314 OA 
HETATM   17  N   UNL     1     -11.803  14.524  68.914  1.00  0.00    -0.372 N  
HETATM   18  F   UNL     1      -9.816  18.038  67.904  1.00  0.00    -0.270 F  
HETATM   19  F   UNL     1      -8.675  16.876  66.471  1.00  0.00    -0.220 F  
HETATM   20  F   UNL     1     -10.591  17.724  65.898  1.00  0.00    -0.372 F  
HETATM   21  C   UNL     1     -11.854  13.428  68.095  1.00  0.00    -0.361 C  
HETATM   22  H   UNL     1     -12.286  14.452  69.810  1.00  0.00     0.000 HD 
HETATM   23  O   UNL     1     -12.354  12.379  68.496  1.00  0.00    -0.102 OA 
ENDBRANCH   6  11
ENDBRANCH   3   4
TORSDOF 2
ENDMDL
MODEL      124
REMARK 921   NORMALIZED FREE ENERGY PREDICTED BY IDOCK:   -4.50 KCAL/MOL
REMARK 922        TOTAL FREE ENERGY PREDICTED BY IDOCK:   -5.45 KCAL/MOL
REMARK 923 INTER-LIGAND FREE ENERGY PREDICTED BY IDOCK:   -6.18 KCAL/MOL
REMARK 924 INTRA-LIGAND FREE ENERGY PREDICTED BY IDOCK:    0.73 KCAL/MOL
REMARK 927      BINDING AFFINITY PREDICTED BY RF-SCORE:    0.00 PKD
ROOT
HETATM    1  O5* UNL     1     -12.645  13.959  63.110  1.00  0.00    -1.057 OA 
HETATM    2  H5* UNL     1     -13.325  13.948  62.448  1.00  0.00     0.000 HD 
HETATM    3  C5* UNL     1     -12.018  12.683  63.239  1.00  0.00    -0.441 C  
ENDROOT
BRANCH   3   4
HETATM    4  C4* UNL     1     -10.923  12.702  64.304  1.00  0.00    -0.366 C  
HETATM    5  O4* UNL     1     -10.795  14.006  64.898  1.00  0.00    -0.364 OA 
HETATM    6  C1* UNL     1     -10.125  13.791  66.149  1.00  0.00    -0.307 C  
HETATM    7  C2* UNL     1     -10.664  12.469  66.688  1.00  0.00    -0.261 C  
HETATM    8  H3* UNL     1     -10.625   9.920  65.974  1.00  0.00     0.000 HD 
HETATM    9  O3* UNL     1     -10.468  10.519  65.254  1.00  0.00    -0.262 OA 
HETATM   10  C3* UNL     1     -11.175  11.739  65.461  1.00  0.00    -0.258 C  
BRANCH   6  11
HETATM   11  N   UNL     1     -10.287  14.928  67.054  1.00  0.00    -0.261 N  
HETATM   12  C   UNL     1      -9.422  16.009  67.033  1.00  0.00    -0.218 C  
HETATM   13  C   UNL     1      -8.518  18.139  67.937  1.00  0.00    -0.254 C  
HETATM   14  C   UNL     1      -9.471  17.002  67.934  1.00  0.00    -0.245 C  
HETATM   15  C   UNL     1     -10.498  16.931  68.979  1.00  0.00    -0.341 C  
HETATM   16  O   UNL     1     -10.595  17.743  69.891  1.00  0.00     0.279 OA 
HETATM   17  N   UNL     1     -11.363  15.873  68.894  1.00  0.00    -0.354 N  
HETATM   18  F   UNL     1      -8.620  19.001  68.976  1.00  0.00    -0.363 F  
HETATM   19  F   UNL     1      -7.232  17.692  67.943  1.00  0.00    -0.186 F  
HETATM   20  F   UNL     1      -8.648  18.885  66.806  1.00  0.00    -0.263 F  
HETATM   21  C   UNL     1     -11.283  14.827  68.016  1.00  0.00    -0.299 C  
HETATM   22  H   UNL     1     -12.145  15.865  69.550  1.00  0.00     0.000 HD 
HETATM   23  O   UNL     1     -12.053  13.874  68.117  1.00  0.00    -0.365 OA 
ENDBRANCH   6  11
ENDBRANCH   3   4
TORSDOF 2
ENDMDL
MODEL      125
REMARK 921   NORMALIZED FREE ENERGY PREDICTED BY IDOCK:   -4.49 KCAL/MOL
REMARK 922        TOTAL FREE ENERGY PREDICTED BY IDOCK:   -5.44 KCAL/MOL
REMARK 923 INTER-LIGAND FREE ENERGY PREDICTED BY IDOCK:   -4.98 KCAL/MOL
REMARK 924 INTRA-LIGAND FREE ENERGY PREDICTED BY IDOCK:   -0.46 KCAL/MOL
REMARK 927      BINDING AFFINITY PREDICTED BY RF-SCORE:    0.00 PKD
ROOT
HETATM    1  O5* UNL     1     -10.710  18.975  66.919  1.00  0.00    -0.429 OA 
HETATM    2  H5* UNL     1     -10.728  19.772  67.435  1.00  0.00     0.000 HD 
HETATM    3  C5* UNL     1      -9.448  18.315  67.021  1.00  0.00    -0.274 C  
ENDROOT
BRANCH   3   4
HETATM    4  C4* UNL     1      -9.420  17.032  66.192  1.00  0.00    -0.225 C  
HETATM    5  O4* UNL     1      -8.825  15.948  66.928  1.00  0.00    -0.201 OA 
HETATM    6  C1* UNL     1      -9.276  14.751  66.276  1.00  0.00    -0.243 C  
HETATM    7  C2* UNL     1     -10.714  15.029  65.845  1.00  0.00    -0.337 C  
HETATM    8  H3* UNL     1     -11.961  16.671  64.185  1.00  0.00     0.000 HD 
HETATM    9  O3* UNL     1     -11.100  16.977  64.447  1.00  0.00    -1.144 OA 
HETATM   10  C3* UNL     1     -10.803  16.541  65.770  1.00  0.00    -0.134 C  
BRANCH   6  11
HETATM   11  N   UNL     1      -9.114  13.574  67.128  1.00  0.00    -0.223 N  
HETATM   12  C   UNL     1     -10.188  12.983  67.771  1.00  0.00    -0.228 C  
HETATM   13  C   UNL     1     -11.196  11.379  69.378  1.00  0.00    -0.268 C  
HETATM   14  C   UNL     1     -10.050  11.984  68.656  1.00  0.00    -0.170 C  
HETATM   15  C   UNL     1      -8.695  11.499  68.940  1.00  0.00     0.039 C  
HETATM   16  O   UNL     1      -8.443  10.641  69.776  1.00  0.00    -0.002 OA 
HETATM   17  N   UNL     1      -7.690  12.079  68.213  1.00  0.00    -0.120 N  
HETATM   18  F   UNL     1     -10.890  10.461  70.324  1.00  0.00    -0.310 F  
HETATM   19  F   UNL     1     -11.932  12.337  70.007  1.00  0.00    -0.354 F  
HETATM   20  F   UNL     1     -12.048  10.766  68.511  1.00  0.00    -0.352 F  
HETATM   21  C   UNL     1      -7.815  13.138  67.354  1.00  0.00    -0.165 C  
HETATM   22  H   UNL     1      -6.756  11.683  68.322  1.00  0.00     0.000 HD 
HETATM   23  O   UNL     1      -6.816  13.647  66.850  1.00  0.00     0.156 OA 
ENDBRANCH   6  11
ENDBRANCH   3   4
TORSDOF 2
ENDMDL
MODEL      126
REMARK 921   NORMALIZED FREE ENERGY PREDICTED BY IDOCK:   -4.48 KCAL/MOL
REMARK 922        TOTAL FREE ENERGY PREDICTED BY IDOCK:   -5.43 KCAL/MOL
REMARK 923 INTER-LIGAND FREE ENERGY PREDICTED BY IDOCK:   -5.03 KCAL/MOL
REMARK 924 INTRA-LIGAND FREE ENERGY PREDICTED BY IDOCK:   -0.40 KCAL/MOL
REMARK 927      BINDING AFFINITY PREDICTED BY RF-SCORE:    0.00 PKD
ROOT
HETATM    1  O5* UNL     1     -10.317   6.752  67.321  1.00  0.00    -0.187 OA 
HETATM    2  H5* UNL     1     -10.321   6.165  68.068  1.00  0.00     0.000 HD 
HETATM    3  C5* UNL     1     -10.159   8.112  67.725  1.00  0.00    -0.204 C  
ENDROOT
BRANCH   3   4
HETATM    4  C4* UNL     1     -10.152   9.055  66.523  1.00  0.00    -0.283 C  
HETATM    5  O4* UNL     1     -10.715  10.335  66.862  1.00  0.00    -0.239 OA 
HETATM    6  C1* UNL     1     -10.231  11.243  65.860  1.00  0.00    -0.249 C  
HETATM    7  C2* UNL     1      -8.802  10.800  65.554  1.00  0.00    -0.203 C  
HETATM    8  H3* UNL     1      -7.604   8.674  64.529  1.00  0.00     0.000 HD 
HETATM    9  O3* UNL     1      -8.473   8.494  64.869  1.00  0.00    -0.173 OA 
HETATM   10  C3* UNL     1      -8.757   9.344  65.976  1.00  0.00    -0.150 C  
BRANCH   6  11
HETATM   11  N   UNL     1     -10.359  12.637  66.281  1.00  0.00    -0.248 N  
HETATM   12  C   UNL     1      -9.334  13.300  66.935  1.00  0.00    -0.244 C  
HETATM   13  C   UNL     1      -8.388  15.228  68.183  1.00  0.00    -0.149 C  
HETATM   14  C   UNL     1      -9.471  14.534  67.444  1.00  0.00    -0.202 C  
HETATM   15  C   UNL     1     -10.767  15.203  67.286  1.00  0.00    -0.305 C  
HETATM   16  O   UNL     1     -11.027  16.299  67.766  1.00  0.00    -0.330 OA 
HETATM   17  N   UNL     1     -11.707  14.518  66.565  1.00  0.00    -0.380 N  
HETATM   18  F   UNL     1      -8.711  16.420  68.737  1.00  0.00    -0.201 F  
HETATM   19  F   UNL     1      -7.922  14.453  69.201  1.00  0.00    -0.137 F  
HETATM   20  F   UNL     1      -7.319  15.460  67.373  1.00  0.00    -0.161 F  
HETATM   21  C   UNL     1     -11.597  13.237  66.095  1.00  0.00    -0.348 C  
HETATM   22  H   UNL     1     -12.576  15.010  66.357  1.00  0.00     0.000 HD 
HETATM   23  O   UNL     1     -12.559  12.688  65.563  1.00  0.00    -0.634 OA 
ENDBRANCH   6  11
ENDBRANCH   3   4
TORSDOF 2
ENDMDL
MODEL      127
REMARK 921   NORMALIZED FREE ENERGY PREDICTED BY IDOCK:   -4.46 KCAL/MOL
REMARK 922        TOTAL FREE ENERGY PREDICTED BY IDOCK:   -5.41 KCAL/MOL
REMARK 923 INTER-LIGAND FREE ENERGY PREDICTED BY IDOCK:   -4.97 KCAL/MOL
REMARK 924 INTRA-LIGAND FREE ENERGY PREDICTED BY IDOCK:   -0.44 KCAL/MOL
REMARK 927      BINDING AFFINITY PREDICTED BY RF-SCORE:    0.00 PKD
ROOT
HETATM    1  O5* UNL     1      -8.448   6.244  64.178  1.00  0.00    -0.328 OA 
HETATM    2  H5* UNL     1      -8.009   5.820  63.450  1.00  0.00     0.000 HD 
HETATM    3  C5* UNL     1      -8.006   5.722  65.431  1.00  0.00    -0.117 C  
ENDROOT
BRANCH   3   4
HETATM    4  C4* UNL     1      -8.711   6.404  66.602  1.00  0.00    -0.127 C  
HETATM    5  O4* UNL     1      -8.701   7.835  66.455  1.00  0.00    -0.135 OA 
HETATM    6  C1* UNL     1      -9.757   8.313  67.302  1.00  0.00    -0.177 C  
HETATM    7  C2* UNL     1     -10.876   7.281  67.194  1.00  0.00    -0.378 C  
HETATM    8  H3* UNL     1     -11.233   4.731  67.811  1.00  0.00     0.000 HD 
HETATM    9  O3* UNL     1     -10.320   4.976  67.719  1.00  0.00    -0.136 OA 
HETATM   10  C3* UNL     1     -10.179   6.010  66.749  1.00  0.00    -0.214 C  
BRANCH   6  11
HETATM   11  N   UNL     1     -10.154   9.678  66.958  1.00  0.00    -0.200 N  
HETATM   12  C   UNL     1     -10.216  10.113  65.645  1.00  0.00    -0.218 C  
HETATM   13  C   UNL     1     -10.476  11.865  63.904  1.00  0.00    -0.397 C  
HETATM   14  C   UNL     1     -10.452  11.390  65.309  1.00  0.00    -0.340 C  
HETATM   15  C   UNL     1     -10.662  12.359  66.391  1.00  0.00    -0.247 C  
HETATM   16  O   UNL     1     -10.818  13.559  66.206  1.00  0.00    -0.287 OA 
HETATM   17  N   UNL     1     -10.660  11.844  67.660  1.00  0.00    -0.206 N  
HETATM   18  F   UNL     1     -10.612  13.200  63.726  1.00  0.00    -0.389 F  
HETATM   19  F   UNL     1      -9.332  11.514  63.254  1.00  0.00    -0.267 F  
HETATM   20  F   UNL     1     -11.492  11.281  63.211  1.00  0.00    -0.426 F  
HETATM   21  C   UNL     1     -10.361  10.556  68.014  1.00  0.00    -0.181 C  
HETATM   22  H   UNL     1     -10.907  12.483  68.416  1.00  0.00     0.000 HD 
HETATM   23  O   UNL     1     -10.277  10.244  69.200  1.00  0.00    -0.193 OA 
ENDBRANCH   6  11
ENDBRANCH   3   4
TORSDOF 2
ENDMDL
MODEL      128
REMARK 921   NORMALIZED FREE ENERGY PREDICTED BY IDOCK:   -4.41 KCAL/MOL
REMARK 922        TOTAL FREE ENERGY PREDICTED BY IDOCK:   -5.36 KCAL/MOL
REMARK 923 INTER-LIGAND FREE ENERGY PREDICTED BY IDOCK:   -4.95 KCAL/MOL
REMARK 924 INTRA-LIGAND FREE ENERGY PREDICTED BY IDOCK:   -0.41 KCAL/MOL
REMARK 927      BINDING AFFINITY PREDICTED BY RF-SCORE:    0.00 PKD
ROOT
HETATM    1  O5* UNL     1      -5.954  13.013  71.425  1.00  0.00    -0.550 OA 
HETATM    2  H5* UNL     1      -5.136  12.990  71.907  1.00  0.00     0.000 HD 
HETATM    3  C5* UNL     1      -5.969  14.073  70.470  1.00  0.00    -0.177 C  
ENDROOT
BRANCH   3   4
HETATM    4  C4* UNL     1      -7.285  14.110  69.695  1.00  0.00     0.107 C  
HETATM    5  O4* UNL     1      -7.871  15.424  69.724  1.00  0.00    -0.196 OA 
HETATM    6  C1* UNL     1      -8.787  15.458  68.619  1.00  0.00    -0.186 C  
HETATM    7  C2* UNL     1      -8.121  14.658  67.502  1.00  0.00    -0.200 C  
HETATM    8  H3* UNL     1      -7.366  12.155  67.090  1.00  0.00     0.000 HD 
HETATM    9  O3* UNL     1      -7.457  12.378  68.008  1.00  0.00    -0.094 OA 
HETATM   10  C3* UNL     1      -7.139  13.751  68.218  1.00  0.00    -0.109 C  
BRANCH   6  11
HETATM   11  N   UNL     1      -9.148  16.827  68.254  1.00  0.00    -0.221 N  
HETATM   12  C   UNL     1      -8.191  17.775  67.936  1.00  0.00    -0.237 C  
HETATM   13  C   UNL     1      -7.456  20.092  67.424  1.00  0.00    -0.290 C  
HETATM   14  C   UNL     1      -8.486  19.067  67.723  1.00  0.00    -0.323 C  
HETATM   15  C   UNL     1      -9.890  19.478  67.826  1.00  0.00    -0.366 C  
HETATM   16  O   UNL     1     -10.267  20.638  67.719  1.00  0.00    -0.283 OA 
HETATM   17  N   UNL     1     -10.788  18.474  68.071  1.00  0.00    -0.283 N  
HETATM   18  F   UNL     1      -7.891  21.372  67.348  1.00  0.00    -0.337 F  
HETATM   19  F   UNL     1      -6.475  20.084  68.369  1.00  0.00    -0.278 F  
HETATM   20  F   UNL     1      -6.836  19.828  66.242  1.00  0.00    -0.197 F  
HETATM   21  C   UNL     1     -10.491  17.168  68.348  1.00  0.00    -0.376 C  
HETATM   22  H   UNL     1     -11.777  18.725  68.043  1.00  0.00     0.000 HD 
HETATM   23  O   UNL     1     -11.383  16.384  68.669  1.00  0.00    -0.355 OA 
ENDBRANCH   6  11
ENDBRANCH   3   4
TORSDOF 2
ENDMDL
MODEL      129
REMARK 921   NORMALIZED FREE ENERGY PREDICTED BY IDOCK:   -4.40 KCAL/MOL
REMARK 922        TOTAL FREE ENERGY PREDICTED BY IDOCK:   -5.34 KCAL/MOL
REMARK 923 INTER-LIGAND FREE ENERGY PREDICTED BY IDOCK:   -5.07 KCAL/MOL
REMARK 924 INTRA-LIGAND FREE ENERGY PREDICTED BY IDOCK:   -0.27 KCAL/MOL
REMARK 927      BINDING AFFINITY PREDICTED BY RF-SCORE:    0.00 PKD
ROOT
HETATM    1  O5* UNL     1      -7.519   8.985  71.695  1.00  0.00    -0.293 OA 
HETATM    2  H5* UNL     1      -6.844   8.334  71.847  1.00  0.00     0.000 HD 
HETATM    3  C5* UNL     1      -8.081   8.860  70.389  1.00  0.00    -0.128 C  
ENDROOT
BRANCH   3   4
HETATM    4  C4* UNL     1      -9.166   9.908  70.145  1.00  0.00    -0.135 C  
HETATM    5  O4* UNL     1      -9.063  10.467  68.823  1.00  0.00    -0.150 OA 
HETATM    6  C1* UNL     1     -10.352  11.038  68.549  1.00  0.00    -0.190 C  
HETATM    7  C2* UNL     1     -11.369  10.094  69.185  1.00  0.00    -0.198 C  
HETATM    8  H3* UNL     1     -12.001   9.277  71.623  1.00  0.00     0.000 HD 
HETATM    9  O3* UNL     1     -11.117   9.618  71.553  1.00  0.00    -0.370 OA 
HETATM   10  C3* UNL     1     -10.587   9.359  70.257  1.00  0.00    -0.250 C  
BRANCH   6  11
HETATM   11  N   UNL     1     -10.550  11.271  67.119  1.00  0.00    -0.223 N  
HETATM   12  C   UNL     1      -9.734  10.689  66.164  1.00  0.00    -0.205 C  
HETATM   13  C   UNL     1      -8.912  10.395  63.838  1.00  0.00    -0.227 C  
HETATM   14  C   UNL     1      -9.814  10.985  64.857  1.00  0.00    -0.327 C  
HETATM   15  C   UNL     1     -10.820  11.965  64.434  1.00  0.00    -0.332 C  
HETATM   16  O   UNL     1     -10.938  12.361  63.282  1.00  0.00    -0.438 OA 
HETATM   17  N   UNL     1     -11.639  12.442  65.422  1.00  0.00    -0.366 N  
HETATM   18  F   UNL     1      -9.035  10.876  62.580  1.00  0.00    -0.225 F  
HETATM   19  F   UNL     1      -7.607  10.575  64.184  1.00  0.00    -0.136 F  
HETATM   20  F   UNL     1      -9.091   9.048  63.753  1.00  0.00    -0.176 F  
HETATM   21  C   UNL     1     -11.526  12.192  66.763  1.00  0.00    -0.356 C  
HETATM   22  H   UNL     1     -12.410  13.044  65.130  1.00  0.00     0.000 HD 
HETATM   23  O   UNL     1     -12.252  12.776  67.565  1.00  0.00    -0.348 OA 
ENDBRANCH   6  11
ENDBRANCH   3   4
TORSDOF 2
ENDMDL
MODEL      130
REMARK 921   NORMALIZED FREE ENERGY PREDICTED BY IDOCK:   -4.40 KCAL/MOL
REMARK 922        TOTAL FREE ENERGY PREDICTED BY IDOCK:   -5.34 KCAL/MOL
REMARK 923 INTER-LIGAND FREE ENERGY PREDICTED BY IDOCK:   -6.08 KCAL/MOL
REMARK 924 INTRA-LIGAND FREE ENERGY PREDICTED BY IDOCK:    0.74 KCAL/MOL
REMARK 927      BINDING AFFINITY PREDICTED BY RF-SCORE:    0.00 PKD
ROOT
HETATM    1  O5* UNL     1     -12.647  13.957  63.108  1.00  0.00    -1.057 OA 
HETATM    2  H5* UNL     1     -13.318  13.957  62.436  1.00  0.00     0.000 HD 
HETATM    3  C5* UNL     1     -12.030  12.677  63.232  1.00  0.00    -0.441 C  
ENDROOT
BRANCH   3   4
HETATM    4  C4* UNL     1     -10.950  12.678  64.313  1.00  0.00    -0.366 C  
HETATM    5  O4* UNL     1     -11.393  13.374  65.492  1.00  0.00    -0.292 OA 
HETATM    6  C1* UNL     1     -10.541  12.909  66.551  1.00  0.00    -0.259 C  
HETATM    7  C2* UNL     1     -10.293  11.430  66.267  1.00  0.00    -0.287 C  
HETATM    8  H3* UNL     1      -9.119   9.983  64.386  1.00  0.00     0.000 HD 
HETATM    9  O3* UNL     1      -9.371  10.852  64.096  1.00  0.00    -0.217 OA 
HETATM   10  C3* UNL     1     -10.545  11.281  64.779  1.00  0.00    -0.312 C  
BRANCH   6  11
HETATM   11  N   UNL     1     -11.111  13.188  67.868  1.00  0.00    -0.252 N  
HETATM   12  C   UNL     1     -10.889  14.389  68.521  1.00  0.00    -0.251 C  
HETATM   13  C   UNL     1     -11.018  15.890  70.496  1.00  0.00    -0.330 C  
HETATM   14  C   UNL     1     -11.293  14.620  69.780  1.00  0.00    -0.315 C  
HETATM   15  C   UNL     1     -12.008  13.549  70.481  1.00  0.00    -0.269 C  
HETATM   16  O   UNL     1     -12.363  13.623  71.651  1.00  0.00    -0.238 OA 
HETATM   17  N   UNL     1     -12.256  12.419  69.748  1.00  0.00    -0.188 N  
HETATM   18  F   UNL     1     -11.385  15.934  71.798  1.00  0.00    -0.411 F  
HETATM   19  F   UNL     1      -9.689  16.184  70.470  1.00  0.00     0.283 F  
HETATM   20  F   UNL     1     -11.641  16.936  69.887  1.00  0.00     0.054 F  
HETATM   21  C   UNL     1     -11.796  12.151  68.487  1.00  0.00    -0.310 C  
HETATM   22  H   UNL     1     -12.841  11.706  70.185  1.00  0.00     0.000 HD 
HETATM   23  O   UNL     1     -11.988  11.048  67.980  1.00  0.00    -0.623 OA 
ENDBRANCH   6  11
ENDBRANCH   3   4
TORSDOF 2
ENDMDL
MODEL      131
REMARK 921   NORMALIZED FREE ENERGY PREDICTED BY IDOCK:   -4.39 KCAL/MOL
REMARK 922        TOTAL FREE ENERGY PREDICTED BY IDOCK:   -5.34 KCAL/MOL
REMARK 923 INTER-LIGAND FREE ENERGY PREDICTED BY IDOCK:   -4.94 KCAL/MOL
REMARK 924 INTRA-LIGAND FREE ENERGY PREDICTED BY IDOCK:   -0.40 KCAL/MOL
REMARK 927      BINDING AFFINITY PREDICTED BY RF-SCORE:    0.00 PKD
ROOT
HETATM    1  O5* UNL     1     -12.765   7.612  70.761  1.00  0.00    -0.546 OA 
HETATM    2  H5* UNL     1     -13.529   7.569  71.324  1.00  0.00     0.000 HD 
HETATM    3  C5* UNL     1     -11.969   8.762  71.046  1.00  0.00    -0.251 C  
ENDROOT
BRANCH   3   4
HETATM    4  C4* UNL     1     -10.741   8.831  70.140  1.00  0.00    -0.224 C  
HETATM    5  O4* UNL     1     -10.953   9.738  69.044  1.00  0.00    -0.219 OA 
HETATM    6  C1* UNL     1      -9.640  10.079  68.572  1.00  0.00    -0.151 C  
HETATM    7  C2* UNL     1      -8.760  10.164  69.816  1.00  0.00    -0.148 C  
HETATM    8  H3* UNL     1      -7.899   8.518  71.703  1.00  0.00     0.000 HD 
HETATM    9  O3* UNL     1      -8.683   8.214  71.261  1.00  0.00    -0.128 OA 
HETATM   10  C3* UNL     1      -9.481   9.320  70.850  1.00  0.00    -0.261 C  
BRANCH   6  11
HETATM   11  N   UNL     1      -9.654  11.291  67.754  1.00  0.00    -0.171 N  
HETATM   12  C   UNL     1      -9.888  12.540  68.302  1.00  0.00    -0.227 C  
HETATM   13  C   UNL     1     -10.326  14.980  68.142  1.00  0.00    -0.239 C  
HETATM   14  C   UNL     1     -10.032  13.648  67.558  1.00  0.00    -0.230 C  
HETATM   15  C   UNL     1      -9.927  13.517  66.101  1.00  0.00    -0.304 C  
HETATM   16  O   UNL     1     -10.108  14.444  65.322  1.00  0.00    -0.369 OA 
HETATM   17  N   UNL     1      -9.622  12.266  65.636  1.00  0.00    -0.393 N  
HETATM   18  F   UNL     1     -10.559  15.981  67.260  1.00  0.00    -0.293 F  
HETATM   19  F   UNL     1     -11.422  14.926  68.948  1.00  0.00    -0.253 F  
HETATM   20  F   UNL     1      -9.302  15.400  68.934  1.00  0.00    -0.174 F  
HETATM   21  C   UNL     1      -9.532  11.122  66.381  1.00  0.00    -0.193 C  
HETATM   22  H   UNL     1      -9.443  12.179  64.635  1.00  0.00     0.000 HD 
HETATM   23  O   UNL     1      -9.368  10.035  65.829  1.00  0.00    -0.163 OA 
ENDBRANCH   6  11
ENDBRANCH   3   4
TORSDOF 2
ENDMDL
MODEL      132
REMARK 921   NORMALIZED FREE ENERGY PREDICTED BY IDOCK:   -4.38 KCAL/MOL
REMARK 922        TOTAL FREE ENERGY PREDICTED BY IDOCK:   -5.33 KCAL/MOL
REMARK 923 INTER-LIGAND FREE ENERGY PREDICTED BY IDOCK:   -5.56 KCAL/MOL
REMARK 924 INTRA-LIGAND FREE ENERGY PREDICTED BY IDOCK:    0.23 KCAL/MOL
REMARK 927      BINDING AFFINITY PREDICTED BY RF-SCORE:    0.00 PKD
ROOT
HETATM    1  O5* UNL     1     -14.086   8.855  73.324  1.00  0.00    -1.211 OA 
HETATM    2  H5* UNL     1     -14.948   8.883  73.722  1.00  0.00     0.000 HD 
HETATM    3  C5* UNL     1     -14.107   8.160  72.077  1.00  0.00    -0.365 C  
ENDROOT
BRANCH   3   4
HETATM    4  C4* UNL     1     -12.720   8.115  71.438  1.00  0.00    -0.268 C  
HETATM    5  O4* UNL     1     -12.590   9.108  70.405  1.00  0.00     0.183 OA 
HETATM    6  C1* UNL     1     -11.177   9.293  70.230  1.00  0.00    -0.231 C  
HETATM    7  C2* UNL     1     -10.567   9.180  71.625  1.00  0.00    -0.427 C  
HETATM    8  H3* UNL     1     -10.318   7.319  73.491  1.00  0.00     0.000 HD 
HETATM    9  O3* UNL     1     -11.027   7.153  72.880  1.00  0.00    -0.283 OA 
HETATM   10  C3* UNL     1     -11.582   8.382  72.420  1.00  0.00    -0.380 C  
BRANCH   6  11
HETATM   11  N   UNL     1     -10.874  10.543  69.534  1.00  0.00    -0.240 N  
HETATM   12  C   UNL     1      -9.798  10.658  68.672  1.00  0.00    -0.179 C  
HETATM   13  C   UNL     1      -8.245  11.955  67.231  1.00  0.00    -0.170 C  
HETATM   14  C   UNL     1      -9.424  11.823  68.121  1.00  0.00    -0.193 C  
HETATM   15  C   UNL     1     -10.206  13.021  68.449  1.00  0.00    -0.245 C  
HETATM   16  O   UNL     1      -9.919  14.145  68.060  1.00  0.00    -0.216 OA 
HETATM   17  N   UNL     1     -11.299  12.818  69.248  1.00  0.00    -0.364 N  
HETATM   18  F   UNL     1      -7.924  13.213  66.845  1.00  0.00    -0.143 F  
HETATM   19  F   UNL     1      -7.129  11.449  67.826  1.00  0.00    -0.072 F  
HETATM   20  F   UNL     1      -8.415  11.236  66.088  1.00  0.00    -0.166 F  
HETATM   21  C   UNL     1     -11.652  11.646  69.861  1.00  0.00    -0.288 C  
HETATM   22  H   UNL     1     -11.912  13.620  69.400  1.00  0.00     0.000 HD 
HETATM   23  O   UNL     1     -12.592  11.621  70.652  1.00  0.00    -0.297 OA 
ENDBRANCH   6  11
ENDBRANCH   3   4
TORSDOF 2
ENDMDL
MODEL      133
REMARK 921   NORMALIZED FREE ENERGY PREDICTED BY IDOCK:   -4.38 KCAL/MOL
REMARK 922        TOTAL FREE ENERGY PREDICTED BY IDOCK:   -5.32 KCAL/MOL
REMARK 923 INTER-LIGAND FREE ENERGY PREDICTED BY IDOCK:   -4.74 KCAL/MOL
REMARK 924 INTRA-LIGAND FREE ENERGY PREDICTED BY IDOCK:   -0.58 KCAL/MOL
REMARK 927      BINDING AFFINITY PREDICTED BY RF-SCORE:    0.00 PKD
ROOT
HETATM    1  O5* UNL     1     -10.479  19.184  65.710  1.00  0.00    -0.502 OA 
HETATM    2  H5* UNL     1     -11.291  19.588  65.428  1.00  0.00     0.000 HD 
HETATM    3  C5* UNL     1     -10.676  18.356  66.855  1.00  0.00    -0.266 C  
ENDROOT
BRANCH   3   4
HETATM    4  C4* UNL     1      -9.370  17.707  67.309  1.00  0.00    -0.249 C  
HETATM    5  O4* UNL     1      -9.588  16.363  67.773  1.00  0.00    -0.228 OA 
HETATM    6  C1* UNL     1      -8.304  15.723  67.708  1.00  0.00    -0.154 C  
HETATM    7  C2* UNL     1      -7.626  16.278  66.459  1.00  0.00    -0.218 C  
HETATM    8  H3* UNL     1      -6.750  18.625  65.604  1.00  0.00     0.000 HD 
HETATM    9  O3* UNL     1      -7.403  18.690  66.290  1.00  0.00    -0.233 OA 
HETATM   10  C3* UNL     1      -8.319  17.603  66.206  1.00  0.00    -0.216 C  
BRANCH   6  11
HETATM   11  N   UNL     1      -8.420  14.266  67.741  1.00  0.00    -0.164 N  
HETATM   12  C   UNL     1      -9.354  13.590  66.975  1.00  0.00    -0.247 C  
HETATM   13  C   UNL     1     -10.598  11.551  66.291  1.00  0.00    -0.263 C  
HETATM   14  C   UNL     1      -9.567  12.269  67.081  1.00  0.00    -0.200 C  
HETATM   15  C   UNL     1      -8.762  11.518  68.050  1.00  0.00    -0.151 C  
HETATM   16  O   UNL     1      -8.915  10.325  68.279  1.00  0.00    -0.128 OA 
HETATM   17  N   UNL     1      -7.808  12.239  68.717  1.00  0.00    -0.302 N  
HETATM   18  F   UNL     1     -10.775  10.243  66.590  1.00  0.00    -0.296 F  
HETATM   19  F   UNL     1     -11.817  12.139  66.437  1.00  0.00    -0.423 F  
HETATM   20  F   UNL     1     -10.316  11.605  64.961  1.00  0.00    -0.268 F  
HETATM   21  C   UNL     1      -7.625  13.594  68.660  1.00  0.00    -0.115 C  
HETATM   22  H   UNL     1      -7.171  11.714  69.317  1.00  0.00     0.000 HD 
HETATM   23  O   UNL     1      -6.810  14.141  69.400  1.00  0.00    -0.120 OA 
ENDBRANCH   6  11
ENDBRANCH   3   4
TORSDOF 2
ENDMDL
MODEL      134
REMARK 921   NORMALIZED FREE ENERGY PREDICTED BY IDOCK:   -4.38 KCAL/MOL
REMARK 922        TOTAL FREE ENERGY PREDICTED BY IDOCK:   -5.32 KCAL/MOL
REMARK 923 INTER-LIGAND FREE ENERGY PREDICTED BY IDOCK:   -4.78 KCAL/MOL
REMARK 924 INTRA-LIGAND FREE ENERGY PREDICTED BY IDOCK:   -0.54 KCAL/MOL
REMARK 927      BINDING AFFINITY PREDICTED BY RF-SCORE:    0.00 PKD
ROOT
HETATM    1  O5* UNL     1     -12.486   8.243  73.092  1.00  0.00    -0.648 OA 
HETATM    2  H5* UNL     1     -12.924   9.035  73.380  1.00  0.00     0.000 HD 
HETATM    3  C5* UNL     1     -12.862   7.890  71.762  1.00  0.00    -0.328 C  
ENDROOT
BRANCH   3   4
HETATM    4  C4* UNL     1     -12.157   6.615  71.300  1.00  0.00    -0.341 C  
HETATM    5  O4* UNL     1     -11.808   6.688  69.906  1.00  0.00    -0.340 OA 
HETATM    6  C1* UNL     1     -10.775   5.708  69.720  1.00  0.00    -0.331 C  
HETATM    7  C2* UNL     1      -9.931   5.747  70.991  1.00  0.00    -0.243 C  
HETATM    8  H3* UNL     1     -10.270   5.227  73.565  1.00  0.00     0.000 HD 
HETATM    9  O3* UNL     1     -11.081   5.405  73.103  1.00  0.00    -0.277 OA 
HETATM   10  C3* UNL     1     -10.854   6.330  72.043  1.00  0.00    -0.245 C  
BRANCH   6  11
HETATM   11  N   UNL     1     -10.026   5.936  68.485  1.00  0.00    -0.138 N  
HETATM   12  C   UNL     1      -9.921   7.193  67.915  1.00  0.00    -0.154 C  
HETATM   13  C   UNL     1      -9.274   8.748  66.089  1.00  0.00    -0.215 C  
HETATM   14  C   UNL     1      -9.349   7.408  66.720  1.00  0.00    -0.202 C  
HETATM   15  C   UNL     1      -8.807   6.251  66.000  1.00  0.00    -0.151 C  
HETATM   16  O   UNL     1      -8.325   6.317  64.876  1.00  0.00    -0.137 OA 
HETATM   17  N   UNL     1      -8.881   5.052  66.657  1.00  0.00    -0.111 N  
HETATM   18  F   UNL     1      -8.773   8.790  64.833  1.00  0.00    -0.181 F  
HETATM   19  F   UNL     1     -10.507   9.322  66.022  1.00  0.00    -0.312 F  
HETATM   20  F   UNL     1      -8.511   9.594  66.834  1.00  0.00    -0.117 F  
HETATM   21  C   UNL     1      -9.514   4.814  67.846  1.00  0.00    -0.144 C  
HETATM   22  H   UNL     1      -8.417   4.257  66.216  1.00  0.00     0.000 HD 
HETATM   23  O   UNL     1      -9.613   3.667  68.277  1.00  0.00    -0.165 OA 
ENDBRANCH   6  11
ENDBRANCH   3   4
TORSDOF 2
ENDMDL
MODEL      135
REMARK 921   NORMALIZED FREE ENERGY PREDICTED BY IDOCK:   -4.37 KCAL/MOL
REMARK 922        TOTAL FREE ENERGY PREDICTED BY IDOCK:   -5.31 KCAL/MOL
REMARK 923 INTER-LIGAND FREE ENERGY PREDICTED BY IDOCK:   -4.74 KCAL/MOL
REMARK 924 INTRA-LIGAND FREE ENERGY PREDICTED BY IDOCK:   -0.57 KCAL/MOL
REMARK 927      BINDING AFFINITY PREDICTED BY RF-SCORE:    0.00 PKD
ROOT
HETATM    1  O5* UNL     1     -13.491  12.094  72.310  1.00  0.00    -0.583 OA 
HETATM    2  H5* UNL     1     -13.486  13.041  72.382  1.00  0.00     0.000 HD 
HETATM    3  C5* UNL     1     -12.867  11.657  71.103  1.00  0.00    -0.294 C  
ENDROOT
BRANCH   3   4
HETATM    4  C4* UNL     1     -12.875  10.133  70.988  1.00  0.00    -0.382 C  
HETATM    5  O4* UNL     1     -11.643   9.646  70.428  1.00  0.00    -0.258 OA 
HETATM    6  C1* UNL     1     -11.573   8.262  70.807  1.00  0.00    -0.236 C  
HETATM    7  C2* UNL     1     -12.160   8.186  72.214  1.00  0.00    -0.419 C  
HETATM    8  H3* UNL     1     -14.505   8.615  73.366  1.00  0.00     0.000 HD 
HETATM    9  O3* UNL     1     -14.403   9.061  72.533  1.00  0.00    -0.570 OA 
HETATM   10  C3* UNL     1     -13.039   9.417  72.326  1.00  0.00    -0.428 C  
BRANCH   6  11
HETATM   11  N   UNL     1     -10.215   7.734  70.685  1.00  0.00    -0.198 N  
HETATM   12  C   UNL     1      -9.108   8.464  71.080  1.00  0.00    -0.174 C  
HETATM   13  C   UNL     1      -6.661   8.859  71.247  1.00  0.00    -0.080 C  
HETATM   14  C   UNL     1      -7.848   8.056  70.863  1.00  0.00    -0.089 C  
HETATM   15  C   UNL     1      -7.649   6.772  70.183  1.00  0.00    -0.099 C  
HETATM   16  O   UNL     1      -6.549   6.332  69.873  1.00  0.00    -0.044 OA 
HETATM   17  N   UNL     1      -8.788   6.071  69.889  1.00  0.00    -0.137 N  
HETATM   18  F   UNL     1      -5.459   8.371  70.860  1.00  0.00    -0.028 F  
HETATM   19  F   UNL     1      -6.740  10.117  70.733  1.00  0.00    -0.120 F  
HETATM   20  F   UNL     1      -6.595   9.012  72.598  1.00  0.00    -0.071 F  
HETATM   21  C   UNL     1     -10.075   6.506  70.052  1.00  0.00    -0.174 C  
HETATM   22  H   UNL     1      -8.664   5.131  69.511  1.00  0.00     0.000 HD 
HETATM   23  O   UNL     1     -11.014   5.829  69.638  1.00  0.00    -0.354 OA 
ENDBRANCH   6  11
ENDBRANCH   3   4
TORSDOF 2
ENDMDL
MODEL      136
REMARK 921   NORMALIZED FREE ENERGY PREDICTED BY IDOCK:   -4.36 KCAL/MOL
REMARK 922        TOTAL FREE ENERGY PREDICTED BY IDOCK:   -5.30 KCAL/MOL
REMARK 923 INTER-LIGAND FREE ENERGY PREDICTED BY IDOCK:   -4.94 KCAL/MOL
REMARK 924 INTRA-LIGAND FREE ENERGY PREDICTED BY IDOCK:   -0.36 KCAL/MOL
REMARK 927      BINDING AFFINITY PREDICTED BY RF-SCORE:    0.00 PKD
ROOT
HETATM    1  O5* UNL     1      -5.962  10.352  67.871  1.00  0.00    -0.044 OA 
HETATM    2  H5* UNL     1      -5.029  10.528  67.857  1.00  0.00     0.000 HD 
HETATM    3  C5* UNL     1      -6.285   9.180  67.123  1.00  0.00    -0.058 C  
ENDROOT
BRANCH   3   4
HETATM    4  C4* UNL     1      -7.786   8.897  67.146  1.00  0.00    -0.095 C  
HETATM    5  O4* UNL     1      -8.458   9.722  68.114  1.00  0.00    -0.113 OA 
HETATM    6  C1* UNL     1      -9.839   9.724  67.721  1.00  0.00    -0.160 C  
HETATM    7  C2* UNL     1      -9.837   9.731  66.195  1.00  0.00    -0.329 C  
HETATM    8  H3* UNL     1      -9.052   8.119  64.247  1.00  0.00     0.000 HD 
HETATM    9  O3* UNL     1      -8.619   7.953  65.075  1.00  0.00    -0.104 OA 
HETATM   10  C3* UNL     1      -8.483   9.163  65.814  1.00  0.00    -0.141 C  
BRANCH   6  11
HETATM   11  N   UNL     1     -10.576  10.829  68.333  1.00  0.00    -0.184 N  
HETATM   12  C   UNL     1     -10.862  11.991  67.637  1.00  0.00    -0.231 C  
HETATM   13  C   UNL     1     -11.691  14.327  67.476  1.00  0.00    -0.384 C  
HETATM   14  C   UNL     1     -11.423  13.067  68.211  1.00  0.00    -0.347 C  
HETATM   15  C   UNL     1     -11.752  12.992  69.638  1.00  0.00    -0.297 C  
HETATM   16  O   UNL     1     -12.203  13.931  70.281  1.00  0.00    -0.318 OA 
HETATM   17  N   UNL     1     -11.509  11.787  70.243  1.00  0.00    -0.510 N  
HETATM   18  F   UNL     1     -12.153  15.363  68.215  1.00  0.00    -0.331 F  
HETATM   19  F   UNL     1     -10.563  14.778  66.860  1.00  0.00    -0.276 F  
HETATM   20  F   UNL     1     -12.601  14.128  66.484  1.00  0.00    -0.480 F  
HETATM   21  C   UNL     1     -10.883  10.708  69.681  1.00  0.00    -0.268 C  
HETATM   22  H   UNL     1     -11.826  11.685  71.207  1.00  0.00     0.000 HD 
HETATM   23  O   UNL     1     -10.616   9.722  70.366  1.00  0.00    -0.265 OA 
ENDBRANCH   6  11
ENDBRANCH   3   4
TORSDOF 2
ENDMDL
MODEL      137
REMARK 921   NORMALIZED FREE ENERGY PREDICTED BY IDOCK:   -4.35 KCAL/MOL
REMARK 922        TOTAL FREE ENERGY PREDICTED BY IDOCK:   -5.29 KCAL/MOL
REMARK 923 INTER-LIGAND FREE ENERGY PREDICTED BY IDOCK:   -4.88 KCAL/MOL
REMARK 924 INTRA-LIGAND FREE ENERGY PREDICTED BY IDOCK:   -0.40 KCAL/MOL
REMARK 927      BINDING AFFINITY PREDICTED BY RF-SCORE:    0.00 PKD
ROOT
HETATM    1  O5* UNL     1      -7.057  18.600  67.950  1.00  0.00    -0.227 OA 
HETATM    2  H5* UNL     1      -6.186  18.777  68.284  1.00  0.00     0.000 HD 
HETATM    3  C5* UNL     1      -7.051  18.434  66.533  1.00  0.00    -0.221 C  
ENDROOT
BRANCH   3   4
HETATM    4  C4* UNL     1      -8.452  18.148  65.996  1.00  0.00    -0.007 C  
HETATM    5  O4* UNL     1      -8.658  16.738  65.800  1.00  0.00    -0.485 OA 
HETATM    6  C1* UNL     1     -10.083  16.561  65.771  1.00  0.00    -0.303 C  
HETATM    7  C2* UNL     1     -10.646  17.546  66.792  1.00  0.00    -0.201 C  
HETATM    8  H3* UNL     1     -10.753  20.173  67.102  1.00  0.00     0.000 HD 
HETATM    9  O3* UNL     1     -10.057  19.887  66.523  1.00  0.00    -0.417 OA 
HETATM   10  C3* UNL     1      -9.572  18.609  66.926  1.00  0.00    -0.310 C  
BRANCH   6  11
HETATM   11  N   UNL     1     -10.462  15.167  65.998  1.00  0.00    -0.303 N  
HETATM   12  C   UNL     1      -9.630  14.282  66.661  1.00  0.00    -0.289 C  
HETATM   13  C   UNL     1      -8.985  12.014  67.444  1.00  0.00    -0.176 C  
HETATM   14  C   UNL     1      -9.897  12.971  66.771  1.00  0.00    -0.243 C  
HETATM   15  C   UNL     1     -11.134  12.468  66.163  1.00  0.00    -0.298 C  
HETATM   16  O   UNL     1     -11.447  11.285  66.142  1.00  0.00    -0.217 OA 
HETATM   17  N   UNL     1     -11.943  13.413  65.589  1.00  0.00    -0.377 N  
HETATM   18  F   UNL     1      -9.333  10.708  67.374  1.00  0.00    -0.142 F  
HETATM   19  F   UNL     1      -7.728  12.097  66.927  1.00  0.00    -0.152 F  
HETATM   20  F   UNL     1      -8.864  12.308  68.767  1.00  0.00    -0.128 F  
HETATM   21  C   UNL     1     -11.650  14.739  65.421  1.00  0.00    -0.316 C  
HETATM   22  H   UNL     1     -12.853  13.096  65.254  1.00  0.00     0.000 HD 
HETATM   23  O   UNL     1     -12.410  15.464  64.781  1.00  0.00    -0.074 OA 
ENDBRANCH   6  11
ENDBRANCH   3   4
TORSDOF 2
ENDMDL
MODEL      138
REMARK 921   NORMALIZED FREE ENERGY PREDICTED BY IDOCK:   -4.34 KCAL/MOL
REMARK 922        TOTAL FREE ENERGY PREDICTED BY IDOCK:   -5.28 KCAL/MOL
REMARK 923 INTER-LIGAND FREE ENERGY PREDICTED BY IDOCK:   -4.83 KCAL/MOL
REMARK 924 INTRA-LIGAND FREE ENERGY PREDICTED BY IDOCK:   -0.45 KCAL/MOL
REMARK 927      BINDING AFFINITY PREDICTED BY RF-SCORE:    0.00 PKD
ROOT
HETATM    1  O5* UNL     1      -8.124  12.335  67.121  1.00  0.00    -0.173 OA 
HETATM    2  H5* UNL     1      -7.764  13.209  67.028  1.00  0.00     0.000 HD 
HETATM    3  C5* UNL     1      -7.212  11.342  66.654  1.00  0.00    -0.126 C  
ENDROOT
BRANCH   3   4
HETATM    4  C4* UNL     1      -7.791   9.936  66.803  1.00  0.00    -0.109 C  
HETATM    5  O4* UNL     1      -8.220   9.690  68.154  1.00  0.00    -0.105 OA 
HETATM    6  C1* UNL     1      -9.143   8.593  68.067  1.00  0.00    -0.140 C  
HETATM    7  C2* UNL     1      -9.918   8.802  66.769  1.00  0.00    -0.338 C  
HETATM    8  H3* UNL     1      -9.385   8.852  64.176  1.00  0.00     0.000 HD 
HETATM    9  O3* UNL     1      -8.626   9.013  64.723  1.00  0.00    -0.173 OA 
HETATM   10  C3* UNL     1      -9.012   9.677  65.923  1.00  0.00    -0.167 C  
BRANCH   6  11
HETATM   11  N   UNL     1      -9.978   8.489  69.263  1.00  0.00    -0.190 N  
HETATM   12  C   UNL     1     -10.914   9.456  69.587  1.00  0.00    -0.197 C  
HETATM   13  C   UNL     1     -12.574  10.508  71.107  1.00  0.00    -0.417 C  
HETATM   14  C   UNL     1     -11.601   9.450  70.740  1.00  0.00    -0.364 C  
HETATM   15  C   UNL     1     -11.345   8.360  71.688  1.00  0.00    -0.286 C  
HETATM   16  O   UNL     1     -11.862   8.289  72.795  1.00  0.00    -0.388 OA 
HETATM   17  N   UNL     1     -10.462   7.401  71.268  1.00  0.00    -0.208 N  
HETATM   18  F   UNL     1     -13.102  10.430  72.350  1.00  0.00    -0.503 F  
HETATM   19  F   UNL     1     -12.004  11.742  71.018  1.00  0.00    -0.407 F  
HETATM   20  F   UNL     1     -13.626  10.522  70.244  1.00  0.00    -0.218 F  
HETATM   21  C   UNL     1      -9.714   7.431  70.123  1.00  0.00    -0.175 C  
HETATM   22  H   UNL     1     -10.350   6.584  71.869  1.00  0.00     0.000 HD 
HETATM   23  O   UNL     1      -8.865   6.566  69.915  1.00  0.00    -0.141 OA 
ENDBRANCH   6  11
ENDBRANCH   3   4
TORSDOF 2
ENDMDL
MODEL      139
REMARK 921   NORMALIZED FREE ENERGY PREDICTED BY IDOCK:   -4.34 KCAL/MOL
REMARK 922        TOTAL FREE ENERGY PREDICTED BY IDOCK:   -5.28 KCAL/MOL
REMARK 923 INTER-LIGAND FREE ENERGY PREDICTED BY IDOCK:   -4.84 KCAL/MOL
REMARK 924 INTRA-LIGAND FREE ENERGY PREDICTED BY IDOCK:   -0.44 KCAL/MOL
REMARK 927      BINDING AFFINITY PREDICTED BY RF-SCORE:    0.00 PKD
ROOT
HETATM    1  O5* UNL     1     -11.354  14.758  66.222  1.00  0.00    -0.343 OA 
HETATM    2  H5* UNL     1     -11.016  14.864  65.341  1.00  0.00     0.000 HD 
HETATM    3  C5* UNL     1     -11.675  13.396  66.500  1.00  0.00    -0.373 C  
ENDROOT
BRANCH   3   4
HETATM    4  C4* UNL     1     -12.219  13.226  67.917  1.00  0.00    -0.087 C  
HETATM    5  O4* UNL     1     -12.274  11.838  68.292  1.00  0.00    -0.486 OA 
HETATM    6  C1* UNL     1     -12.326  11.832  69.727  1.00  0.00    -0.111 C  
HETATM    7  C2* UNL     1     -11.429  12.981  70.180  1.00  0.00    -0.009 C  
HETATM    8  H3* UNL     1     -11.396  15.620  69.969  1.00  0.00     0.000 HD 
HETATM    9  O3* UNL     1     -11.921  15.191  69.303  1.00  0.00    -0.312 OA 
HETATM   10  C3* UNL     1     -11.375  13.915  68.986  1.00  0.00    -0.283 C  
BRANCH   6  11
HETATM   11  N   UNL     1     -11.966  10.527  70.279  1.00  0.00    -0.301 N  
HETATM   12  C   UNL     1     -11.317   9.567  69.522  1.00  0.00     0.010 C  
HETATM   13  C   UNL     1     -10.434   7.277  69.136  1.00  0.00    -0.215 C  
HETATM   14  C   UNL     1     -11.091   8.319  69.962  1.00  0.00    -0.147 C  
HETATM   15  C   UNL     1     -11.549   7.973  71.312  1.00  0.00    -0.276 C  
HETATM   16  O   UNL     1     -11.457   6.850  71.792  1.00  0.00    -0.252 OA 
HETATM   17  N   UNL     1     -12.115   8.993  72.029  1.00  0.00    -0.370 N  
HETATM   18  F   UNL     1     -10.378   6.036  69.672  1.00  0.00    -0.206 F  
HETATM   19  F   UNL     1     -11.064   7.141  67.937  1.00  0.00    -0.245 F  
HETATM   20  F   UNL     1      -9.151   7.626  68.844  1.00  0.00    -0.140 F  
HETATM   21  C   UNL     1     -12.404  10.248  71.567  1.00  0.00    -0.390 C  
HETATM   22  H   UNL     1     -12.345   8.797  73.004  1.00  0.00     0.000 HD 
HETATM   23  O   UNL     1     -13.024  11.041  72.274  1.00  0.00    -0.305 OA 
ENDBRANCH   6  11
ENDBRANCH   3   4
TORSDOF 2
ENDMDL
MODEL      140
REMARK 921   NORMALIZED FREE ENERGY PREDICTED BY IDOCK:   -4.30 KCAL/MOL
REMARK 922        TOTAL FREE ENERGY PREDICTED BY IDOCK:   -5.23 KCAL/MOL
REMARK 923 INTER-LIGAND FREE ENERGY PREDICTED BY IDOCK:   -5.38 KCAL/MOL
REMARK 924 INTRA-LIGAND FREE ENERGY PREDICTED BY IDOCK:    0.16 KCAL/MOL
REMARK 927      BINDING AFFINITY PREDICTED BY RF-SCORE:    0.00 PKD
ROOT
HETATM    1  O5* UNL     1     -11.281   7.135  69.157  1.00  0.00    -0.451 OA 
HETATM    2  H5* UNL     1     -11.049   6.277  68.822  1.00  0.00     0.000 HD 
HETATM    3  C5* UNL     1     -10.252   7.668  69.989  1.00  0.00    -0.213 C  
ENDROOT
BRANCH   3   4
HETATM    4  C4* UNL     1     -10.625   9.049  70.527  1.00  0.00    -0.227 C  
HETATM    5  O4* UNL     1     -10.289  10.084  69.586  1.00  0.00    -0.215 OA 
HETATM    6  C1* UNL     1     -11.089  11.216  69.962  1.00  0.00    -0.098 C  
HETATM    7  C2* UNL     1     -12.427  10.645  70.422  1.00  0.00    -0.421 C  
HETATM    8  H3* UNL     1     -13.308   9.091  72.375  1.00  0.00     0.000 HD 
HETATM    9  O3* UNL     1     -12.381   8.988  72.196  1.00  0.00    -0.368 OA 
HETATM   10  C3* UNL     1     -12.115   9.214  70.815  1.00  0.00    -0.149 C  
BRANCH   6  11
HETATM   11  N   UNL     1     -11.185  12.196  68.881  1.00  0.00    -0.251 N  
HETATM   12  C   UNL     1     -11.095  13.557  69.119  1.00  0.00    -0.225 C  
HETATM   13  C   UNL     1     -11.252  15.939  68.431  1.00  0.00    -0.368 C  
HETATM   14  C   UNL     1     -11.306  14.480  68.168  1.00  0.00    -0.319 C  
HETATM   15  C   UNL     1     -11.638  14.012  66.817  1.00  0.00    -0.386 C  
HETATM   16  O   UNL     1     -11.916  14.761  65.890  1.00  0.00    -0.281 OA 
HETATM   17  N   UNL     1     -11.637  12.654  66.640  1.00  0.00    -0.361 N  
HETATM   18  F   UNL     1     -11.601  16.745  67.401  1.00  0.00     0.077 F  
HETATM   19  F   UNL     1     -12.070  16.275  69.466  1.00  0.00    -0.240 F  
HETATM   20  F   UNL     1     -10.001  16.318  68.808  1.00  0.00    -0.204 F  
HETATM   21  C   UNL     1     -11.482  11.708  67.616  1.00  0.00    -0.303 C  
HETATM   22  H   UNL     1     -11.763  12.315  65.686  1.00  0.00     0.000 HD 
HETATM   23  O   UNL     1     -11.619  10.515  67.349  1.00  0.00    -0.383 OA 
ENDBRANCH   6  11
ENDBRANCH   3   4
TORSDOF 2
ENDMDL
MODEL      141
REMARK 921   NORMALIZED FREE ENERGY PREDICTED BY IDOCK:   -4.29 KCAL/MOL
REMARK 922        TOTAL FREE ENERGY PREDICTED BY IDOCK:   -5.22 KCAL/MOL
REMARK 923 INTER-LIGAND FREE ENERGY PREDICTED BY IDOCK:   -5.37 KCAL/MOL
REMARK 924 INTRA-LIGAND FREE ENERGY PREDICTED BY IDOCK:    0.14 KCAL/MOL
REMARK 927      BINDING AFFINITY PREDICTED BY RF-SCORE:    0.00 PKD
ROOT
HETATM    1  O5* UNL     1     -11.017   6.915  73.584  1.00  0.00    -0.530 OA 
HETATM    2  H5* UNL     1     -11.577   6.463  74.203  1.00  0.00     0.000 HD 
HETATM    3  C5* UNL     1     -10.368   6.001  72.702  1.00  0.00    -0.196 C  
ENDROOT
BRANCH   3   4
HETATM    4  C4* UNL     1      -9.467   6.728  71.705  1.00  0.00    -0.150 C  
HETATM    5  O4* UNL     1     -10.231   7.286  70.621  1.00  0.00    -0.195 OA 
HETATM    6  C1* UNL     1      -9.395   8.304  70.050  1.00  0.00    -0.162 C  
HETATM    7  C2* UNL     1      -8.662   8.948  71.223  1.00  0.00    -0.279 C  
HETATM    8  H3* UNL     1      -6.895   8.208  73.051  1.00  0.00     0.000 HD 
HETATM    9  O3* UNL     1      -7.376   7.482  72.672  1.00  0.00    -0.070 OA 
HETATM   10  C3* UNL     1      -8.693   7.894  72.314  1.00  0.00    -0.147 C  
BRANCH   6  11
HETATM   11  N   UNL     1     -10.163   9.238  69.226  1.00  0.00    -0.199 N  
HETATM   12  C   UNL     1      -9.812   9.516  67.917  1.00  0.00    -0.156 C  
HETATM   13  C   UNL     1     -10.016  10.790  65.794  1.00  0.00    -0.251 C  
HETATM   14  C   UNL     1     -10.420  10.461  67.183  1.00  0.00    -0.311 C  
HETATM   15  C   UNL     1     -11.510  11.220  67.805  1.00  0.00    -0.275 C  
HETATM   16  O   UNL     1     -12.090  12.148  67.256  1.00  0.00    -0.565 OA 
HETATM   17  N   UNL     1     -11.851  10.839  69.076  1.00  0.00    -0.477 N  
HETATM   18  F   UNL     1     -10.645  11.843  65.222  1.00  0.00    -0.275 F  
HETATM   19  F   UNL     1      -8.684  11.066  65.729  1.00  0.00    -0.175 F  
HETATM   20  F   UNL     1     -10.216   9.728  64.965  1.00  0.00    -0.382 F  
HETATM   21  C   UNL     1     -11.198   9.920  69.852  1.00  0.00    -0.250 C  
HETATM   22  H   UNL     1     -12.672  11.285  69.485  1.00  0.00     0.000 HD 
HETATM   23  O   UNL     1     -11.530   9.752  71.024  1.00  0.00    -0.322 OA 
ENDBRANCH   6  11
ENDBRANCH   3   4
TORSDOF 2
ENDMDL
MODEL      142
REMARK 921   NORMALIZED FREE ENERGY PREDICTED BY IDOCK:   -4.29 KCAL/MOL
REMARK 922        TOTAL FREE ENERGY PREDICTED BY IDOCK:   -5.22 KCAL/MOL
REMARK 923 INTER-LIGAND FREE ENERGY PREDICTED BY IDOCK:   -4.69 KCAL/MOL
REMARK 924 INTRA-LIGAND FREE ENERGY PREDICTED BY IDOCK:   -0.54 KCAL/MOL
REMARK 927      BINDING AFFINITY PREDICTED BY RF-SCORE:    0.00 PKD
ROOT
HETATM    1  O5* UNL     1     -13.659   8.726  72.968  1.00  0.00    -0.882 OA 
HETATM    2  H5* UNL     1     -14.180   8.013  73.317  1.00  0.00     0.000 HD 
HETATM    3  C5* UNL     1     -12.444   8.252  72.389  1.00  0.00    -0.302 C  
ENDROOT
BRANCH   3   4
HETATM    4  C4* UNL     1     -11.606   9.399  71.827  1.00  0.00    -0.363 C  
HETATM    5  O4* UNL     1     -10.385   8.915  71.239  1.00  0.00    -0.234 OA 
HETATM    6  C1* UNL     1      -9.944   9.960  70.359  1.00  0.00    -0.160 C  
HETATM    7  C2* UNL     1     -11.212  10.551  69.747  1.00  0.00    -0.361 C  
HETATM    8  H3* UNL     1     -13.350  11.860  70.596  1.00  0.00     0.000 HD 
HETATM    9  O3* UNL     1     -12.912  11.365  71.277  1.00  0.00    -0.385 OA 
HETATM   10  C3* UNL     1     -12.310  10.196  70.731  1.00  0.00    -0.328 C  
BRANCH   6  11
HETATM   11  N   UNL     1      -8.968   9.475  69.385  1.00  0.00    -0.160 N  
HETATM   12  C   UNL     1      -9.352   8.963  68.157  1.00  0.00    -0.142 C  
HETATM   13  C   UNL     1      -8.908   7.809  66.003  1.00  0.00    -0.157 C  
HETATM   14  C   UNL     1      -8.490   8.396  67.300  1.00  0.00    -0.124 C  
HETATM   15  C   UNL     1      -7.077   8.328  67.690  1.00  0.00    -0.083 C  
HETATM   16  O   UNL     1      -6.215   7.775  67.020  1.00  0.00    -0.050 OA 
HETATM   17  N   UNL     1      -6.760   8.919  68.883  1.00  0.00    -0.052 N  
HETATM   18  F   UNL     1      -7.945   7.169  65.299  1.00  0.00    -0.098 F  
HETATM   19  F   UNL     1      -9.908   6.903  66.181  1.00  0.00    -0.172 F  
HETATM   20  F   UNL     1      -9.415   8.765  65.178  1.00  0.00    -0.207 F  
HETATM   21  C   UNL     1      -7.640   9.446  69.789  1.00  0.00    -0.095 C  
HETATM   22  H   UNL     1      -5.769   8.973  69.120  1.00  0.00     0.000 HD 
HETATM   23  O   UNL     1      -7.240   9.842  70.882  1.00  0.00    -0.330 OA 
ENDBRANCH   6  11
ENDBRANCH   3   4
TORSDOF 2
ENDMDL
MODEL      143
REMARK 921   NORMALIZED FREE ENERGY PREDICTED BY IDOCK:   -4.26 KCAL/MOL
REMARK 922        TOTAL FREE ENERGY PREDICTED BY IDOCK:   -5.19 KCAL/MOL
REMARK 923 INTER-LIGAND FREE ENERGY PREDICTED BY IDOCK:   -4.75 KCAL/MOL
REMARK 924 INTRA-LIGAND FREE ENERGY PREDICTED BY IDOCK:   -0.44 KCAL/MOL
REMARK 927      BINDING AFFINITY PREDICTED BY RF-SCORE:    0.00 PKD
ROOT
HETATM    1  O5* UNL     1     -11.671  13.297  70.646  1.00  0.00    -0.520 OA 
HETATM    2  H5* UNL     1     -12.140  13.847  71.261  1.00  0.00     0.000 HD 
HETATM    3  C5* UNL     1     -11.747  13.814  69.318  1.00  0.00    -0.327 C  
ENDROOT
BRANCH   3   4
HETATM    4  C4* UNL     1     -10.992  12.928  68.328  1.00  0.00    -0.256 C  
HETATM    5  O4* UNL     1     -10.279  11.879  69.005  1.00  0.00    -0.128 OA 
HETATM    6  C1* UNL     1     -10.031  10.879  68.005  1.00  0.00    -0.171 C  
HETATM    7  C2* UNL     1     -11.269  10.865  67.114  1.00  0.00    -0.258 C  
HETATM    8  H3* UNL     1     -12.492  12.535  65.462  1.00  0.00     0.000 HD 
HETATM    9  O3* UNL     1     -11.930  12.968  66.093  1.00  0.00    -0.395 OA 
HETATM   10  C3* UNL     1     -11.896  12.232  67.313  1.00  0.00    -0.260 C  
BRANCH   6  11
HETATM   11  N   UNL     1      -9.696   9.586  68.601  1.00  0.00    -0.152 N  
HETATM   12  C   UNL     1     -10.629   8.840  69.301  1.00  0.00    -0.197 C  
HETATM   13  C   UNL     1     -11.306   6.939  70.750  1.00  0.00    -0.310 C  
HETATM   14  C   UNL     1     -10.316   7.716  69.963  1.00  0.00    -0.223 C  
HETATM   15  C   UNL     1      -8.922   7.262  69.929  1.00  0.00    -0.142 C  
HETATM   16  O   UNL     1      -8.509   6.291  70.549  1.00  0.00    -0.133 OA 
HETATM   17  N   UNL     1      -8.072   8.008  69.156  1.00  0.00    -0.117 N  
HETATM   18  F   UNL     1     -10.819   5.893  71.457  1.00  0.00    -0.276 F  
HETATM   19  F   UNL     1     -11.944   7.738  71.650  1.00  0.00    -0.267 F  
HETATM   20  F   UNL     1     -12.280   6.436  69.943  1.00  0.00    -0.410 F  
HETATM   21  C   UNL     1      -8.368   9.187  68.528  1.00  0.00    -0.123 C  
HETATM   22  H   UNL     1      -7.124   7.649  69.037  1.00  0.00     0.000 HD 
HETATM   23  O   UNL     1      -7.483   9.825  67.960  1.00  0.00    -0.081 OA 
ENDBRANCH   6  11
ENDBRANCH   3   4
TORSDOF 2
ENDMDL
MODEL      144
REMARK 921   NORMALIZED FREE ENERGY PREDICTED BY IDOCK:   -4.25 KCAL/MOL
REMARK 922        TOTAL FREE ENERGY PREDICTED BY IDOCK:   -5.18 KCAL/MOL
REMARK 923 INTER-LIGAND FREE ENERGY PREDICTED BY IDOCK:   -4.85 KCAL/MOL
REMARK 924 INTRA-LIGAND FREE ENERGY PREDICTED BY IDOCK:   -0.33 KCAL/MOL
REMARK 927      BINDING AFFINITY PREDICTED BY RF-SCORE:    0.00 PKD
ROOT
HETATM    1  O5* UNL     1     -12.256  13.571  64.817  1.00  0.00    -0.384 OA 
HETATM    2  H5* UNL     1     -13.187  13.452  64.672  1.00  0.00     0.000 HD 
HETATM    3  C5* UNL     1     -11.663  12.406  65.389  1.00  0.00    -0.402 C  
ENDROOT
BRANCH   3   4
HETATM    4  C4* UNL     1     -10.165  12.598  65.622  1.00  0.00    -0.273 C  
HETATM    5  O4* UNL     1      -9.858  13.965  65.947  1.00  0.00    -0.298 OA 
HETATM    6  C1* UNL     1      -8.576  13.926  66.592  1.00  0.00     0.068 C  
HETATM    7  C2* UNL     1      -8.569  12.648  67.427  1.00  0.00    -0.189 C  
HETATM    8  H3* UNL     1      -8.679  10.040  66.987  1.00  0.00     0.000 HD 
HETATM    9  O3* UNL     1      -9.024  10.561  66.272  1.00  0.00    -0.151 OA 
HETATM   10  C3* UNL     1      -9.609  11.760  66.771  1.00  0.00    -0.200 C  
BRANCH   6  11
HETATM   11  N   UNL     1      -8.311  15.148  67.350  1.00  0.00    -0.172 N  
HETATM   12  C   UNL     1      -9.329  15.994  67.752  1.00  0.00    -0.211 C  
HETATM   13  C   UNL     1     -10.194  18.109  68.727  1.00  0.00    -0.337 C  
HETATM   14  C   UNL     1      -9.104  17.182  68.335  1.00  0.00    -0.263 C  
HETATM   15  C   UNL     1      -7.712  17.586  68.557  1.00  0.00    -0.272 C  
HETATM   16  O   UNL     1      -7.387  18.673  69.018  1.00  0.00    -0.292 OA 
HETATM   17  N   UNL     1      -6.761  16.668  68.202  1.00  0.00    -0.140 N  
HETATM   18  F   UNL     1      -9.810  19.318  69.198  1.00  0.00    -0.434 F  
HETATM   19  F   UNL     1     -11.020  18.360  67.674  1.00  0.00    -0.436 F  
HETATM   20  F   UNL     1     -10.979  17.555  69.691  1.00  0.00    -0.048 F  
HETATM   21  C   UNL     1      -6.978  15.482  67.553  1.00  0.00    -0.194 C  
HETATM   22  H   UNL     1      -5.795  16.889  68.445  1.00  0.00     0.000 HD 
HETATM   23  O   UNL     1      -6.028  14.797  67.181  1.00  0.00    -0.221 OA 
ENDBRANCH   6  11
ENDBRANCH   3   4
TORSDOF 2
ENDMDL
MODEL      145
REMARK 921   NORMALIZED FREE ENERGY PREDICTED BY IDOCK:   -4.19 KCAL/MOL
REMARK 922        TOTAL FREE ENERGY PREDICTED BY IDOCK:   -5.11 KCAL/MOL
REMARK 923 INTER-LIGAND FREE ENERGY PREDICTED BY IDOCK:   -4.71 KCAL/MOL
REMARK 924 INTRA-LIGAND FREE ENERGY PREDICTED BY IDOCK:   -0.40 KCAL/MOL
REMARK 927      BINDING AFFINITY PREDICTED BY RF-SCORE:    0.00 PKD
ROOT
HETATM    1  O5* UNL     1     -12.249  14.522  68.736  1.00  0.00    -0.534 OA 
HETATM    2  H5* UNL     1     -12.148  15.452  68.570  1.00  0.00     0.000 HD 
HETATM    3  C5* UNL     1     -11.729  13.739  67.663  1.00  0.00    -0.367 C  
ENDROOT
BRANCH   3   4
HETATM    4  C4* UNL     1     -11.892  12.244  67.930  1.00  0.00    -0.293 C  
HETATM    5  O4* UNL     1     -11.310  11.458  66.875  1.00  0.00    -0.373 OA 
HETATM    6  C1* UNL     1     -11.095  10.156  67.442  1.00  0.00    -0.147 C  
HETATM    7  C2* UNL     1     -10.677  10.397  68.890  1.00  0.00    -0.255 C  
HETATM    8  H3* UNL     1     -11.758  11.420  71.080  1.00  0.00     0.000 HD 
HETATM    9  O3* UNL     1     -12.174  11.712  70.278  1.00  0.00    -0.331 OA 
HETATM   10  C3* UNL     1     -11.223  11.773  69.220  1.00  0.00    -0.256 C  
BRANCH   6  11
HETATM   11  N   UNL     1     -10.144   9.371  66.657  1.00  0.00    -0.254 N  
HETATM   12  C   UNL     1      -9.329   9.953  65.701  1.00  0.00    -0.214 C  
HETATM   13  C   UNL     1      -7.700   9.860  63.828  1.00  0.00    -0.143 C  
HETATM   14  C   UNL     1      -8.542   9.241  64.881  1.00  0.00    -0.204 C  
HETATM   15  C   UNL     1      -8.547   7.780  65.020  1.00  0.00     0.039 C  
HETATM   16  O   UNL     1      -7.922   7.027  64.284  1.00  0.00    -0.127 OA 
HETATM   17  N   UNL     1      -9.320   7.281  66.034  1.00  0.00    -0.383 N  
HETATM   18  F   UNL     1      -7.050   9.007  63.003  1.00  0.00    -0.091 F  
HETATM   19  F   UNL     1      -8.447  10.665  63.023  1.00  0.00    -0.160 F  
HETATM   20  F   UNL     1      -6.748  10.664  64.377  1.00  0.00    -0.085 F  
HETATM   21  C   UNL     1     -10.170   7.994  66.834  1.00  0.00    -0.315 C  
HETATM   22  H   UNL     1      -9.255   6.278  66.210  1.00  0.00     0.000 HD 
HETATM   23  O   UNL     1     -10.902   7.413  67.633  1.00  0.00    -0.215 OA 
ENDBRANCH   6  11
ENDBRANCH   3   4
TORSDOF 2
ENDMDL
MODEL      146
REMARK 921   NORMALIZED FREE ENERGY PREDICTED BY IDOCK:   -4.19 KCAL/MOL
REMARK 922        TOTAL FREE ENERGY PREDICTED BY IDOCK:   -5.11 KCAL/MOL
REMARK 923 INTER-LIGAND FREE ENERGY PREDICTED BY IDOCK:   -4.62 KCAL/MOL
REMARK 924 INTRA-LIGAND FREE ENERGY PREDICTED BY IDOCK:   -0.49 KCAL/MOL
REMARK 927      BINDING AFFINITY PREDICTED BY RF-SCORE:    0.00 PKD
ROOT
HETATM    1  O5* UNL     1      -9.692   4.749  73.774  1.00  0.00    -0.129 OA 
HETATM    2  H5* UNL     1      -9.612   4.998  74.687  1.00  0.00     0.000 HD 
HETATM    3  C5* UNL     1     -10.767   5.436  73.136  1.00  0.00    -0.266 C  
ENDROOT
BRANCH   3   4
HETATM    4  C4* UNL     1     -10.895   5.034  71.668  1.00  0.00     0.012 C  
HETATM    5  O4* UNL     1     -11.099   6.184  70.828  1.00  0.00    -0.285 OA 
HETATM    6  C1* UNL     1     -10.730   5.762  69.506  1.00  0.00    -0.338 C  
HETATM    7  C2* UNL     1      -9.540   4.823  69.687  1.00  0.00    -0.253 C  
HETATM    8  H3* UNL     1      -9.073   2.473  70.811  1.00  0.00     0.000 HD 
HETATM    9  O3* UNL     1      -9.840   2.913  71.155  1.00  0.00    -0.150 OA 
HETATM   10  C3* UNL     1      -9.661   4.326  71.114  1.00  0.00    -0.189 C  
BRANCH   6  11
HETATM   11  N   UNL     1     -10.478   6.899  68.622  1.00  0.00    -0.186 N  
HETATM   12  C   UNL     1     -10.174   8.156  69.117  1.00  0.00    -0.214 C  
HETATM   13  C   UNL     1      -9.780  10.596  68.869  1.00  0.00    -0.202 C  
HETATM   14  C   UNL     1     -10.064   9.241  68.335  1.00  0.00    -0.215 C  
HETATM   15  C   UNL     1     -10.271   9.074  66.892  1.00  0.00    -0.269 C  
HETATM   16  O   UNL     1     -10.263  10.002  66.094  1.00  0.00    -0.247 OA 
HETATM   17  N   UNL     1     -10.495   7.791  66.468  1.00  0.00    -0.471 N  
HETATM   18  F   UNL     1      -9.814  11.610  67.973  1.00  0.00    -0.169 F  
HETATM   19  F   UNL     1     -10.668  10.928  69.847  1.00  0.00    -0.277 F  
HETATM   20  F   UNL     1      -8.551  10.641  69.452  1.00  0.00    -0.156 F  
HETATM   21  C   UNL     1     -10.668   6.691  67.262  1.00  0.00    -0.357 C  
HETATM   22  H   UNL     1     -10.538   7.642  65.459  1.00  0.00     0.000 HD 
HETATM   23  O   UNL     1     -10.983   5.611  66.765  1.00  0.00    -0.259 OA 
ENDBRANCH   6  11
ENDBRANCH   3   4
TORSDOF 2
ENDMDL
MODEL      147
REMARK 921   NORMALIZED FREE ENERGY PREDICTED BY IDOCK:   -4.18 KCAL/MOL
REMARK 922        TOTAL FREE ENERGY PREDICTED BY IDOCK:   -5.10 KCAL/MOL
REMARK 923 INTER-LIGAND FREE ENERGY PREDICTED BY IDOCK:   -4.68 KCAL/MOL
REMARK 924 INTRA-LIGAND FREE ENERGY PREDICTED BY IDOCK:   -0.42 KCAL/MOL
REMARK 927      BINDING AFFINITY PREDICTED BY RF-SCORE:    0.00 PKD
ROOT
HETATM    1  O5* UNL     1      -5.875   7.922  71.160  1.00  0.00    -0.034 OA 
HETATM    2  H5* UNL     1      -5.096   8.068  71.682  1.00  0.00     0.000 HD 
HETATM    3  C5* UNL     1      -7.060   8.020  71.950  1.00  0.00    -0.078 C  
ENDROOT
BRANCH   3   4
HETATM    4  C4* UNL     1      -8.314   7.786  71.109  1.00  0.00    -0.111 C  
HETATM    5  O4* UNL     1      -9.420   8.569  71.592  1.00  0.00    -0.196 OA 
HETATM    6  C1* UNL     1     -10.344   8.641  70.495  1.00  0.00    -0.202 C  
HETATM    7  C2* UNL     1      -9.487   8.747  69.237  1.00  0.00    -0.161 C  
HETATM    8  H3* UNL     1      -7.732   7.239  67.950  1.00  0.00     0.000 HD 
HETATM    9  O3* UNL     1      -7.835   7.006  68.865  1.00  0.00    -0.111 OA 
HETATM   10  C3* UNL     1      -8.147   8.161  69.639  1.00  0.00    -0.118 C  
BRANCH   6  11
HETATM   11  N   UNL     1     -11.307   9.728  70.668  1.00  0.00    -0.304 N  
HETATM   12  C   UNL     1     -11.262  10.875  69.894  1.00  0.00    -0.282 C  
HETATM   13  C   UNL     1     -11.974  13.183  69.314  1.00  0.00    -0.292 C  
HETATM   14  C   UNL     1     -12.051  11.937  70.116  1.00  0.00    -0.382 C  
HETATM   15  C   UNL     1     -13.007  11.864  71.226  1.00  0.00    -0.236 C  
HETATM   16  O   UNL     1     -13.728  12.794  71.563  1.00  0.00    -0.012 OA 
HETATM   17  N   UNL     1     -13.047  10.672  71.900  1.00  0.00    -0.487 N  
HETATM   18  F   UNL     1     -12.752  14.210  69.729  1.00  0.00    -0.367 F  
HETATM   19  F   UNL     1     -10.700  13.663  69.287  1.00  0.00    -0.233 F  
HETATM   20  F   UNL     1     -12.310  12.947  68.017  1.00  0.00    -0.316 F  
HETATM   21  C   UNL     1     -12.206   9.608  71.720  1.00  0.00    -0.384 C  
HETATM   22  H   UNL     1     -13.776  10.568  72.607  1.00  0.00     0.000 HD 
HETATM   23  O   UNL     1     -12.267   8.637  72.471  1.00  0.00    -0.381 OA 
ENDBRANCH   6  11
ENDBRANCH   3   4
TORSDOF 2
ENDMDL
MODEL      148
REMARK 921   NORMALIZED FREE ENERGY PREDICTED BY IDOCK:   -4.18 KCAL/MOL
REMARK 922        TOTAL FREE ENERGY PREDICTED BY IDOCK:   -5.10 KCAL/MOL
REMARK 923 INTER-LIGAND FREE ENERGY PREDICTED BY IDOCK:   -5.55 KCAL/MOL
REMARK 924 INTRA-LIGAND FREE ENERGY PREDICTED BY IDOCK:    0.44 KCAL/MOL
REMARK 927      BINDING AFFINITY PREDICTED BY RF-SCORE:    0.00 PKD
ROOT
HETATM    1  O5* UNL     1      -6.303  19.965  68.580  1.00  0.00    -0.254 OA 
HETATM    2  H5* UNL     1      -5.485  20.170  69.016  1.00  0.00     0.000 HD 
HETATM    3  C5* UNL     1      -6.651  18.590  68.739  1.00  0.00    -0.254 C  
ENDROOT
BRANCH   3   4
HETATM    4  C4* UNL     1      -7.968  18.260  68.038  1.00  0.00    -0.264 C  
HETATM    5  O4* UNL     1      -8.360  16.897  68.278  1.00  0.00    -0.208 OA 
HETATM    6  C1* UNL     1      -9.769  16.851  68.003  1.00  0.00    -0.256 C  
HETATM    7  C2* UNL     1     -10.333  18.180  68.496  1.00  0.00    -0.352 C  
HETATM    8  H3* UNL     1     -10.071  20.745  67.893  1.00  0.00     0.000 HD 
HETATM    9  O3* UNL     1      -9.341  20.210  67.606  1.00  0.00    -0.351 OA 
HETATM   10  C3* UNL     1      -9.142  19.120  68.501  1.00  0.00    -0.371 C  
BRANCH   6  11
HETATM   11  N   UNL     1     -10.398  15.668  68.588  1.00  0.00    -0.211 N  
HETATM   12  C   UNL     1     -10.600  14.510  67.858  1.00  0.00    -0.243 C  
HETATM   13  C   UNL     1     -11.541  12.234  67.533  1.00  0.00    -0.353 C  
HETATM   14  C   UNL     1     -11.287  13.459  68.331  1.00  0.00    -0.329 C  
HETATM   15  C   UNL     1     -11.837  13.551  69.688  1.00  0.00    -0.336 C  
HETATM   16  O   UNL     1     -12.536  12.683  70.196  1.00  0.00    -0.163 OA 
HETATM   17  N   UNL     1     -11.535  14.695  70.376  1.00  0.00    -0.379 N  
HETATM   18  F   UNL     1     -12.347  11.307  68.101  1.00  0.00    -0.231 F  
HETATM   19  F   UNL     1     -12.110  12.545  66.336  1.00  0.00    -0.455 F  
HETATM   20  F   UNL     1     -10.375  11.597  67.236  1.00  0.00    -0.208 F  
HETATM   21  C   UNL     1     -10.887  15.794  69.882  1.00  0.00    -0.327 C  
HETATM   22  H   UNL     1     -11.821  14.731  71.355  1.00  0.00     0.000 HD 
HETATM   23  O   UNL     1     -10.781  16.810  70.566  1.00  0.00    -0.003 OA 
ENDBRANCH   6  11
ENDBRANCH   3   4
TORSDOF 2
ENDMDL
MODEL      149
REMARK 921   NORMALIZED FREE ENERGY PREDICTED BY IDOCK:   -4.18 KCAL/MOL
REMARK 922        TOTAL FREE ENERGY PREDICTED BY IDOCK:   -5.10 KCAL/MOL
REMARK 923 INTER-LIGAND FREE ENERGY PREDICTED BY IDOCK:   -5.39 KCAL/MOL
REMARK 924 INTRA-LIGAND FREE ENERGY PREDICTED BY IDOCK:    0.29 KCAL/MOL
REMARK 927      BINDING AFFINITY PREDICTED BY RF-SCORE:    0.00 PKD
ROOT
HETATM    1  O5* UNL     1     -10.960   6.754  68.303  1.00  0.00    -0.389 OA 
HETATM    2  H5* UNL     1     -11.201   5.868  68.063  1.00  0.00     0.000 HD 
HETATM    3  C5* UNL     1     -11.077   6.966  69.710  1.00  0.00    -0.271 C  
ENDROOT
BRANCH   3   4
HETATM    4  C4* UNL     1     -10.690   8.392  70.096  1.00  0.00    -0.236 C  
HETATM    5  O4* UNL     1     -10.363   9.176  68.935  1.00  0.00    -0.205 OA 
HETATM    6  C1* UNL     1     -10.490  10.545  69.351  1.00  0.00    -0.240 C  
HETATM    7  C2* UNL     1     -11.678  10.579  70.310  1.00  0.00    -0.420 C  
HETATM    8  H3* UNL     1     -12.292   9.568  72.678  1.00  0.00     0.000 HD 
HETATM    9  O3* UNL     1     -11.603   9.093  72.229  1.00  0.00    -0.293 OA 
HETATM   10  C3* UNL     1     -11.797   9.156  70.819  1.00  0.00    -0.227 C  
BRANCH   6  11
HETATM   11  N   UNL     1     -10.604  11.452  68.210  1.00  0.00    -0.185 N  
HETATM   12  C   UNL     1     -10.243  11.066  66.931  1.00  0.00    -0.222 C  
HETATM   13  C   UNL     1      -9.789  11.512  64.529  1.00  0.00    -0.241 C  
HETATM   14  C   UNL     1     -10.217  11.914  65.892  1.00  0.00    -0.270 C  
HETATM   15  C   UNL     1     -10.599  13.310  66.134  1.00  0.00    -0.287 C  
HETATM   16  O   UNL     1     -10.549  14.185  65.279  1.00  0.00    -0.327 OA 
HETATM   17  N   UNL     1     -11.015  13.601  67.405  1.00  0.00    -0.272 N  
HETATM   18  F   UNL     1      -9.704  12.503  63.612  1.00  0.00    -0.321 F  
HETATM   19  F   UNL     1      -8.562  10.923  64.562  1.00  0.00    -0.170 F  
HETATM   20  F   UNL     1     -10.635  10.580  64.010  1.00  0.00    -0.397 F  
HETATM   21  C   UNL     1     -10.988  12.758  68.483  1.00  0.00    -0.258 C  
HETATM   22  H   UNL     1     -11.382  14.540  67.565  1.00  0.00     0.000 HD 
HETATM   23  O   UNL     1     -11.277  13.175  69.603  1.00  0.00    -0.153 OA 
ENDBRANCH   6  11
ENDBRANCH   3   4
TORSDOF 2
ENDMDL
MODEL      150
REMARK 921   NORMALIZED FREE ENERGY PREDICTED BY IDOCK:   -4.18 KCAL/MOL
REMARK 922        TOTAL FREE ENERGY PREDICTED BY IDOCK:   -5.09 KCAL/MOL
REMARK 923 INTER-LIGAND FREE ENERGY PREDICTED BY IDOCK:   -5.21 KCAL/MOL
REMARK 924 INTRA-LIGAND FREE ENERGY PREDICTED BY IDOCK:    0.12 KCAL/MOL
REMARK 927      BINDING AFFINITY PREDICTED BY RF-SCORE:    0.00 PKD
ROOT
HETATM    1  O5* UNL     1      -9.862   7.373  72.115  1.00  0.00    -0.168 OA 
HETATM    2  H5* UNL     1      -9.569   7.399  73.018  1.00  0.00     0.000 HD 
HETATM    3  C5* UNL     1      -9.914   8.679  71.542  1.00  0.00    -0.274 C  
ENDROOT
BRANCH   3   4
HETATM    4  C4* UNL     1     -10.385   8.636  70.090  1.00  0.00    -0.207 C  
HETATM    5  O4* UNL     1     -10.684   9.955  69.599  1.00  0.00    -0.221 OA 
HETATM    6  C1* UNL     1     -10.641   9.848  68.167  1.00  0.00    -0.227 C  
HETATM    7  C2* UNL     1      -9.509   8.872  67.857  1.00  0.00    -0.160 C  
HETATM    8  H3* UNL     1      -8.976   6.315  68.288  1.00  0.00     0.000 HD 
HETATM    9  O3* UNL     1      -9.618   6.676  68.888  1.00  0.00    -0.131 OA 
HETATM   10  C3* UNL     1      -9.353   8.055  69.126  1.00  0.00    -0.151 C  
BRANCH   6  11
HETATM   11  N   UNL     1     -10.507  11.156  67.529  1.00  0.00    -0.195 N  
HETATM   12  C   UNL     1     -11.408  11.600  66.575  1.00  0.00    -0.263 C  
HETATM   13  C   UNL     1     -12.180  13.192  64.832  1.00  0.00    -0.428 C  
HETATM   14  C   UNL     1     -11.238  12.737  65.884  1.00  0.00    -0.334 C  
HETATM   15  C   UNL     1     -10.045  13.543  66.167  1.00  0.00    -0.304 C  
HETATM   16  O   UNL     1      -9.753  14.561  65.553  1.00  0.00    -0.308 OA 
HETATM   17  N   UNL     1      -9.239  13.080  67.172  1.00  0.00    -0.218 N  
HETATM   18  F   UNL     1     -11.817  14.298  64.141  1.00  0.00    -0.412 F  
HETATM   19  F   UNL     1     -12.376  12.216  63.903  1.00  0.00    -0.478 F  
HETATM   20  F   UNL     1     -13.407  13.455  65.359  1.00  0.00    -0.389 F  
HETATM   21  C   UNL     1      -9.372  11.893  67.840  1.00  0.00    -0.187 C  
HETATM   22  H   UNL     1      -8.462  13.680  67.452  1.00  0.00     0.000 HD 
HETATM   23  O   UNL     1      -8.513  11.534  68.643  1.00  0.00    -0.158 OA 
ENDBRANCH   6  11
ENDBRANCH   3   4
TORSDOF 2
ENDMDL
MODEL      151
REMARK 921   NORMALIZED FREE ENERGY PREDICTED BY IDOCK:   -4.10 KCAL/MOL
REMARK 922        TOTAL FREE ENERGY PREDICTED BY IDOCK:   -5.01 KCAL/MOL
REMARK 923 INTER-LIGAND FREE ENERGY PREDICTED BY IDOCK:   -4.64 KCAL/MOL
REMARK 924 INTRA-LIGAND FREE ENERGY PREDICTED BY IDOCK:   -0.37 KCAL/MOL
REMARK 927      BINDING AFFINITY PREDICTED BY RF-SCORE:    0.00 PKD
ROOT
HETATM    1  O5* UNL     1     -13.309  13.580  71.594  1.00  0.00    -0.363 OA 
HETATM    2  H5* UNL     1     -13.434  14.241  72.264  1.00  0.00     0.000 HD 
HETATM    3  C5* UNL     1     -13.230  12.272  72.158  1.00  0.00    -0.361 C  
ENDROOT
BRANCH   3   4
HETATM    4  C4* UNL     1     -13.029  11.208  71.080  1.00  0.00    -0.296 C  
HETATM    5  O4* UNL     1     -12.126  11.665  70.058  1.00  0.00    -0.316 OA 
HETATM    6  C1* UNL     1     -11.655  10.476  69.405  1.00  0.00    -0.246 C  
HETATM    7  C2* UNL     1     -11.512   9.427  70.505  1.00  0.00    -0.317 C  
HETATM    8  H3* UNL     1     -13.105   8.143  72.185  1.00  0.00     0.000 HD 
HETATM    9  O3* UNL     1     -13.473   8.955  71.858  1.00  0.00    -0.361 OA 
HETATM   10  C3* UNL     1     -12.438   9.902  71.607  1.00  0.00    -0.415 C  
BRANCH   6  11
HETATM   11  N   UNL     1     -10.435  10.723  68.638  1.00  0.00    -0.181 N  
HETATM   12  C   UNL     1      -9.179  10.474  69.163  1.00  0.00    -0.171 C  
HETATM   13  C   UNL     1      -6.698  10.582  69.111  1.00  0.00    -0.069 C  
HETATM   14  C   UNL     1      -8.044  10.810  68.531  1.00  0.00    -0.133 C  
HETATM   15  C   UNL     1      -8.153  11.464  67.222  1.00  0.00    -0.148 C  
HETATM   16  O   UNL     1      -7.191  11.874  66.587  1.00  0.00    -0.062 OA 
HETATM   17  N   UNL     1      -9.424  11.611  66.734  1.00  0.00    -0.182 N  
HETATM   18  F   UNL     1      -5.652  11.078  68.409  1.00  0.00    -0.044 F  
HETATM   19  F   UNL     1      -6.608  11.126  70.356  1.00  0.00    -0.156 F  
HETATM   20  F   UNL     1      -6.456   9.252  69.269  1.00  0.00    -0.043 F  
HETATM   21  C   UNL     1     -10.587  11.326  67.397  1.00  0.00    -0.224 C  
HETATM   22  H   UNL     1      -9.512  11.969  65.782  1.00  0.00     0.000 HD 
HETATM   23  O   UNL     1     -11.672  11.615  66.895  1.00  0.00    -0.552 OA 
ENDBRANCH   6  11
ENDBRANCH   3   4
TORSDOF 2
ENDMDL
MODEL      152
REMARK 921   NORMALIZED FREE ENERGY PREDICTED BY IDOCK:   -4.09 KCAL/MOL
REMARK 922        TOTAL FREE ENERGY PREDICTED BY IDOCK:   -5.00 KCAL/MOL
REMARK 923 INTER-LIGAND FREE ENERGY PREDICTED BY IDOCK:   -4.44 KCAL/MOL
REMARK 924 INTRA-LIGAND FREE ENERGY PREDICTED BY IDOCK:   -0.56 KCAL/MOL
REMARK 927      BINDING AFFINITY PREDICTED BY RF-SCORE:    0.00 PKD
ROOT
HETATM    1  O5* UNL     1      -9.095  13.655  67.102  1.00  0.00    -0.220 OA 
HETATM    2  H5* UNL     1      -8.403  14.299  67.196  1.00  0.00     0.000 HD 
HETATM    3  C5* UNL     1      -8.661  12.358  67.508  1.00  0.00    -0.177 C  
ENDROOT
BRANCH   3   4
HETATM    4  C4* UNL     1      -9.774  11.322  67.356  1.00  0.00    -0.173 C  
HETATM    5  O4* UNL     1      -9.394  10.060  67.933  1.00  0.00    -0.140 OA 
HETATM    6  C1* UNL     1     -10.626   9.358  68.160  1.00  0.00    -0.212 C  
HETATM    7  C2* UNL     1     -11.635  10.419  68.592  1.00  0.00    -0.172 C  
HETATM    8  H3* UNL     1     -12.786  12.552  67.528  1.00  0.00     0.000 HD 
HETATM    9  O3* UNL     1     -11.974  12.306  67.102  1.00  0.00    -0.564 OA 
HETATM   10  C3* UNL     1     -11.079  11.718  68.042  1.00  0.00    -0.242 C  
BRANCH   6  11
HETATM   11  N   UNL     1     -10.457   8.258  69.109  1.00  0.00    -0.220 N  
HETATM   12  C   UNL     1     -10.557   8.449  70.476  1.00  0.00    -0.216 C  
HETATM   13  C   UNL     1     -10.347   7.703  72.836  1.00  0.00    -0.322 C  
HETATM   14  C   UNL     1     -10.282   7.487  71.370  1.00  0.00    -0.201 C  
HETATM   15  C   UNL     1      -9.866   6.175  70.862  1.00  0.00    -0.182 C  
HETATM   16  O   UNL     1      -9.526   5.245  71.583  1.00  0.00    -0.145 OA 
HETATM   17  N   UNL     1      -9.861   6.038  69.500  1.00  0.00    -0.155 N  
HETATM   18  F   UNL     1      -9.931   6.675  73.611  1.00  0.00    -0.173 F  
HETATM   19  F   UNL     1      -9.596   8.778  73.201  1.00  0.00    -0.219 F  
HETATM   20  F   UNL     1     -11.619   7.988  73.229  1.00  0.00    -0.411 F  
HETATM   21  C   UNL     1     -10.081   7.029  68.582  1.00  0.00    -0.166 C  
HETATM   22  H   UNL     1      -9.674   5.104  69.133  1.00  0.00     0.000 HD 
HETATM   23  O   UNL     1      -9.931   6.806  67.382  1.00  0.00    -0.131 OA 
ENDBRANCH   6  11
ENDBRANCH   3   4
TORSDOF 2
ENDMDL
MODEL      153
REMARK 921   NORMALIZED FREE ENERGY PREDICTED BY IDOCK:   -4.09 KCAL/MOL
REMARK 922        TOTAL FREE ENERGY PREDICTED BY IDOCK:   -4.99 KCAL/MOL
REMARK 923 INTER-LIGAND FREE ENERGY PREDICTED BY IDOCK:   -4.58 KCAL/MOL
REMARK 924 INTRA-LIGAND FREE ENERGY PREDICTED BY IDOCK:   -0.41 KCAL/MOL
REMARK 927      BINDING AFFINITY PREDICTED BY RF-SCORE:    0.00 PKD
ROOT
HETATM    1  O5* UNL     1     -12.338  14.391  63.679  1.00  0.00    -1.051 OA 
HETATM    2  H5* UNL     1     -12.790  14.362  62.845  1.00  0.00     0.000 HD 
HETATM    3  C5* UNL     1     -12.123  15.733  64.112  1.00  0.00     0.080 C  
ENDROOT
BRANCH   3   4
HETATM    4  C4* UNL     1     -11.395  15.779  65.455  1.00  0.00    -0.032 C  
HETATM    5  O4* UNL     1     -11.387  14.487  66.088  1.00  0.00    -0.338 OA 
HETATM    6  C1* UNL     1     -10.315  14.536  67.042  1.00  0.00    -0.263 C  
HETATM    7  C2* UNL     1      -9.211  15.361  66.385  1.00  0.00    -0.339 C  
HETATM    8  H3* UNL     1      -8.883  17.852  65.552  1.00  0.00     0.000 HD 
HETATM    9  O3* UNL     1      -9.793  17.590  65.619  1.00  0.00    -0.543 OA 
HETATM   10  C3* UNL     1      -9.931  16.199  65.346  1.00  0.00    -0.106 C  
BRANCH   6  11
HETATM   11  N   UNL     1      -9.904  13.198  67.466  1.00  0.00    -0.212 N  
HETATM   12  C   UNL     1      -8.872  12.518  66.842  1.00  0.00    -0.203 C  
HETATM   13  C   UNL     1      -7.482  10.501  66.428  1.00  0.00    -0.133 C  
HETATM   14  C   UNL     1      -8.559  11.245  67.126  1.00  0.00    -0.147 C  
HETATM   15  C   UNL     1      -9.349  10.556  68.153  1.00  0.00    -0.148 C  
HETATM   16  O   UNL     1      -9.198   9.377  68.446  1.00  0.00    -0.128 OA 
HETATM   17  N   UNL     1     -10.303  11.313  68.779  1.00  0.00    -0.201 N  
HETATM   18  F   UNL     1      -7.360   9.190  66.741  1.00  0.00    -0.083 F  
HETATM   19  F   UNL     1      -7.655  10.551  65.078  1.00  0.00    -0.145 F  
HETATM   20  F   UNL     1      -6.267  11.067  66.667  1.00  0.00    -0.077 F  
HETATM   21  C   UNL     1     -10.667  12.591  68.454  1.00  0.00    -0.240 C  
HETATM   22  H   UNL     1     -10.789  10.881  69.565  1.00  0.00     0.000 HD 
HETATM   23  O   UNL     1     -11.623  13.123  69.015  1.00  0.00    -0.271 OA 
ENDBRANCH   6  11
ENDBRANCH   3   4
TORSDOF 2
ENDMDL
MODEL      154
REMARK 921   NORMALIZED FREE ENERGY PREDICTED BY IDOCK:   -4.06 KCAL/MOL
REMARK 922        TOTAL FREE ENERGY PREDICTED BY IDOCK:   -4.97 KCAL/MOL
REMARK 923 INTER-LIGAND FREE ENERGY PREDICTED BY IDOCK:   -5.22 KCAL/MOL
REMARK 924 INTRA-LIGAND FREE ENERGY PREDICTED BY IDOCK:    0.25 KCAL/MOL
REMARK 927      BINDING AFFINITY PREDICTED BY RF-SCORE:    0.00 PKD
ROOT
HETATM    1  O5* UNL     1     -12.457  13.949  63.329  1.00  0.00    -1.113 OA 
HETATM    2  H5* UNL     1     -12.480  14.456  62.525  1.00  0.00     0.000 HD 
HETATM    3  C5* UNL     1     -12.283  14.787  64.471  1.00  0.00    -0.428 C  
ENDROOT
BRANCH   3   4
HETATM    4  C4* UNL     1     -12.246  13.973  65.763  1.00  0.00    -0.453 C  
HETATM    5  O4* UNL     1     -11.904  12.599  65.504  1.00  0.00    -0.385 OA 
HETATM    6  C1* UNL     1     -11.440  12.079  66.759  1.00  0.00    -0.345 C  
HETATM    7  C2* UNL     1     -10.672  13.218  67.424  1.00  0.00    -0.266 C  
HETATM    8  H3* UNL     1     -11.210  15.632  68.369  1.00  0.00     0.000 HD 
HETATM    9  O3* UNL     1     -11.847  15.320  67.738  1.00  0.00    -0.287 OA 
HETATM   10  C3* UNL     1     -11.221  14.475  66.777  1.00  0.00    -0.334 C  
BRANCH   6  11
HETATM   11  N   UNL     1     -10.672  10.847  66.586  1.00  0.00    -0.251 N  
HETATM   12  C   UNL     1     -11.087   9.643  67.129  1.00  0.00     0.179 C  
HETATM   13  C   UNL     1     -10.766   7.250  67.713  1.00  0.00    -0.197 C  
HETATM   14  C   UNL     1     -10.340   8.529  67.094  1.00  0.00    -0.377 C  
HETATM   15  C   UNL     1      -9.029   8.601  66.440  1.00  0.00    -0.161 C  
HETATM   16  O   UNL     1      -8.236   7.669  66.407  1.00  0.00    -0.114 OA 
HETATM   17  N   UNL     1      -8.717   9.802  65.861  1.00  0.00    -0.135 N  
HETATM   18  F   UNL     1      -9.858   6.247  67.698  1.00  0.00    -0.117 F  
HETATM   19  F   UNL     1     -11.103   7.433  69.020  1.00  0.00    -0.177 F  
HETATM   20  F   UNL     1     -11.883   6.765  67.106  1.00  0.00    -0.085 F  
HETATM   21  C   UNL     1      -9.445  10.958  65.944  1.00  0.00    -0.207 C  
HETATM   22  H   UNL     1      -7.856   9.839  65.314  1.00  0.00     0.000 HD 
HETATM   23  O   UNL     1      -8.999  12.006  65.480  1.00  0.00     0.038 OA 
ENDBRANCH   6  11
ENDBRANCH   3   4
TORSDOF 2
ENDMDL
MODEL      155
REMARK 921   NORMALIZED FREE ENERGY PREDICTED BY IDOCK:   -4.06 KCAL/MOL
REMARK 922        TOTAL FREE ENERGY PREDICTED BY IDOCK:   -4.97 KCAL/MOL
REMARK 923 INTER-LIGAND FREE ENERGY PREDICTED BY IDOCK:   -4.57 KCAL/MOL
REMARK 924 INTRA-LIGAND FREE ENERGY PREDICTED BY IDOCK:   -0.40 KCAL/MOL
REMARK 927      BINDING AFFINITY PREDICTED BY RF-SCORE:    0.00 PKD
ROOT
HETATM    1  O5* UNL     1      -7.772  20.357  65.261  1.00  0.00    -0.447 OA 
HETATM    2  H5* UNL     1      -7.029  20.904  65.036  1.00  0.00     0.000 HD 
HETATM    3  C5* UNL     1      -7.693  19.896  66.609  1.00  0.00    -0.286 C  
ENDROOT
BRANCH   3   4
HETATM    4  C4* UNL     1      -8.889  19.016  66.970  1.00  0.00    -0.294 C  
HETATM    5  O4* UNL     1      -8.639  17.637  66.644  1.00  0.00    -0.238 OA 
HETATM    6  C1* UNL     1      -9.571  16.883  67.434  1.00  0.00    -0.241 C  
HETATM    7  C2* UNL     1      -9.675  17.617  68.768  1.00  0.00    -0.311 C  
HETATM    8  H3* UNL     1     -10.513  19.977  69.626  1.00  0.00     0.000 HD 
HETATM    9  O3* UNL     1     -10.293  19.965  68.702  1.00  0.00    -0.446 OA 
HETATM   10  C3* UNL     1      -9.241  19.036  68.456  1.00  0.00    -0.367 C  
BRANCH   6  11
HETATM   11  N   UNL     1      -9.180  15.478  67.543  1.00  0.00    -0.196 N  
HETATM   12  C   UNL     1      -8.056  15.084  68.248  1.00  0.00    -0.133 C  
HETATM   13  C   UNL     1      -6.376  13.406  68.976  1.00  0.00    -0.097 C  
HETATM   14  C   UNL     1      -7.604  13.820  68.256  1.00  0.00    -0.129 C  
HETATM   15  C   UNL     1      -8.350  12.819  67.487  1.00  0.00    -0.179 C  
HETATM   16  O   UNL     1      -7.996  11.653  67.368  1.00  0.00    -0.132 OA 
HETATM   17  N   UNL     1      -9.492  13.265  66.876  1.00  0.00    -0.242 N  
HETATM   18  F   UNL     1      -5.983  12.123  68.799  1.00  0.00    -0.053 F  
HETATM   19  F   UNL     1      -5.315  14.178  68.611  1.00  0.00    -0.077 F  
HETATM   20  F   UNL     1      -6.517  13.581  70.319  1.00  0.00    -0.121 F  
HETATM   21  C   UNL     1      -9.925  14.562  66.813  1.00  0.00    -0.264 C  
HETATM   22  H   UNL     1     -10.077  12.562  66.424  1.00  0.00     0.000 HD 
HETATM   23  O   UNL     1     -10.906  14.853  66.131  1.00  0.00    -0.314 OA 
ENDBRANCH   6  11
ENDBRANCH   3   4
TORSDOF 2
ENDMDL
MODEL      156
REMARK 921   NORMALIZED FREE ENERGY PREDICTED BY IDOCK:   -4.06 KCAL/MOL
REMARK 922        TOTAL FREE ENERGY PREDICTED BY IDOCK:   -4.96 KCAL/MOL
REMARK 923 INTER-LIGAND FREE ENERGY PREDICTED BY IDOCK:   -4.61 KCAL/MOL
REMARK 924 INTRA-LIGAND FREE ENERGY PREDICTED BY IDOCK:   -0.36 KCAL/MOL
REMARK 927      BINDING AFFINITY PREDICTED BY RF-SCORE:    0.00 PKD
ROOT
HETATM    1  O5* UNL     1     -11.459   6.736  66.830  1.00  0.00    -0.752 OA 
HETATM    2  H5* UNL     1     -11.666   6.027  67.428  1.00  0.00     0.000 HD 
HETATM    3  C5* UNL     1     -10.743   7.781  67.487  1.00  0.00    -0.195 C  
ENDROOT
BRANCH   3   4
HETATM    4  C4* UNL     1     -10.410   8.921  66.526  1.00  0.00    -0.197 C  
HETATM    5  O4* UNL     1     -11.130  10.119  66.867  1.00  0.00    -0.116 OA 
HETATM    6  C1* UNL     1     -10.407  11.190  66.242  1.00  0.00    -0.249 C  
HETATM    7  C2* UNL     1      -8.932  10.816  66.352  1.00  0.00    -0.179 C  
HETATM    8  H3* UNL     1      -7.338   8.909  65.440  1.00  0.00     0.000 HD 
HETATM    9  O3* UNL     1      -8.256   8.668  65.443  1.00  0.00    -0.119 OA 
HETATM   10  C3* UNL     1      -8.933   9.309  66.520  1.00  0.00    -0.149 C  
BRANCH   6  11
HETATM   11  N   UNL     1     -10.750  12.488  66.822  1.00  0.00    -0.233 N  
HETATM   12  C   UNL     1     -11.209  12.610  68.122  1.00  0.00    -0.269 C  
HETATM   13  C   UNL     1     -12.183  13.891  70.015  1.00  0.00    -0.344 C  
HETATM   14  C   UNL     1     -11.651  13.769  68.635  1.00  0.00    -0.369 C  
HETATM   15  C   UNL     1     -11.632  14.954  67.772  1.00  0.00    -0.339 C  
HETATM   16  O   UNL     1     -12.071  16.046  68.110  1.00  0.00     0.042 OA 
HETATM   17  N   UNL     1     -11.096  14.775  66.525  1.00  0.00    -0.330 N  
HETATM   18  F   UNL     1     -12.698  15.096  70.352  1.00  0.00    -0.359 F  
HETATM   19  F   UNL     1     -13.175  12.984  70.233  1.00  0.00     0.121 F  
HETATM   20  F   UNL     1     -11.218  13.615  70.934  1.00  0.00     0.099 F  
HETATM   21  C   UNL     1     -10.701  13.586  65.974  1.00  0.00    -0.279 C  
HETATM   22  H   UNL     1     -10.980  15.610  65.950  1.00  0.00     0.000 HD 
HETATM   23  O   UNL     1     -10.346  13.537  64.797  1.00  0.00    -0.388 OA 
ENDBRANCH   6  11
ENDBRANCH   3   4
TORSDOF 2
ENDMDL
MODEL      157
REMARK 921   NORMALIZED FREE ENERGY PREDICTED BY IDOCK:   -4.03 KCAL/MOL
REMARK 922        TOTAL FREE ENERGY PREDICTED BY IDOCK:   -4.93 KCAL/MOL
REMARK 923 INTER-LIGAND FREE ENERGY PREDICTED BY IDOCK:   -4.49 KCAL/MOL
REMARK 924 INTRA-LIGAND FREE ENERGY PREDICTED BY IDOCK:   -0.44 KCAL/MOL
REMARK 927      BINDING AFFINITY PREDICTED BY RF-SCORE:    0.00 PKD
ROOT
HETATM    1  O5* UNL     1      -6.986  15.286  68.948  1.00  0.00    -0.113 OA 
HETATM    2  H5* UNL     1      -6.191  15.537  69.402  1.00  0.00     0.000 HD 
HETATM    3  C5* UNL     1      -7.964  16.324  68.992  1.00  0.00    -0.238 C  
ENDROOT
BRANCH   3   4
HETATM    4  C4* UNL     1      -9.243  15.921  68.261  1.00  0.00    -0.189 C  
HETATM    5  O4* UNL     1      -9.086  14.655  67.595  1.00  0.00    -0.184 OA 
HETATM    6  C1* UNL     1     -10.420  14.172  67.374  1.00  0.00    -0.271 C  
HETATM    7  C2* UNL     1     -11.223  14.590  68.603  1.00  0.00    -0.281 C  
HETATM    8  H3* UNL     1     -11.991  16.852  69.744  1.00  0.00     0.000 HD 
HETATM    9  O3* UNL     1     -11.238  16.950  69.173  1.00  0.00    -0.151 OA 
HETATM   10  C3* UNL     1     -10.452  15.762  69.179  1.00  0.00    -0.240 C  
BRANCH   6  11
HETATM   11  N   UNL     1     -10.439  12.737  67.094  1.00  0.00    -0.232 N  
HETATM   12  C   UNL     1     -10.400  11.794  68.107  1.00  0.00    -0.200 C  
HETATM   13  C   UNL     1     -10.202   9.470  68.961  1.00  0.00    -0.200 C  
HETATM   14  C   UNL     1     -10.288  10.477  67.875  1.00  0.00    -0.226 C  
HETATM   15  C   UNL     1     -10.213  10.028  66.481  1.00  0.00    -0.224 C  
HETATM   16  O   UNL     1     -10.042   8.861  66.152  1.00  0.00    -0.291 OA 
HETATM   17  N   UNL     1     -10.332  11.009  65.532  1.00  0.00    -0.263 N  
HETATM   18  F   UNL     1      -9.976   8.192  68.575  1.00  0.00    -0.169 F  
HETATM   19  F   UNL     1      -9.205   9.781  69.834  1.00  0.00    -0.188 F  
HETATM   20  F   UNL     1     -11.348   9.450  69.697  1.00  0.00    -0.223 F  
HETATM   21  C   UNL     1     -10.386  12.357  65.760  1.00  0.00    -0.263 C  
HETATM   22  H   UNL     1     -10.386  10.704  64.560  1.00  0.00     0.000 HD 
HETATM   23  O   UNL     1     -10.372  13.145  64.816  1.00  0.00    -0.342 OA 
ENDBRANCH   6  11
ENDBRANCH   3   4
TORSDOF 2
ENDMDL
MODEL      158
REMARK 921   NORMALIZED FREE ENERGY PREDICTED BY IDOCK:   -4.02 KCAL/MOL
REMARK 922        TOTAL FREE ENERGY PREDICTED BY IDOCK:   -4.92 KCAL/MOL
REMARK 923 INTER-LIGAND FREE ENERGY PREDICTED BY IDOCK:   -4.87 KCAL/MOL
REMARK 924 INTRA-LIGAND FREE ENERGY PREDICTED BY IDOCK:   -0.04 KCAL/MOL
REMARK 927      BINDING AFFINITY PREDICTED BY RF-SCORE:    0.00 PKD
ROOT
HETATM    1  O5* UNL     1     -13.188  12.898  71.877  1.00  0.00    -0.437 OA 
HETATM    2  H5* UNL     1     -13.573  13.260  72.665  1.00  0.00     0.000 HD 
HETATM    3  C5* UNL     1     -13.275  11.473  71.859  1.00  0.00    -0.374 C  
ENDROOT
BRANCH   3   4
HETATM    4  C4* UNL     1     -12.655  10.890  70.591  1.00  0.00    -0.346 C  
HETATM    5  O4* UNL     1     -12.179  11.929  69.717  1.00  0.00    -0.251 OA 
HETATM    6  C1* UNL     1     -11.231  11.292  68.847  1.00  0.00    -0.253 C  
HETATM    7  C2* UNL     1     -10.501  10.265  69.708  1.00  0.00    -0.300 C  
HETATM    8  H3* UNL     1     -11.111   8.054  71.030  1.00  0.00     0.000 HD 
HETATM    9  O3* UNL     1     -11.857   8.618  70.867  1.00  0.00    -0.284 OA 
HETATM   10  C3* UNL     1     -11.454   9.984  70.854  1.00  0.00    -0.371 C  
BRANCH   6  11
HETATM   11  N   UNL     1     -10.359  12.265  68.189  1.00  0.00    -0.210 N  
HETATM   12  C   UNL     1      -8.981  12.208  68.307  1.00  0.00    -0.186 C  
HETATM   13  C   UNL     1      -6.692  13.119  67.985  1.00  0.00    -0.119 C  
HETATM   14  C   UNL     1      -8.166  13.157  67.821  1.00  0.00    -0.168 C  
HETATM   15  C   UNL     1      -8.776  14.297  67.128  1.00  0.00    -0.227 C  
HETATM   16  O   UNL     1      -8.139  15.253  66.705  1.00  0.00    -0.200 OA 
HETATM   17  N   UNL     1     -10.137  14.249  66.985  1.00  0.00    -0.257 N  
HETATM   18  F   UNL     1      -6.013  14.203  67.543  1.00  0.00    -0.147 F  
HETATM   19  F   UNL     1      -6.354  12.971  69.296  1.00  0.00    -0.084 F  
HETATM   20  F   UNL     1      -6.160  12.045  67.340  1.00  0.00    -0.071 F  
HETATM   21  C   UNL     1     -10.979  13.317  67.528  1.00  0.00    -0.263 C  
HETATM   22  H   UNL     1     -10.565  14.980  66.417  1.00  0.00     0.000 HD 
HETATM   23  O   UNL     1     -12.197  13.449  67.427  1.00  0.00    -0.326 OA 
ENDBRANCH   6  11
ENDBRANCH   3   4
TORSDOF 2
ENDMDL
MODEL      159
REMARK 921   NORMALIZED FREE ENERGY PREDICTED BY IDOCK:   -3.98 KCAL/MOL
REMARK 922        TOTAL FREE ENERGY PREDICTED BY IDOCK:   -4.88 KCAL/MOL
REMARK 923 INTER-LIGAND FREE ENERGY PREDICTED BY IDOCK:   -5.09 KCAL/MOL
REMARK 924 INTRA-LIGAND FREE ENERGY PREDICTED BY IDOCK:    0.21 KCAL/MOL
REMARK 927      BINDING AFFINITY PREDICTED BY RF-SCORE:    0.00 PKD
ROOT
HETATM    1  O5* UNL     1     -11.172   5.735  67.112  1.00  0.00    -0.437 OA 
HETATM    2  H5* UNL     1     -11.238   4.928  67.608  1.00  0.00     0.000 HD 
HETATM    3  C5* UNL     1      -9.917   6.379  67.324  1.00  0.00    -0.146 C  
ENDROOT
BRANCH   3   4
HETATM    4  C4* UNL     1      -9.811   7.677  66.526  1.00  0.00    -0.172 C  
HETATM    5  O4* UNL     1     -10.651   8.703  67.085  1.00  0.00    -0.294 OA 
HETATM    6  C1* UNL     1     -10.124   9.942  66.585  1.00  0.00    -0.233 C  
HETATM    7  C2* UNL     1      -8.609   9.765  66.549  1.00  0.00    -0.135 C  
HETATM    8  H3* UNL     1      -6.860   8.246  65.268  1.00  0.00     0.000 HD 
HETATM    9  O3* UNL     1      -7.736   7.880  65.291  1.00  0.00    -0.085 OA 
HETATM   10  C3* UNL     1      -8.402   8.264  66.490  1.00  0.00    -0.112 C  
BRANCH   6  11
HETATM   11  N   UNL     1     -10.585  11.085  67.371  1.00  0.00    -0.222 N  
HETATM   12  C   UNL     1     -11.058  12.241  66.774  1.00  0.00    -0.296 C  
HETATM   13  C   UNL     1     -11.833  14.600  66.823  1.00  0.00    -0.317 C  
HETATM   14  C   UNL     1     -11.366  13.348  67.467  1.00  0.00    -0.327 C  
HETATM   15  C   UNL     1     -11.197  13.317  68.923  1.00  0.00    -0.277 C  
HETATM   16  O   UNL     1     -11.382  14.286  69.648  1.00  0.00    -0.250 OA 
HETATM   17  N   UNL     1     -10.796  12.118  69.451  1.00  0.00    -0.453 N  
HETATM   18  F   UNL     1     -11.993  15.668  67.639  1.00  0.00    -0.199 F  
HETATM   19  F   UNL     1     -10.966  14.997  65.850  1.00  0.00    -0.315 F  
HETATM   20  F   UNL     1     -13.028  14.411  66.201  1.00  0.00    -0.422 F  
HETATM   21  C   UNL     1     -10.423  11.005  68.748  1.00  0.00    -0.198 C  
HETATM   22  H   UNL     1     -10.774  12.049  70.469  1.00  0.00     0.000 HD 
HETATM   23  O   UNL     1      -9.967  10.026  69.336  1.00  0.00    -0.197 OA 
ENDBRANCH   6  11
ENDBRANCH   3   4
TORSDOF 2
ENDMDL
MODEL      160
REMARK 921   NORMALIZED FREE ENERGY PREDICTED BY IDOCK:   -3.98 KCAL/MOL
REMARK 922        TOTAL FREE ENERGY PREDICTED BY IDOCK:   -4.88 KCAL/MOL
REMARK 923 INTER-LIGAND FREE ENERGY PREDICTED BY IDOCK:   -4.47 KCAL/MOL
REMARK 924 INTRA-LIGAND FREE ENERGY PREDICTED BY IDOCK:   -0.41 KCAL/MOL
REMARK 927      BINDING AFFINITY PREDICTED BY RF-SCORE:    0.00 PKD
ROOT
HETATM    1  O5* UNL     1      -8.890   9.866  64.364  1.00  0.00    -0.182 OA 
HETATM    2  H5* UNL     1      -8.487   9.456  63.609  1.00  0.00     0.000 HD 
HETATM    3  C5* UNL     1      -9.033   8.945  65.445  1.00  0.00    -0.182 C  
ENDROOT
BRANCH   3   4
HETATM    4  C4* UNL     1      -9.682   9.605  66.661  1.00  0.00    -0.209 C  
HETATM    5  O4* UNL     1     -10.315   8.629  67.508  1.00  0.00    -0.235 OA 
HETATM    6  C1* UNL     1     -10.449   9.266  68.788  1.00  0.00    -0.210 C  
HETATM    7  C2* UNL     1      -9.193  10.114  68.965  1.00  0.00    -0.188 C  
HETATM    8  H3* UNL     1      -8.084  12.211  67.788  1.00  0.00     0.000 HD 
HETATM    9  O3* UNL     1      -8.698  11.744  67.234  1.00  0.00    -0.152 OA 
HETATM   10  C3* UNL     1      -8.696  10.355  67.552  1.00  0.00    -0.125 C  
BRANCH   6  11
HETATM   11  N   UNL     1     -10.682   8.294  69.856  1.00  0.00    -0.240 N  
HETATM   12  C   UNL     1     -10.097   7.040  69.843  1.00  0.00    -0.193 C  
HETATM   13  C   UNL     1      -9.800   4.728  70.702  1.00  0.00    -0.222 C  
HETATM   14  C   UNL     1     -10.393   6.087  70.741  1.00  0.00    -0.280 C  
HETATM   15  C   UNL     1     -11.375   6.405  71.783  1.00  0.00    -0.289 C  
HETATM   16  O   UNL     1     -11.771   5.595  72.612  1.00  0.00    -0.303 OA 
HETATM   17  N   UNL     1     -11.855   7.687  71.778  1.00  0.00    -0.279 N  
HETATM   18  F   UNL     1     -10.280   3.840  71.603  1.00  0.00    -0.248 F  
HETATM   19  F   UNL     1      -9.977   4.156  69.479  1.00  0.00    -0.274 F  
HETATM   20  F   UNL     1      -8.453   4.780  70.897  1.00  0.00    -0.096 F  
HETATM   21  C   UNL     1     -11.605   8.645  70.833  1.00  0.00    -0.269 C  
HETATM   22  H   UNL     1     -12.458   7.956  72.556  1.00  0.00     0.000 HD 
HETATM   23  O   UNL     1     -12.192   9.725  70.875  1.00  0.00    -0.294 OA 
ENDBRANCH   6  11
ENDBRANCH   3   4
TORSDOF 2
ENDMDL
MODEL      161
REMARK 921   NORMALIZED FREE ENERGY PREDICTED BY IDOCK:   -3.98 KCAL/MOL
REMARK 922        TOTAL FREE ENERGY PREDICTED BY IDOCK:   -4.87 KCAL/MOL
REMARK 923 INTER-LIGAND FREE ENERGY PREDICTED BY IDOCK:   -4.86 KCAL/MOL
REMARK 924 INTRA-LIGAND FREE ENERGY PREDICTED BY IDOCK:   -0.01 KCAL/MOL
REMARK 927      BINDING AFFINITY PREDICTED BY RF-SCORE:    0.00 PKD
ROOT
HETATM    1  O5* UNL     1      -8.486  18.232  66.792  1.00  0.00    -0.244 OA 
HETATM    2  H5* UNL     1      -7.912  18.810  67.279  1.00  0.00     0.000 HD 
HETATM    3  C5* UNL     1      -8.005  16.888  66.799  1.00  0.00    -0.236 C  
ENDROOT
BRANCH   3   4
HETATM    4  C4* UNL     1      -8.929  15.958  66.014  1.00  0.00    -0.302 C  
HETATM    5  O4* UNL     1      -8.743  14.586  66.405  1.00  0.00    -0.132 OA 
HETATM    6  C1* UNL     1      -9.936  13.905  65.988  1.00  0.00    -0.310 C  
HETATM    7  C2* UNL     1     -11.079  14.890  66.220  1.00  0.00    -0.340 C  
HETATM    8  H3* UNL     1     -11.831  17.250  65.284  1.00  0.00     0.000 HD 
HETATM    9  O3* UNL     1     -10.907  17.067  65.158  1.00  0.00    -0.617 OA 
HETATM   10  C3* UNL     1     -10.414  16.252  66.218  1.00  0.00    -0.308 C  
BRANCH   6  11
HETATM   11  N   UNL     1     -10.094  12.620  66.667  1.00  0.00    -0.236 N  
HETATM   12  C   UNL     1      -9.079  12.066  67.429  1.00  0.00    -0.178 C  
HETATM   13  C   UNL     1      -8.047  10.224  68.737  1.00  0.00    -0.120 C  
HETATM   14  C   UNL     1      -9.151  10.834  67.956  1.00  0.00    -0.150 C  
HETATM   15  C   UNL     1     -10.368  10.052  67.713  1.00  0.00    -0.215 C  
HETATM   16  O   UNL     1     -10.516   8.895  68.086  1.00  0.00    -0.219 OA 
HETATM   17  N   UNL     1     -11.357  10.691  67.014  1.00  0.00    -0.047 N  
HETATM   18  F   UNL     1      -8.218   8.933  69.105  1.00  0.00    -0.108 F  
HETATM   19  F   UNL     1      -6.879  10.264  68.038  1.00  0.00    -0.067 F  
HETATM   20  F   UNL     1      -7.818  10.922  69.882  1.00  0.00    -0.080 F  
HETATM   21  C   UNL     1     -11.269  11.922  66.423  1.00  0.00    -0.331 C  
HETATM   22  H   UNL     1     -12.248  10.200  66.926  1.00  0.00     0.000 HD 
HETATM   23  O   UNL     1     -12.188  12.338  65.720  1.00  0.00    -0.622 OA 
ENDBRANCH   6  11
ENDBRANCH   3   4
TORSDOF 2
ENDMDL
MODEL      162
REMARK 921   NORMALIZED FREE ENERGY PREDICTED BY IDOCK:   -3.94 KCAL/MOL
REMARK 922        TOTAL FREE ENERGY PREDICTED BY IDOCK:   -4.84 KCAL/MOL
REMARK 923 INTER-LIGAND FREE ENERGY PREDICTED BY IDOCK:   -5.63 KCAL/MOL
REMARK 924 INTRA-LIGAND FREE ENERGY PREDICTED BY IDOCK:    0.80 KCAL/MOL
REMARK 927      BINDING AFFINITY PREDICTED BY RF-SCORE:    0.00 PKD
ROOT
HETATM    1  O5* UNL     1      -5.151  19.176  65.693  1.00  0.00    -0.142 OA 
HETATM    2  H5* UNL     1      -4.227  19.188  65.908  1.00  0.00     0.000 HD 
HETATM    3  C5* UNL     1      -5.795  18.014  66.214  1.00  0.00    -0.184 C  
ENDROOT
BRANCH   3   4
HETATM    4  C4* UNL     1      -7.283  17.995  65.867  1.00  0.00    -0.243 C  
HETATM    5  O4* UNL     1      -7.935  16.841  66.426  1.00  0.00    -0.268 OA 
HETATM    6  C1* UNL     1      -9.333  17.169  66.455  1.00  0.00    -0.265 C  
HETATM    7  C2* UNL     1      -9.405  18.654  66.801  1.00  0.00    -0.312 C  
HETATM    8  H3* UNL     1      -8.661  20.943  65.699  1.00  0.00     0.000 HD 
HETATM    9  O3* UNL     1      -8.183  20.191  65.372  1.00  0.00    -0.127 OA 
HETATM   10  C3* UNL     1      -8.052  19.205  66.392  1.00  0.00    -0.308 C  
BRANCH   6  11
HETATM   11  N   UNL     1     -10.077  16.297  67.363  1.00  0.00    -0.255 N  
HETATM   12  C   UNL     1     -10.369  14.983  67.039  1.00  0.00    -0.269 C  
HETATM   13  C   UNL     1     -11.505  12.808  67.426  1.00  0.00    -0.340 C  
HETATM   14  C   UNL     1     -11.156  14.202  67.795  1.00  0.00    -0.292 C  
HETATM   15  C   UNL     1     -11.719  14.776  69.022  1.00  0.00    -0.312 C  
HETATM   16  O   UNL     1     -12.502  14.181  69.751  1.00  0.00    -0.332 OA 
HETATM   17  N   UNL     1     -11.328  16.055  69.316  1.00  0.00    -0.347 N  
HETATM   18  F   UNL     1     -12.401  12.184  68.226  1.00  0.00    -0.294 F  
HETATM   19  F   UNL     1     -12.022  12.754  66.168  1.00  0.00    -0.405 F  
HETATM   20  F   UNL     1     -10.395  12.019  67.406  1.00  0.00    -0.205 F  
HETATM   21  C   UNL     1     -10.575  16.877  68.522  1.00  0.00    -0.367 C  
HETATM   22  H   UNL     1     -11.627  16.431  70.216  1.00  0.00     0.000 HD 
HETATM   23  O   UNL     1     -10.390  18.049  68.845  1.00  0.00    -0.363 OA 
ENDBRANCH   6  11
ENDBRANCH   3   4
TORSDOF 2
ENDMDL
MODEL      163
REMARK 921   NORMALIZED FREE ENERGY PREDICTED BY IDOCK:   -3.94 KCAL/MOL
REMARK 922        TOTAL FREE ENERGY PREDICTED BY IDOCK:   -4.83 KCAL/MOL
REMARK 923 INTER-LIGAND FREE ENERGY PREDICTED BY IDOCK:   -4.96 KCAL/MOL
REMARK 924 INTRA-LIGAND FREE ENERGY PREDICTED BY IDOCK:    0.13 KCAL/MOL
REMARK 927      BINDING AFFINITY PREDICTED BY RF-SCORE:    0.00 PKD
ROOT
HETATM    1  O5* UNL     1      -5.622  15.382  70.710  1.00  0.00    -0.137 OA 
HETATM    2  H5* UNL     1      -5.329  16.073  71.292  1.00  0.00     0.000 HD 
HETATM    3  C5* UNL     1      -7.001  15.530  70.375  1.00  0.00     0.419 C  
ENDROOT
BRANCH   3   4
HETATM    4  C4* UNL     1      -7.472  14.418  69.439  1.00  0.00    -0.022 C  
HETATM    5  O4* UNL     1      -8.706  14.772  68.788  1.00  0.00    -0.172 OA 
HETATM    6  C1* UNL     1      -8.785  13.922  67.633  1.00  0.00    -0.187 C  
HETATM    7  C2* UNL     1      -7.356  13.789  67.115  1.00  0.00     0.141 C  
HETATM    8  H3* UNL     1      -5.064  12.781  67.977  1.00  0.00     0.000 HD 
HETATM    9  O3* UNL     1      -5.678  12.980  68.674  1.00  0.00    -0.065 OA 
HETATM   10  C3* UNL     1      -6.486  14.099  68.318  1.00  0.00    -0.116 C  
BRANCH   6  11
HETATM   11  N   UNL     1      -9.743  14.428  66.651  1.00  0.00    -0.267 N  
HETATM   12  C   UNL     1     -10.464  13.580  65.828  1.00  0.00    -0.291 C  
HETATM   13  C   UNL     1     -11.990  13.111  63.926  1.00  0.00    -0.488 C  
HETATM   14  C   UNL     1     -11.251  14.020  64.835  1.00  0.00    -0.362 C  
HETATM   15  C   UNL     1     -11.351  15.469  64.627  1.00  0.00    -0.357 C  
HETATM   16  O   UNL     1     -11.983  15.981  63.713  1.00  0.00    -0.844 OA 
HETATM   17  N   UNL     1     -10.669  16.247  65.524  1.00  0.00    -0.348 N  
HETATM   18  F   UNL     1     -12.651  13.697  62.900  1.00  0.00    -0.404 F  
HETATM   19  F   UNL     1     -11.149  12.202  63.360  1.00  0.00    -0.420 F  
HETATM   20  F   UNL     1     -12.915  12.385  64.611  1.00  0.00    -0.557 F  
HETATM   21  C   UNL     1      -9.818  15.806  66.501  1.00  0.00    -0.269 C  
HETATM   22  H   UNL     1     -10.810  17.256  65.458  1.00  0.00     0.000 HD 
HETATM   23  O   UNL     1      -9.171  16.612  67.168  1.00  0.00    -0.216 OA 
ENDBRANCH   6  11
ENDBRANCH   3   4
TORSDOF 2
ENDMDL
MODEL      164
REMARK 921   NORMALIZED FREE ENERGY PREDICTED BY IDOCK:   -3.94 KCAL/MOL
REMARK 922        TOTAL FREE ENERGY PREDICTED BY IDOCK:   -4.83 KCAL/MOL
REMARK 923 INTER-LIGAND FREE ENERGY PREDICTED BY IDOCK:   -4.73 KCAL/MOL
REMARK 924 INTRA-LIGAND FREE ENERGY PREDICTED BY IDOCK:   -0.10 KCAL/MOL
REMARK 927      BINDING AFFINITY PREDICTED BY RF-SCORE:    0.00 PKD
ROOT
HETATM    1  O5* UNL     1     -11.440  12.023  69.760  1.00  0.00    -0.414 OA 
HETATM    2  H5* UNL     1     -11.986  12.472  70.394  1.00  0.00     0.000 HD 
HETATM    3  C5* UNL     1     -11.061  12.888  68.690  1.00  0.00    -0.269 C  
ENDROOT
BRANCH   3   4
HETATM    4  C4* UNL     1     -10.183  12.166  67.670  1.00  0.00    -0.197 C  
HETATM    5  O4* UNL     1      -9.978  10.791  68.039  1.00  0.00    -0.159 OA 
HETATM    6  C1* UNL     1      -9.579  10.127  66.830  1.00  0.00    -0.177 C  
HETATM    7  C2* UNL     1     -10.389  10.777  65.711  1.00  0.00    -0.295 C  
HETATM    8  H3* UNL     1     -10.589  13.170  64.596  1.00  0.00     0.000 HD 
HETATM    9  O3* UNL     1     -10.222  13.188  65.472  1.00  0.00    -0.287 OA 
HETATM   10  C3* UNL     1     -10.773  12.137  66.262  1.00  0.00    -0.261 C  
BRANCH   6  11
HETATM   11  N   UNL     1      -9.736   8.676  66.929  1.00  0.00    -0.193 N  
HETATM   12  C   UNL     1     -10.249   8.073  68.064  1.00  0.00    -0.210 C  
HETATM   13  C   UNL     1     -10.795   6.095  69.465  1.00  0.00    -0.361 C  
HETATM   14  C   UNL     1     -10.285   6.741  68.231  1.00  0.00    -0.194 C  
HETATM   15  C   UNL     1      -9.761   5.899  67.151  1.00  0.00    -0.132 C  
HETATM   16  O   UNL     1      -9.680   4.679  67.220  1.00  0.00    -0.163 OA 
HETATM   17  N   UNL     1      -9.338   6.562  66.030  1.00  0.00    -0.355 N  
HETATM   18  F   UNL     1     -10.661   4.750  69.534  1.00  0.00    -0.281 F  
HETATM   19  F   UNL     1     -10.170   6.593  70.567  1.00  0.00    -0.193 F  
HETATM   20  F   UNL     1     -12.119   6.357  69.638  1.00  0.00    -0.416 F  
HETATM   21  C   UNL     1      -9.243   7.918  65.875  1.00  0.00    -0.042 C  
HETATM   22  H   UNL     1      -9.068   5.988  65.230  1.00  0.00     0.000 HD 
HETATM   23  O   UNL     1      -8.734   8.392  64.861  1.00  0.00    -0.134 OA 
ENDBRANCH   6  11
ENDBRANCH   3   4
TORSDOF 2
ENDMDL
MODEL      165
REMARK 921   NORMALIZED FREE ENERGY PREDICTED BY IDOCK:   -3.93 KCAL/MOL
REMARK 922        TOTAL FREE ENERGY PREDICTED BY IDOCK:   -4.82 KCAL/MOL
REMARK 923 INTER-LIGAND FREE ENERGY PREDICTED BY IDOCK:   -4.91 KCAL/MOL
REMARK 924 INTRA-LIGAND FREE ENERGY PREDICTED BY IDOCK:    0.09 KCAL/MOL
REMARK 927      BINDING AFFINITY PREDICTED BY RF-SCORE:    0.00 PKD
ROOT
HETATM    1  O5* UNL     1     -13.089  15.958  70.243  1.00  0.00    -0.700 OA 
HETATM    2  H5* UNL     1     -13.747  16.088  70.914  1.00  0.00     0.000 HD 
HETATM    3  C5* UNL     1     -12.430  14.701  70.391  1.00  0.00    -0.352 C  
ENDROOT
BRANCH   3   4
HETATM    4  C4* UNL     1     -11.370  14.492  69.311  1.00  0.00    -0.285 C  
HETATM    5  O4* UNL     1     -10.936  13.121  69.264  1.00  0.00    -0.189 OA 
HETATM    6  C1* UNL     1     -10.346  12.953  67.966  1.00  0.00    -0.227 C  
HETATM    7  C2* UNL     1     -11.191  13.792  67.012  1.00  0.00    -0.326 C  
HETATM    8  H3* UNL     1     -11.764  16.353  66.665  1.00  0.00     0.000 HD 
HETATM    9  O3* UNL     1     -11.462  16.146  67.542  1.00  0.00    -0.083 OA 
HETATM   10  C3* UNL     1     -11.855  14.825  67.902  1.00  0.00    -0.297 C  
BRANCH   6  11
HETATM   11  N   UNL     1     -10.235  11.541  67.599  1.00  0.00    -0.182 N  
HETATM   12  C   UNL     1      -9.157  11.056  66.878  1.00  0.00    -0.156 C  
HETATM   13  C   UNL     1      -7.958   9.287  65.612  1.00  0.00    -0.103 C  
HETATM   14  C   UNL     1      -9.093   9.796  66.420  1.00  0.00    -0.187 C  
HETATM   15  C   UNL     1     -10.218   8.901  66.710  1.00  0.00    -0.278 C  
HETATM   16  O   UNL     1     -10.299   7.755  66.287  1.00  0.00    -0.032 OA 
HETATM   17  N   UNL     1     -11.213   9.428  67.489  1.00  0.00    -0.338 N  
HETATM   18  F   UNL     1      -8.088   8.031  65.123  1.00  0.00    -0.111 F  
HETATM   19  F   UNL     1      -7.733  10.088  64.534  1.00  0.00    -0.126 F  
HETATM   20  F   UNL     1      -6.804   9.300  66.332  1.00  0.00    -0.077 F  
HETATM   21  C   UNL     1     -11.315  10.726  67.909  1.00  0.00    -0.299 C  
HETATM   22  H   UNL     1     -11.952   8.789  67.786  1.00  0.00     0.000 HD 
HETATM   23  O   UNL     1     -12.320  11.107  68.506  1.00  0.00    -0.561 OA 
ENDBRANCH   6  11
ENDBRANCH   3   4
TORSDOF 2
ENDMDL
MODEL      166
REMARK 921   NORMALIZED FREE ENERGY PREDICTED BY IDOCK:   -3.92 KCAL/MOL
REMARK 922        TOTAL FREE ENERGY PREDICTED BY IDOCK:   -4.81 KCAL/MOL
REMARK 923 INTER-LIGAND FREE ENERGY PREDICTED BY IDOCK:   -4.85 KCAL/MOL
REMARK 924 INTRA-LIGAND FREE ENERGY PREDICTED BY IDOCK:    0.04 KCAL/MOL
REMARK 927      BINDING AFFINITY PREDICTED BY RF-SCORE:    0.00 PKD
ROOT
HETATM    1  O5* UNL     1     -13.472  12.120  72.266  1.00  0.00    -0.583 OA 
HETATM    2  H5* UNL     1     -13.390  13.060  72.373  1.00  0.00     0.000 HD 
HETATM    3  C5* UNL     1     -12.642  11.639  71.209  1.00  0.00    -0.320 C  
ENDROOT
BRANCH   3   4
HETATM    4  C4* UNL     1     -12.775  10.127  71.037  1.00  0.00    -0.386 C  
HETATM    5  O4* UNL     1     -11.602   9.567  70.419  1.00  0.00    -0.258 OA 
HETATM    6  C1* UNL     1     -11.631   8.169  70.743  1.00  0.00    -0.238 C  
HETATM    7  C2* UNL     1     -12.180   8.082  72.165  1.00  0.00    -0.377 C  
HETATM    8  H3* UNL     1     -14.448   8.646  73.408  1.00  0.00     0.000 HD 
HETATM    9  O3* UNL     1     -14.336   9.116  72.590  1.00  0.00    -0.561 OA 
HETATM   10  C3* UNL     1     -12.955   9.372  72.352  1.00  0.00    -0.351 C  
BRANCH   6  11
HETATM   11  N   UNL     1     -10.324   7.541  70.557  1.00  0.00    -0.212 N  
HETATM   12  C   UNL     1     -10.141   6.473  69.696  1.00  0.00    -0.181 C  
HETATM   13  C   UNL     1      -8.801   4.627  68.712  1.00  0.00    -0.100 C  
HETATM   14  C   UNL     1      -8.985   5.799  69.603  1.00  0.00    -0.135 C  
HETATM   15  C   UNL     1      -7.868   6.229  70.451  1.00  0.00    -0.107 C  
HETATM   16  O   UNL     1      -6.790   5.650  70.499  1.00  0.00    -0.048 OA 
HETATM   17  N   UNL     1      -8.098   7.337  71.222  1.00  0.00    -0.101 N  
HETATM   18  F   UNL     1      -7.617   3.980  68.811  1.00  0.00    -0.054 F  
HETATM   19  F   UNL     1      -9.762   3.690  68.940  1.00  0.00    -0.238 F  
HETATM   20  F   UNL     1      -8.934   4.985  67.405  1.00  0.00    -0.110 F  
HETATM   21  C   UNL     1      -9.290   7.992  71.368  1.00  0.00    -0.144 C  
HETATM   22  H   UNL     1      -7.301   7.711  71.739  1.00  0.00     0.000 HD 
HETATM   23  O   UNL     1      -9.399   8.905  72.184  1.00  0.00    -0.348 OA 
ENDBRANCH   6  11
ENDBRANCH   3   4
TORSDOF 2
ENDMDL
MODEL      167
REMARK 921   NORMALIZED FREE ENERGY PREDICTED BY IDOCK:   -3.89 KCAL/MOL
REMARK 922        TOTAL FREE ENERGY PREDICTED BY IDOCK:   -4.77 KCAL/MOL
REMARK 923 INTER-LIGAND FREE ENERGY PREDICTED BY IDOCK:   -4.88 KCAL/MOL
REMARK 924 INTRA-LIGAND FREE ENERGY PREDICTED BY IDOCK:    0.10 KCAL/MOL
REMARK 927      BINDING AFFINITY PREDICTED BY RF-SCORE:    0.00 PKD
ROOT
HETATM    1  O5* UNL     1     -10.375  19.854  66.065  1.00  0.00    -0.476 OA 
HETATM    2  H5* UNL     1     -11.105  20.450  65.951  1.00  0.00     0.000 HD 
HETATM    3  C5* UNL     1     -10.469  19.141  67.298  1.00  0.00    -0.456 C  
ENDROOT
BRANCH   3   4
HETATM    4  C4* UNL     1      -9.294  18.181  67.480  1.00  0.00    -0.258 C  
HETATM    5  O4* UNL     1      -9.742  16.816  67.552  1.00  0.00    -0.245 OA 
HETATM    6  C1* UNL     1      -8.588  16.019  67.242  1.00  0.00    -0.184 C  
HETATM    7  C2* UNL     1      -7.825  16.791  66.169  1.00  0.00    -0.245 C  
HETATM    8  H3* UNL     1      -6.556  19.107  65.975  1.00  0.00     0.000 HD 
HETATM    9  O3* UNL     1      -7.188  19.077  66.684  1.00  0.00    -0.205 OA 
HETATM   10  C3* UNL     1      -8.279  18.228  66.341  1.00  0.00    -0.251 C  
BRANCH   6  11
HETATM   11  N   UNL     1      -8.956  14.655  66.864  1.00  0.00    -0.242 N  
HETATM   12  C   UNL     1      -8.389  13.549  67.475  1.00  0.00    -0.184 C  
HETATM   13  C   UNL     1      -7.973  11.110  67.688  1.00  0.00    -0.116 C  
HETATM   14  C   UNL     1      -8.613  12.292  67.061  1.00  0.00    -0.191 C  
HETATM   15  C   UNL     1      -9.506  12.094  65.915  1.00  0.00    -0.179 C  
HETATM   16  O   UNL     1      -9.729  11.001  65.410  1.00  0.00    -0.208 OA 
HETATM   17  N   UNL     1     -10.087  13.226  65.410  1.00  0.00    -0.419 N  
HETATM   18  F   UNL     1      -8.204   9.918  67.090  1.00  0.00    -0.117 F  
HETATM   19  F   UNL     1      -6.619  11.255  67.727  1.00  0.00    -0.062 F  
HETATM   20  F   UNL     1      -8.369  10.972  68.983  1.00  0.00    -0.144 F  
HETATM   21  C   UNL     1      -9.819  14.514  65.786  1.00  0.00    -0.314 C  
HETATM   22  H   UNL     1     -10.789  13.097  64.681  1.00  0.00     0.000 HD 
HETATM   23  O   UNL     1     -10.319  15.455  65.172  1.00  0.00    -0.382 OA 
ENDBRANCH   6  11
ENDBRANCH   3   4
TORSDOF 2
ENDMDL
MODEL      168
REMARK 921   NORMALIZED FREE ENERGY PREDICTED BY IDOCK:   -3.87 KCAL/MOL
REMARK 922        TOTAL FREE ENERGY PREDICTED BY IDOCK:   -4.75 KCAL/MOL
REMARK 923 INTER-LIGAND FREE ENERGY PREDICTED BY IDOCK:   -4.79 KCAL/MOL
REMARK 924 INTRA-LIGAND FREE ENERGY PREDICTED BY IDOCK:    0.04 KCAL/MOL
REMARK 927      BINDING AFFINITY PREDICTED BY RF-SCORE:    0.00 PKD
ROOT
HETATM    1  O5* UNL     1      -9.631  12.515  64.637  1.00  0.00    -0.483 OA 
HETATM    2  H5* UNL     1      -9.688  12.634  63.697  1.00  0.00     0.000 HD 
HETATM    3  C5* UNL     1     -10.827  11.942  65.166  1.00  0.00    -0.300 C  
ENDROOT
BRANCH   3   4
HETATM    4  C4* UNL     1     -10.735  11.749  66.678  1.00  0.00    -0.263 C  
HETATM    5  O4* UNL     1     -11.266  10.472  67.075  1.00  0.00    -0.238 OA 
HETATM    6  C1* UNL     1     -10.706  10.213  68.372  1.00  0.00    -0.230 C  
HETATM    7  C2* UNL     1      -9.283  10.762  68.328  1.00  0.00    -0.157 C  
HETATM    8  H3* UNL     1      -8.119  13.123  68.051  1.00  0.00     0.000 HD 
HETATM    9  O3* UNL     1      -9.006  13.095  67.715  1.00  0.00    -0.174 OA 
HETATM   10  C3* UNL     1      -9.307  11.794  67.218  1.00  0.00    -0.171 C  
BRANCH   6  11
HETATM   11  N   UNL     1     -10.802   8.799  68.732  1.00  0.00    -0.064 N  
HETATM   12  C   UNL     1     -11.215   8.391  69.989  1.00  0.00    -0.085 C  
HETATM   13  C   UNL     1     -11.592   6.677  71.747  1.00  0.00    -0.304 C  
HETATM   14  C   UNL     1     -11.190   7.110  70.386  1.00  0.00    -0.320 C  
HETATM   15  C   UNL     1     -10.710   6.104  69.432  1.00  0.00    -0.320 C  
HETATM   16  O   UNL     1     -10.581   4.918  69.706  1.00  0.00    -0.152 OA 
HETATM   17  N   UNL     1     -10.389   6.570  68.186  1.00  0.00    -0.168 N  
HETATM   18  F   UNL     1     -11.404   5.369  72.038  1.00  0.00    -0.288 F  
HETATM   19  F   UNL     1     -10.912   7.376  72.698  1.00  0.00    -0.251 F  
HETATM   20  F   UNL     1     -12.910   6.933  71.969  1.00  0.00    -0.353 F  
HETATM   21  C   UNL     1     -10.354   7.881  67.792  1.00  0.00    -0.226 C  
HETATM   22  H   UNL     1     -10.153   5.872  67.480  1.00  0.00     0.000 HD 
HETATM   23  O   UNL     1      -9.934   8.181  66.677  1.00  0.00    -0.247 OA 
ENDBRANCH   6  11
ENDBRANCH   3   4
TORSDOF 2
ENDMDL
MODEL      169
REMARK 921   NORMALIZED FREE ENERGY PREDICTED BY IDOCK:   -3.86 KCAL/MOL
REMARK 922        TOTAL FREE ENERGY PREDICTED BY IDOCK:   -4.74 KCAL/MOL
REMARK 923 INTER-LIGAND FREE ENERGY PREDICTED BY IDOCK:   -4.39 KCAL/MOL
REMARK 924 INTRA-LIGAND FREE ENERGY PREDICTED BY IDOCK:   -0.35 KCAL/MOL
REMARK 927      BINDING AFFINITY PREDICTED BY RF-SCORE:    0.00 PKD
ROOT
HETATM    1  O5* UNL     1     -14.384   9.985  72.793  1.00  0.00    -0.392 OA 
HETATM    2  H5* UNL     1     -15.323   9.951  72.930  1.00  0.00     0.000 HD 
HETATM    3  C5* UNL     1     -13.955   8.997  71.857  1.00  0.00    -0.387 C  
ENDROOT
BRANCH   3   4
HETATM    4  C4* UNL     1     -12.444   9.053  71.637  1.00  0.00    -0.351 C  
HETATM    5  O4* UNL     1     -11.902   7.741  71.402  1.00  0.00    -0.283 OA 
HETATM    6  C1* UNL     1     -10.639   7.960  70.756  1.00  0.00    -0.214 C  
HETATM    7  C2* UNL     1     -10.843   9.163  69.839  1.00  0.00    -0.242 C  
HETATM    8  H3* UNL     1     -11.406  11.736  70.107  1.00  0.00     0.000 HD 
HETATM    9  O3* UNL     1     -11.665  11.210  70.854  1.00  0.00    -0.246 OA 
HETATM   10  C3* UNL     1     -12.028   9.898  70.435  1.00  0.00    -0.195 C  
BRANCH   6  11
HETATM   11  N   UNL     1     -10.158   6.755  70.080  1.00  0.00    -0.183 N  
HETATM   12  C   UNL     1     -10.310   6.572  68.716  1.00  0.00    -0.193 C  
HETATM   13  C   UNL     1     -10.196   5.213  66.640  1.00  0.00    -0.261 C  
HETATM   14  C   UNL     1      -9.994   5.426  68.094  1.00  0.00    -0.207 C  
HETATM   15  C   UNL     1      -9.456   4.328  68.905  1.00  0.00    -0.168 C  
HETATM   16  O   UNL     1      -9.196   3.219  68.458  1.00  0.00    -0.144 OA 
HETATM   17  N   UNL     1      -9.264   4.607  70.232  1.00  0.00    -0.121 N  
HETATM   18  F   UNL     1      -9.939   3.968  66.176  1.00  0.00    -0.197 F  
HETATM   19  F   UNL     1     -11.481   5.490  66.284  1.00  0.00    -0.112 F  
HETATM   20  F   UNL     1      -9.419   6.061  65.912  1.00  0.00    -0.173 F  
HETATM   21  C   UNL     1      -9.639   5.750  70.885  1.00  0.00    -0.168 C  
HETATM   22  H   UNL     1      -8.795   3.892  70.789  1.00  0.00     0.000 HD 
HETATM   23  O   UNL     1      -9.519   5.833  72.106  1.00  0.00    -0.150 OA 
ENDBRANCH   6  11
ENDBRANCH   3   4
TORSDOF 2
ENDMDL
MODEL      170
REMARK 921   NORMALIZED FREE ENERGY PREDICTED BY IDOCK:   -3.85 KCAL/MOL
REMARK 922        TOTAL FREE ENERGY PREDICTED BY IDOCK:   -4.73 KCAL/MOL
REMARK 923 INTER-LIGAND FREE ENERGY PREDICTED BY IDOCK:   -5.05 KCAL/MOL
REMARK 924 INTRA-LIGAND FREE ENERGY PREDICTED BY IDOCK:    0.32 KCAL/MOL
REMARK 927      BINDING AFFINITY PREDICTED BY RF-SCORE:    0.00 PKD
ROOT
HETATM    1  O5* UNL     1      -7.397   5.965  71.176  1.00  0.00    -0.079 OA 
HETATM    2  H5* UNL     1      -7.033   5.149  70.854  1.00  0.00     0.000 HD 
HETATM    3  C5* UNL     1      -8.633   6.277  70.533  1.00  0.00    -0.139 C  
ENDROOT
BRANCH   3   4
HETATM    4  C4* UNL     1      -9.218   7.589  71.051  1.00  0.00    -0.152 C  
HETATM    5  O4* UNL     1      -9.210   8.603  70.029  1.00  0.00    -0.151 OA 
HETATM    6  C1* UNL     1     -10.177   9.577  70.451  1.00  0.00    -0.279 C  
HETATM    7  C2* UNL     1     -11.310   8.785  71.099  1.00  0.00    -0.345 C  
HETATM    8  H3* UNL     1     -11.626   7.226  73.215  1.00  0.00     0.000 HD 
HETATM    9  O3* UNL     1     -10.724   7.297  72.927  1.00  0.00    -0.262 OA 
HETATM   10  C3* UNL     1     -10.668   7.475  71.515  1.00  0.00    -0.218 C  
BRANCH   6  11
HETATM   11  N   UNL     1     -10.594  10.442  69.348  1.00  0.00    -0.224 N  
HETATM   12  C   UNL     1     -10.976  11.756  69.554  1.00  0.00    -0.064 C  
HETATM   13  C   UNL     1     -11.932  13.925  68.811  1.00  0.00    -0.358 C  
HETATM   14  C   UNL     1     -11.482  12.530  68.581  1.00  0.00    -0.348 C  
HETATM   15  C   UNL     1     -11.625  11.948  67.243  1.00  0.00    -0.293 C  
HETATM   16  O   UNL     1     -12.135  12.536  66.298  1.00  0.00    -0.574 OA 
HETATM   17  N   UNL     1     -11.158  10.669  67.097  1.00  0.00    -0.255 N  
HETATM   18  F   UNL     1     -12.527  14.542  67.763  1.00  0.00    -0.287 F  
HETATM   19  F   UNL     1     -12.823  13.985  69.838  1.00  0.00    -0.341 F  
HETATM   20  F   UNL     1     -10.888  14.718  69.178  1.00  0.00    -0.226 F  
HETATM   21  C   UNL     1     -10.697   9.853  68.095  1.00  0.00    -0.233 C  
HETATM   22  H   UNL     1     -11.154  10.286  66.151  1.00  0.00     0.000 HD 
HETATM   23  O   UNL     1     -10.417   8.680  67.855  1.00  0.00    -0.228 OA 
ENDBRANCH   6  11
ENDBRANCH   3   4
TORSDOF 2
ENDMDL
MODEL      171
REMARK 921   NORMALIZED FREE ENERGY PREDICTED BY IDOCK:   -3.85 KCAL/MOL
REMARK 922        TOTAL FREE ENERGY PREDICTED BY IDOCK:   -4.73 KCAL/MOL
REMARK 923 INTER-LIGAND FREE ENERGY PREDICTED BY IDOCK:   -4.28 KCAL/MOL
REMARK 924 INTRA-LIGAND FREE ENERGY PREDICTED BY IDOCK:   -0.45 KCAL/MOL
REMARK 927      BINDING AFFINITY PREDICTED BY RF-SCORE:    0.00 PKD
ROOT
HETATM    1  O5* UNL     1     -10.337  15.860  69.977  1.00  0.00    -0.289 OA 
HETATM    2  H5* UNL     1     -10.740  16.318  70.705  1.00  0.00     0.000 HD 
HETATM    3  C5* UNL     1      -9.779  16.770  69.030  1.00  0.00    -0.244 C  
ENDROOT
BRANCH   3   4
HETATM    4  C4* UNL     1      -9.131  16.033  67.859  1.00  0.00    -0.187 C  
HETATM    5  O4* UNL     1      -8.567  14.778  68.281  1.00  0.00    -0.151 OA 
HETATM    6  C1* UNL     1      -8.436  13.997  67.083  1.00  0.00    -0.190 C  
HETATM    7  C2* UNL     1      -9.654  14.337  66.229  1.00  0.00    -0.310 C  
HETATM    8  H3* UNL     1     -10.631  16.469  65.000  1.00  0.00     0.000 HD 
HETATM    9  O3* UNL     1     -10.026  16.678  65.702  1.00  0.00    -0.519 OA 
HETATM   10  C3* UNL     1     -10.103  15.696  66.731  1.00  0.00    -0.272 C  
BRANCH   6  11
HETATM   11  N   UNL     1      -8.278  12.573  67.377  1.00  0.00    -0.174 N  
HETATM   12  C   UNL     1      -9.347  11.783  67.760  1.00  0.00    -0.181 C  
HETATM   13  C   UNL     1     -10.348   9.674  68.609  1.00  0.00    -0.203 C  
HETATM   14  C   UNL     1      -9.208  10.508  68.158  1.00  0.00    -0.148 C  
HETATM   15  C   UNL     1      -7.857   9.937  68.174  1.00  0.00    -0.085 C  
HETATM   16  O   UNL     1      -7.603   8.810  68.580  1.00  0.00    -0.094 OA 
HETATM   17  N   UNL     1      -6.860  10.753  67.712  1.00  0.00    -0.072 N  
HETATM   18  F   UNL     1     -10.038   8.447  69.089  1.00  0.00    -0.181 F  
HETATM   19  F   UNL     1     -11.045  10.299  69.598  1.00  0.00    -0.226 F  
HETATM   20  F   UNL     1     -11.236   9.475  67.597  1.00  0.00    -0.308 F  
HETATM   21  C   UNL     1      -6.984  12.070  67.362  1.00  0.00    -0.139 C  
HETATM   22  H   UNL     1      -5.932  10.337  67.619  1.00  0.00     0.000 HD 
HETATM   23  O   UNL     1      -5.987  12.731  67.075  1.00  0.00    -0.307 OA 
ENDBRANCH   6  11
ENDBRANCH   3   4
TORSDOF 2
ENDMDL
MODEL      172
REMARK 921   NORMALIZED FREE ENERGY PREDICTED BY IDOCK:   -3.85 KCAL/MOL
REMARK 922        TOTAL FREE ENERGY PREDICTED BY IDOCK:   -4.73 KCAL/MOL
REMARK 923 INTER-LIGAND FREE ENERGY PREDICTED BY IDOCK:   -4.28 KCAL/MOL
REMARK 924 INTRA-LIGAND FREE ENERGY PREDICTED BY IDOCK:   -0.46 KCAL/MOL
REMARK 927      BINDING AFFINITY PREDICTED BY RF-SCORE:    0.00 PKD
ROOT
HETATM    1  O5* UNL     1     -10.043   4.162  70.283  1.00  0.00    -0.160 OA 
HETATM    2  H5* UNL     1      -9.902   3.367  69.783  1.00  0.00     0.000 HD 
HETATM    3  C5* UNL     1      -9.551   5.309  69.591  1.00  0.00    -0.163 C  
ENDROOT
BRANCH   3   4
HETATM    4  C4* UNL     1      -9.780   6.588  70.395  1.00  0.00    -0.172 C  
HETATM    5  O4* UNL     1      -9.098   7.707  69.801  1.00  0.00    -0.147 OA 
HETATM    6  C1* UNL     1      -9.749   8.874  70.325  1.00  0.00    -0.185 C  
HETATM    7  C2* UNL     1     -11.229   8.513  70.428  1.00  0.00    -0.224 C  
HETATM    8  H3* UNL     1     -12.720   6.796  71.783  1.00  0.00     0.000 HD 
HETATM    9  O3* UNL     1     -11.808   6.541  71.721  1.00  0.00    -0.310 OA 
HETATM   10  C3* UNL     1     -11.247   6.998  70.494  1.00  0.00    -0.295 C  
BRANCH   6  11
HETATM   11  N   UNL     1      -9.468  10.062  69.521  1.00  0.00    -0.217 N  
HETATM   12  C   UNL     1     -10.343  10.510  68.547  1.00  0.00    -0.179 C  
HETATM   13  C   UNL     1     -10.972  11.971  66.638  1.00  0.00    -0.287 C  
HETATM   14  C   UNL     1     -10.052  11.518  67.710  1.00  0.00    -0.198 C  
HETATM   15  C   UNL     1      -8.747  12.173  67.851  1.00  0.00    -0.176 C  
HETATM   16  O   UNL     1      -8.347  13.055  67.103  1.00  0.00    -0.184 OA 
HETATM   17  N   UNL     1      -7.964  11.726  68.882  1.00  0.00    -0.331 N  
HETATM   18  F   UNL     1     -10.493  12.920  65.801  1.00  0.00    -0.262 F  
HETATM   19  F   UNL     1     -11.347  10.927  65.849  1.00  0.00    -0.140 F  
HETATM   20  F   UNL     1     -12.124  12.470  67.165  1.00  0.00    -0.431 F  
HETATM   21  C   UNL     1      -8.228  10.661  69.700  1.00  0.00     0.064 C  
HETATM   22  H   UNL     1      -7.099  12.238  69.058  1.00  0.00     0.000 HD 
HETATM   23  O   UNL     1      -7.388  10.284  70.515  1.00  0.00    -0.281 OA 
ENDBRANCH   6  11
ENDBRANCH   3   4
TORSDOF 2
ENDMDL
MODEL      173
REMARK 921   NORMALIZED FREE ENERGY PREDICTED BY IDOCK:   -3.85 KCAL/MOL
REMARK 922        TOTAL FREE ENERGY PREDICTED BY IDOCK:   -4.73 KCAL/MOL
REMARK 923 INTER-LIGAND FREE ENERGY PREDICTED BY IDOCK:   -4.84 KCAL/MOL
REMARK 924 INTRA-LIGAND FREE ENERGY PREDICTED BY IDOCK:    0.11 KCAL/MOL
REMARK 927      BINDING AFFINITY PREDICTED BY RF-SCORE:    0.00 PKD
ROOT
HETATM    1  O5* UNL     1      -6.901   6.304  69.361  1.00  0.00    -0.060 OA 
HETATM    2  H5* UNL     1      -6.223   5.668  69.169  1.00  0.00     0.000 HD 
HETATM    3  C5* UNL     1      -7.101   7.201  68.269  1.00  0.00    -0.082 C  
ENDROOT
BRANCH   3   4
HETATM    4  C4* UNL     1      -8.192   8.225  68.577  1.00  0.00    -0.131 C  
HETATM    5  O4* UNL     1      -8.225   9.267  67.586  1.00  0.00    -0.114 OA 
HETATM    6  C1* UNL     1      -9.529   9.859  67.698  1.00  0.00    -0.147 C  
HETATM    7  C2* UNL     1     -10.483   8.709  68.008  1.00  0.00    -0.254 C  
HETATM    8  H3* UNL     1     -10.858   6.970  69.968  1.00  0.00     0.000 HD 
HETATM    9  O3* UNL     1      -9.983   7.338  69.949  1.00  0.00    -0.181 OA 
HETATM   10  C3* UNL     1      -9.599   7.633  68.609  1.00  0.00    -0.152 C  
BRANCH   6  11
HETATM   11  N   UNL     1      -9.877  10.635  66.509  1.00  0.00    -0.197 N  
HETATM   12  C   UNL     1     -10.476  11.880  66.598  1.00  0.00    -0.216 C  
HETATM   13  C   UNL     1     -11.600  13.870  65.625  1.00  0.00    -0.333 C  
HETATM   14  C   UNL     1     -10.920  12.555  65.527  1.00  0.00    -0.322 C  
HETATM   15  C   UNL     1     -10.751  11.939  64.207  1.00  0.00    -0.338 C  
HETATM   16  O   UNL     1     -11.176  12.430  63.169  1.00  0.00    -0.387 OA 
HETATM   17  N   UNL     1     -10.085  10.742  64.189  1.00  0.00    -0.338 N  
HETATM   18  F   UNL     1     -12.096  14.374  64.471  1.00  0.00    -0.399 F  
HETATM   19  F   UNL     1     -12.650  13.809  66.490  1.00  0.00    -0.436 F  
HETATM   20  F   UNL     1     -10.759  14.816  66.126  1.00  0.00    -0.288 F  
HETATM   21  C   UNL     1      -9.682  10.020  65.280  1.00  0.00    -0.306 C  
HETATM   22  H   UNL     1      -9.867  10.351  63.272  1.00  0.00     0.000 HD 
HETATM   23  O   UNL     1      -9.198   8.899  65.135  1.00  0.00    -0.162 OA 
ENDBRANCH   6  11
ENDBRANCH   3   4
TORSDOF 2
ENDMDL
MODEL      174
REMARK 921   NORMALIZED FREE ENERGY PREDICTED BY IDOCK:   -3.85 KCAL/MOL
REMARK 922        TOTAL FREE ENERGY PREDICTED BY IDOCK:   -4.73 KCAL/MOL
REMARK 923 INTER-LIGAND FREE ENERGY PREDICTED BY IDOCK:   -4.39 KCAL/MOL
REMARK 924 INTRA-LIGAND FREE ENERGY PREDICTED BY IDOCK:   -0.34 KCAL/MOL
REMARK 927      BINDING AFFINITY PREDICTED BY RF-SCORE:    0.00 PKD
ROOT
HETATM    1  O5* UNL     1      -7.406  11.094  66.089  1.00  0.00    -0.287 OA 
HETATM    2  H5* UNL     1      -6.630  11.631  66.193  1.00  0.00     0.000 HD 
HETATM    3  C5* UNL     1      -7.071   9.717  65.921  1.00  0.00    -0.098 C  
ENDROOT
BRANCH   3   4
HETATM    4  C4* UNL     1      -8.320   8.853  65.754  1.00  0.00    -0.134 C  
HETATM    5  O4* UNL     1      -8.289   7.716  66.635  1.00  0.00    -0.119 OA 
HETATM    6  C1* UNL     1      -9.653   7.278  66.740  1.00  0.00    -0.185 C  
HETATM    7  C2* UNL     1     -10.499   8.549  66.736  1.00  0.00    -0.308 C  
HETATM    8  H3* UNL     1     -11.028  10.525  65.056  1.00  0.00     0.000 HD 
HETATM    9  O3* UNL     1     -10.218  10.068  64.863  1.00  0.00    -0.261 OA 
HETATM   10  C3* UNL     1      -9.621   9.587  66.064  1.00  0.00    -0.251 C  
BRANCH   6  11
HETATM   11  N   UNL     1      -9.858   6.415  67.903  1.00  0.00    -0.120 N  
HETATM   12  C   UNL     1     -10.630   6.812  68.981  1.00  0.00    -0.230 C  
HETATM   13  C   UNL     1     -11.523   6.539  71.283  1.00  0.00    -0.318 C  
HETATM   14  C   UNL     1     -10.730   6.094  70.111  1.00  0.00    -0.366 C  
HETATM   15  C   UNL     1      -9.991   4.830  70.190  1.00  0.00    -0.251 C  
HETATM   16  O   UNL     1      -9.954   4.128  71.192  1.00  0.00    -0.188 OA 
HETATM   17  N   UNL     1      -9.310   4.466  69.059  1.00  0.00    -0.141 N  
HETATM   18  F   UNL     1     -11.436   5.767  72.391  1.00  0.00    -0.304 F  
HETATM   19  F   UNL     1     -11.156   7.793  71.668  1.00  0.00    -0.238 F  
HETATM   20  F   UNL     1     -12.846   6.618  70.974  1.00  0.00    -0.369 F  
HETATM   21  C   UNL     1      -9.153   5.219  67.927  1.00  0.00    -0.110 C  
HETATM   22  H   UNL     1      -8.876   3.542  69.061  1.00  0.00     0.000 HD 
HETATM   23  O   UNL     1      -8.417   4.830  67.023  1.00  0.00    -0.106 OA 
ENDBRANCH   6  11
ENDBRANCH   3   4
TORSDOF 2
ENDMDL
MODEL      175
REMARK 921   NORMALIZED FREE ENERGY PREDICTED BY IDOCK:   -3.85 KCAL/MOL
REMARK 922        TOTAL FREE ENERGY PREDICTED BY IDOCK:   -4.73 KCAL/MOL
REMARK 923 INTER-LIGAND FREE ENERGY PREDICTED BY IDOCK:   -4.22 KCAL/MOL
REMARK 924 INTRA-LIGAND FREE ENERGY PREDICTED BY IDOCK:   -0.51 KCAL/MOL
REMARK 927      BINDING AFFINITY PREDICTED BY RF-SCORE:    0.00 PKD
ROOT
HETATM    1  O5* UNL     1     -10.274  14.064  64.258  1.00  0.00    -0.674 OA 
HETATM    2  H5* UNL     1     -10.312  14.656  63.515  1.00  0.00     0.000 HD 
HETATM    3  C5* UNL     1     -11.188  12.979  64.109  1.00  0.00    -0.399 C  
ENDROOT
BRANCH   3   4
HETATM    4  C4* UNL     1     -11.127  12.028  65.303  1.00  0.00    -0.317 C  
HETATM    5  O4* UNL     1     -10.730  10.705  64.897  1.00  0.00    -0.217 OA 
HETATM    6  C1* UNL     1     -10.254  10.066  66.092  1.00  0.00    -0.213 C  
HETATM    7  C2* UNL     1      -9.534  11.153  66.886  1.00  0.00    -0.203 C  
HETATM    8  H3* UNL     1     -10.170  13.425  68.087  1.00  0.00     0.000 HD 
HETATM    9  O3* UNL     1     -10.791  13.161  67.419  1.00  0.00    -0.250 OA 
HETATM   10  C3* UNL     1     -10.127  12.452  66.377  1.00  0.00    -0.236 C  
BRANCH   6  11
HETATM   11  N   UNL     1      -9.437   8.891  65.791  1.00  0.00    -0.230 N  
HETATM   12  C   UNL     1      -8.397   8.938  64.878  1.00  0.00    -0.172 C  
HETATM   13  C   UNL     1      -6.630   7.891  63.481  1.00  0.00    -0.067 C  
HETATM   14  C   UNL     1      -7.717   7.848  64.490  1.00  0.00    -0.125 C  
HETATM   15  C   UNL     1      -8.096   6.557  65.073  1.00  0.00    -0.127 C  
HETATM   16  O   UNL     1      -7.592   5.490  64.745  1.00  0.00    -0.071 OA 
HETATM   17  N   UNL     1      -9.083   6.598  66.022  1.00  0.00    -0.294 N  
HETATM   18  F   UNL     1      -6.115   6.697  63.106  1.00  0.00    -0.034 F  
HETATM   19  F   UNL     1      -7.056   8.493  62.336  1.00  0.00    -0.096 F  
HETATM   20  F   UNL     1      -5.583   8.637  63.926  1.00  0.00    -0.061 F  
HETATM   21  C   UNL     1      -9.821   7.694  66.379  1.00  0.00    -0.104 C  
HETATM   22  H   UNL     1      -9.287   5.726  66.511  1.00  0.00     0.000 HD 
HETATM   23  O   UNL     1     -10.763   7.577  67.161  1.00  0.00    -0.326 OA 
ENDBRANCH   6  11
ENDBRANCH   3   4
TORSDOF 2
ENDMDL
MODEL      176
REMARK 921   NORMALIZED FREE ENERGY PREDICTED BY IDOCK:   -3.84 KCAL/MOL
REMARK 922        TOTAL FREE ENERGY PREDICTED BY IDOCK:   -4.71 KCAL/MOL
REMARK 923 INTER-LIGAND FREE ENERGY PREDICTED BY IDOCK:   -4.38 KCAL/MOL
REMARK 924 INTRA-LIGAND FREE ENERGY PREDICTED BY IDOCK:   -0.34 KCAL/MOL
REMARK 927      BINDING AFFINITY PREDICTED BY RF-SCORE:    0.00 PKD
ROOT
HETATM    1  O5* UNL     1     -11.762  12.892  67.705  1.00  0.00    -0.338 OA 
HETATM    2  H5* UNL     1     -12.377  13.431  68.187  1.00  0.00     0.000 HD 
HETATM    3  C5* UNL     1     -11.340  13.529  66.499  1.00  0.00    -0.319 C  
ENDROOT
BRANCH   3   4
HETATM    4  C4* UNL     1     -10.350  12.661  65.724  1.00  0.00    -0.279 C  
HETATM    5  O4* UNL     1      -9.648  11.762  66.600  1.00  0.00    -0.196 OA 
HETATM    6  C1* UNL     1      -9.142  10.720  65.751  1.00  0.00    -0.188 C  
HETATM    7  C2* UNL     1     -10.216  10.488  64.691  1.00  0.00    -0.364 C  
HETATM    8  H3* UNL     1     -11.329  11.861  62.721  1.00  0.00     0.000 HD 
HETATM    9  O3* UNL     1     -10.922  12.408  63.382  1.00  0.00    -0.456 OA 
HETATM   10  C3* UNL     1     -11.005  11.783  64.660  1.00  0.00    -0.310 C  
BRANCH   6  11
HETATM   11  N   UNL     1      -8.773   9.528  66.513  1.00  0.00    -0.133 N  
HETATM   12  C   UNL     1      -9.572   8.399  66.537  1.00  0.00    -0.236 C  
HETATM   13  C   UNL     1     -10.202   6.150  67.385  1.00  0.00    -0.184 C  
HETATM   14  C   UNL     1      -9.322   7.343  67.327  1.00  0.00    -0.159 C  
HETATM   15  C   UNL     1      -8.139   7.398  68.193  1.00  0.00    -0.124 C  
HETATM   16  O   UNL     1      -7.850   6.525  69.002  1.00  0.00    -0.106 OA 
HETATM   17  N   UNL     1      -7.356   8.513  68.062  1.00  0.00    -0.091 N  
HETATM   18  F   UNL     1      -9.884   5.217  68.312  1.00  0.00    -0.150 F  
HETATM   19  F   UNL     1     -11.490   6.511  67.640  1.00  0.00    -0.384 F  
HETATM   20  F   UNL     1     -10.227   5.506  66.186  1.00  0.00    -0.198 F  
HETATM   21  C   UNL     1      -7.635   9.618  67.305  1.00  0.00    -0.091 C  
HETATM   22  H   UNL     1      -6.476   8.520  68.580  1.00  0.00     0.000 HD 
HETATM   23  O   UNL     1      -6.908  10.608  67.363  1.00  0.00    -0.074 OA 
ENDBRANCH   6  11
ENDBRANCH   3   4
TORSDOF 2
ENDMDL
MODEL      177
REMARK 921   NORMALIZED FREE ENERGY PREDICTED BY IDOCK:   -3.83 KCAL/MOL
REMARK 922        TOTAL FREE ENERGY PREDICTED BY IDOCK:   -4.71 KCAL/MOL
REMARK 923 INTER-LIGAND FREE ENERGY PREDICTED BY IDOCK:   -4.36 KCAL/MOL
REMARK 924 INTRA-LIGAND FREE ENERGY PREDICTED BY IDOCK:   -0.35 KCAL/MOL
REMARK 927      BINDING AFFINITY PREDICTED BY RF-SCORE:    0.00 PKD
ROOT
HETATM    1  O5* UNL     1      -5.875   7.922  71.160  1.00  0.00    -0.034 OA 
HETATM    2  H5* UNL     1      -5.096   8.068  71.682  1.00  0.00     0.000 HD 
HETATM    3  C5* UNL     1      -7.060   8.020  71.950  1.00  0.00    -0.078 C  
ENDROOT
BRANCH   3   4
HETATM    4  C4* UNL     1      -8.314   7.786  71.109  1.00  0.00    -0.111 C  
HETATM    5  O4* UNL     1      -9.169   8.943  71.113  1.00  0.00    -0.211 OA 
HETATM    6  C1* UNL     1     -10.015   8.795  69.962  1.00  0.00    -0.187 C  
HETATM    7  C2* UNL     1      -9.140   8.172  68.879  1.00  0.00    -0.147 C  
HETATM    8  H3* UNL     1      -7.847   5.894  68.498  1.00  0.00     0.000 HD 
HETATM    9  O3* UNL     1      -8.028   6.080  69.411  1.00  0.00    -0.100 OA 
HETATM   10  C3* UNL     1      -8.022   7.486  69.641  1.00  0.00    -0.125 C  
BRANCH   6  11
HETATM   11  N   UNL     1     -10.643  10.061  69.584  1.00  0.00    -0.234 N  
HETATM   12  C   UNL     1     -10.268  10.751  68.445  1.00  0.00    -0.175 C  
HETATM   13  C   UNL     1     -10.301  12.731  66.945  1.00  0.00    -0.238 C  
HETATM   14  C   UNL     1     -10.736  11.972  68.143  1.00  0.00    -0.246 C  
HETATM   15  C   UNL     1     -11.695  12.588  69.066  1.00  0.00    -0.318 C  
HETATM   16  O   UNL     1     -12.136  13.722  68.929  1.00  0.00    -0.349 OA 
HETATM   17  N   UNL     1     -12.076  11.817  70.132  1.00  0.00    -0.328 N  
HETATM   18  F   UNL     1     -10.772  13.995  66.835  1.00  0.00    -0.277 F  
HETATM   19  F   UNL     1      -8.944  12.830  66.900  1.00  0.00    -0.198 F  
HETATM   20  F   UNL     1     -10.665  12.086  65.803  1.00  0.00    -0.279 F  
HETATM   21  C   UNL     1     -11.559  10.598  70.478  1.00  0.00    -0.350 C  
HETATM   22  H   UNL     1     -12.818  12.188  70.726  1.00  0.00     0.000 HD 
HETATM   23  O   UNL     1     -11.901  10.057  71.528  1.00  0.00    -0.377 OA 
ENDBRANCH   6  11
ENDBRANCH   3   4
TORSDOF 2
ENDMDL
MODEL      178
REMARK 921   NORMALIZED FREE ENERGY PREDICTED BY IDOCK:   -3.82 KCAL/MOL
REMARK 922        TOTAL FREE ENERGY PREDICTED BY IDOCK:   -4.70 KCAL/MOL
REMARK 923 INTER-LIGAND FREE ENERGY PREDICTED BY IDOCK:   -4.37 KCAL/MOL
REMARK 924 INTRA-LIGAND FREE ENERGY PREDICTED BY IDOCK:   -0.32 KCAL/MOL
REMARK 927      BINDING AFFINITY PREDICTED BY RF-SCORE:    0.00 PKD
ROOT
HETATM    1  O5* UNL     1      -7.955  10.535  66.214  1.00  0.00    -0.131 OA 
HETATM    2  H5* UNL     1      -7.242  10.579  65.588  1.00  0.00     0.000 HD 
HETATM    3  C5* UNL     1      -9.214  10.375  65.561  1.00  0.00    -0.184 C  
ENDROOT
BRANCH   3   4
HETATM    4  C4* UNL     1     -10.361  10.304  66.568  1.00  0.00    -0.211 C  
HETATM    5  O4* UNL     1     -10.001   9.513  67.714  1.00  0.00    -0.158 OA 
HETATM    6  C1* UNL     1     -10.915   9.905  68.750  1.00  0.00    -0.179 C  
HETATM    7  C2* UNL     1     -11.132  11.405  68.568  1.00  0.00    -0.287 C  
HETATM    8  H3* UNL     1     -12.171  13.009  66.736  1.00  0.00     0.000 HD 
HETATM    9  O3* UNL     1     -11.908  12.162  66.395  1.00  0.00    -0.563 OA 
HETATM   10  C3* UNL     1     -10.783  11.665  67.116  1.00  0.00    -0.247 C  
BRANCH   6  11
HETATM   11  N   UNL     1     -10.433   9.517  70.075  1.00  0.00    -0.228 N  
HETATM   12  C   UNL     1      -9.111   9.174  70.301  1.00  0.00    -0.218 C  
HETATM   13  C   UNL     1      -7.263   8.286  71.704  1.00  0.00    -0.088 C  
HETATM   14  C   UNL     1      -8.671   8.693  71.474  1.00  0.00    -0.266 C  
HETATM   15  C   UNL     1      -9.643   8.537  72.561  1.00  0.00    -0.254 C  
HETATM   16  O   UNL     1      -9.370   8.047  73.649  1.00  0.00    -0.270 OA 
HETATM   17  N   UNL     1     -10.915   8.965  72.289  1.00  0.00    -0.280 N  
HETATM   18  F   UNL     1      -6.994   7.712  72.899  1.00  0.00    -0.062 F  
HETATM   19  F   UNL     1      -6.857   7.394  70.758  1.00  0.00    -0.046 F  
HETATM   20  F   UNL     1      -6.424   9.352  71.593  1.00  0.00    -0.078 F  
HETATM   21  C   UNL     1     -11.385   9.399  71.079  1.00  0.00    -0.337 C  
HETATM   22  H   UNL     1     -11.578   8.960  73.065  1.00  0.00     0.000 HD 
HETATM   23  O   UNL     1     -12.581   9.644  70.932  1.00  0.00    -0.288 OA 
ENDBRANCH   6  11
ENDBRANCH   3   4
TORSDOF 2
ENDMDL
MODEL      179
REMARK 921   NORMALIZED FREE ENERGY PREDICTED BY IDOCK:   -3.80 KCAL/MOL
REMARK 922        TOTAL FREE ENERGY PREDICTED BY IDOCK:   -4.68 KCAL/MOL
REMARK 923 INTER-LIGAND FREE ENERGY PREDICTED BY IDOCK:   -4.25 KCAL/MOL
REMARK 924 INTRA-LIGAND FREE ENERGY PREDICTED BY IDOCK:   -0.42 KCAL/MOL
REMARK 927      BINDING AFFINITY PREDICTED BY RF-SCORE:    0.00 PKD
ROOT
HETATM    1  O5* UNL     1      -8.358   7.614  64.677  1.00  0.00    -0.307 OA 
HETATM    2  H5* UNL     1      -7.955   8.009  63.913  1.00  0.00     0.000 HD 
HETATM    3  C5* UNL     1      -7.830   6.314  64.934  1.00  0.00    -0.113 C  
ENDROOT
BRANCH   3   4
HETATM    4  C4* UNL     1      -8.478   5.679  66.163  1.00  0.00    -0.128 C  
HETATM    5  O4* UNL     1      -8.712   6.656  67.193  1.00  0.00    -0.111 OA 
HETATM    6  C1* UNL     1      -9.713   6.080  68.046  1.00  0.00    -0.119 C  
HETATM    7  C2* UNL     1     -10.660   5.320  67.121  1.00  0.00    -0.227 C  
HETATM    8  H3* UNL     1     -10.528   3.237  65.492  1.00  0.00     0.000 HD 
HETATM    9  O3* UNL     1      -9.684   3.636  65.668  1.00  0.00    -0.168 OA 
HETATM   10  C3* UNL     1      -9.834   5.037  65.881  1.00  0.00    -0.164 C  
BRANCH   6  11
HETATM   11  N   UNL     1     -10.360   7.089  68.883  1.00  0.00    -0.184 N  
HETATM   12  C   UNL     1     -10.523   8.396  68.458  1.00  0.00    -0.164 C  
HETATM   13  C   UNL     1     -11.131  10.779  68.811  1.00  0.00    -0.259 C  
HETATM   14  C   UNL     1     -10.997   9.369  69.252  1.00  0.00    -0.137 C  
HETATM   15  C   UNL     1     -11.364   9.016  70.628  1.00  0.00    -0.265 C  
HETATM   16  O   UNL     1     -11.742   9.831  71.459  1.00  0.00    -0.379 OA 
HETATM   17  N   UNL     1     -11.246   7.691  70.954  1.00  0.00    -0.264 N  
HETATM   18  F   UNL     1     -11.514  11.667  69.757  1.00  0.00    -0.306 F  
HETATM   19  F   UNL     1      -9.952  11.245  68.312  1.00  0.00    -0.169 F  
HETATM   20  F   UNL     1     -12.032  10.887  67.797  1.00  0.00    -0.288 F  
HETATM   21  C   UNL     1     -10.708   6.706  70.171  1.00  0.00    -0.239 C  
HETATM   22  H   UNL     1     -11.594   7.411  71.871  1.00  0.00     0.000 HD 
HETATM   23  O   UNL     1     -10.548   5.574  70.623  1.00  0.00    -0.262 OA 
ENDBRANCH   6  11
ENDBRANCH   3   4
TORSDOF 2
ENDMDL
MODEL      180
REMARK 921   NORMALIZED FREE ENERGY PREDICTED BY IDOCK:   -3.80 KCAL/MOL
REMARK 922        TOTAL FREE ENERGY PREDICTED BY IDOCK:   -4.68 KCAL/MOL
REMARK 923 INTER-LIGAND FREE ENERGY PREDICTED BY IDOCK:   -5.07 KCAL/MOL
REMARK 924 INTRA-LIGAND FREE ENERGY PREDICTED BY IDOCK:    0.39 KCAL/MOL
REMARK 927      BINDING AFFINITY PREDICTED BY RF-SCORE:    0.00 PKD
ROOT
HETATM    1  O5* UNL     1     -13.101  15.944  70.249  1.00  0.00    -0.700 OA 
HETATM    2  H5* UNL     1     -13.793  16.062  70.889  1.00  0.00     0.000 HD 
HETATM    3  C5* UNL     1     -12.485  14.663  70.374  1.00  0.00    -0.352 C  
ENDROOT
BRANCH   3   4
HETATM    4  C4* UNL     1     -11.373  14.474  69.343  1.00  0.00    -0.279 C  
HETATM    5  O4* UNL     1     -11.020  13.086  69.206  1.00  0.00    -0.181 OA 
HETATM    6  C1* UNL     1     -10.359  12.984  67.935  1.00  0.00    -0.231 C  
HETATM    7  C2* UNL     1     -11.090  13.952  67.008  1.00  0.00    -0.311 C  
HETATM    8  H3* UNL     1     -11.482  16.565  66.847  1.00  0.00     0.000 HD 
HETATM    9  O3* UNL     1     -11.251  16.268  67.719  1.00  0.00    -0.278 OA 
HETATM   10  C3* UNL     1     -11.745  14.951  67.942  1.00  0.00    -0.321 C  
BRANCH   6  11
HETATM   11  N   UNL     1     -10.311  11.603  67.456  1.00  0.00    -0.194 N  
HETATM   12  C   UNL     1     -10.297  10.528  68.327  1.00  0.00    -0.168 C  
HETATM   13  C   UNL     1     -10.066   8.112  68.857  1.00  0.00    -0.202 C  
HETATM   14  C   UNL     1     -10.125   9.261  67.920  1.00  0.00    -0.246 C  
HETATM   15  C   UNL     1      -9.955   9.017  66.484  1.00  0.00    -0.285 C  
HETATM   16  O   UNL     1      -9.724   7.913  66.006  1.00  0.00    -0.081 OA 
HETATM   17  N   UNL     1     -10.054  10.118  65.677  1.00  0.00    -0.272 N  
HETATM   18  F   UNL     1      -9.773   6.909  68.310  1.00  0.00    -0.132 F  
HETATM   19  F   UNL     1      -9.133   8.323  69.825  1.00  0.00    -0.142 F  
HETATM   20  F   UNL     1     -11.251   7.957  69.510  1.00  0.00    -0.179 F  
HETATM   21  C   UNL     1     -10.169  11.419  66.087  1.00  0.00    -0.239 C  
HETATM   22  H   UNL     1     -10.042   9.953  64.670  1.00  0.00     0.000 HD 
HETATM   23  O   UNL     1     -10.129  12.333  65.266  1.00  0.00    -0.273 OA 
ENDBRANCH   6  11
ENDBRANCH   3   4
TORSDOF 2
ENDMDL
MODEL      181
REMARK 921   NORMALIZED FREE ENERGY PREDICTED BY IDOCK:   -3.78 KCAL/MOL
REMARK 922        TOTAL FREE ENERGY PREDICTED BY IDOCK:   -4.66 KCAL/MOL
REMARK 923 INTER-LIGAND FREE ENERGY PREDICTED BY IDOCK:   -4.70 KCAL/MOL
REMARK 924 INTRA-LIGAND FREE ENERGY PREDICTED BY IDOCK:    0.05 KCAL/MOL
REMARK 927      BINDING AFFINITY PREDICTED BY RF-SCORE:    0.00 PKD
ROOT
HETATM    1  O5* UNL     1     -11.520  14.816  68.257  1.00  0.00    -0.289 OA 
HETATM    2  H5* UNL     1     -11.407  15.679  67.877  1.00  0.00     0.000 HD 
HETATM    3  C5* UNL     1     -11.675  13.817  67.250  1.00  0.00    -0.382 C  
ENDROOT
BRANCH   3   4
HETATM    4  C4* UNL     1     -11.858  12.429  67.862  1.00  0.00    -0.308 C  
HETATM    5  O4* UNL     1     -11.444  11.398  66.948  1.00  0.00    -0.445 OA 
HETATM    6  C1* UNL     1     -11.207  10.239  67.762  1.00  0.00    -0.190 C  
HETATM    7  C2* UNL     1     -10.599  10.761  69.061  1.00  0.00    -0.250 C  
HETATM    8  H3* UNL     1     -11.352  12.301  71.078  1.00  0.00     0.000 HD 
HETATM    9  O3* UNL     1     -11.857  12.439  70.286  1.00  0.00    -0.322 OA 
HETATM   10  C3* UNL     1     -11.047  12.207  69.136  1.00  0.00    -0.205 C  
BRANCH   6  11
HETATM   11  N   UNL     1     -10.394   9.243  67.066  1.00  0.00    -0.256 N  
HETATM   12  C   UNL     1     -10.660   7.888  67.158  1.00  0.00    -0.313 C  
HETATM   13  C   UNL     1     -10.119   5.494  66.770  1.00  0.00    -0.207 C  
HETATM   14  C   UNL     1      -9.857   6.948  66.635  1.00  0.00    -0.217 C  
HETATM   15  C   UNL     1      -8.649   7.391  65.931  1.00  0.00    -0.153 C  
HETATM   16  O   UNL     1      -7.811   6.624  65.474  1.00  0.00    -0.095 OA 
HETATM   17  N   UNL     1      -8.489   8.746  65.816  1.00  0.00    -0.139 N  
HETATM   18  F   UNL     1      -9.161   4.667  66.291  1.00  0.00    -0.115 F  
HETATM   19  F   UNL     1     -10.294   5.152  68.076  1.00  0.00    -0.220 F  
HETATM   20  F   UNL     1     -11.274   5.149  66.138  1.00  0.00    -0.270 F  
HETATM   21  C   UNL     1      -9.270   9.709  66.396  1.00  0.00    -0.163 C  
HETATM   22  H   UNL     1      -7.711   9.070  65.241  1.00  0.00     0.000 HD 
HETATM   23  O   UNL     1      -8.953  10.894  66.317  1.00  0.00    -0.164 OA 
ENDBRANCH   6  11
ENDBRANCH   3   4
TORSDOF 2
ENDMDL
MODEL      182
REMARK 921   NORMALIZED FREE ENERGY PREDICTED BY IDOCK:   -3.78 KCAL/MOL
REMARK 922        TOTAL FREE ENERGY PREDICTED BY IDOCK:   -4.65 KCAL/MOL
REMARK 923 INTER-LIGAND FREE ENERGY PREDICTED BY IDOCK:   -4.11 KCAL/MOL
REMARK 924 INTRA-LIGAND FREE ENERGY PREDICTED BY IDOCK:   -0.54 KCAL/MOL
REMARK 927      BINDING AFFINITY PREDICTED BY RF-SCORE:    0.00 PKD
ROOT
HETATM    1  O5* UNL     1     -12.913   8.980  72.524  1.00  0.00    -0.418 OA 
HETATM    2  H5* UNL     1     -13.481   9.708  72.303  1.00  0.00     0.000 HD 
HETATM    3  C5* UNL     1     -12.849   8.026  71.464  1.00  0.00    -0.311 C  
ENDROOT
BRANCH   3   4
HETATM    4  C4* UNL     1     -11.935   6.855  71.820  1.00  0.00    -0.333 C  
HETATM    5  O4* UNL     1     -11.757   5.972  70.698  1.00  0.00    -0.196 OA 
HETATM    6  C1* UNL     1     -10.561   5.230  70.982  1.00  0.00    -0.170 C  
HETATM    7  C2* UNL     1      -9.618   6.211  71.673  1.00  0.00    -0.166 C  
HETATM    8  H3* UNL     1      -9.565   7.591  73.931  1.00  0.00     0.000 HD 
HETATM    9  O3* UNL     1     -10.438   7.328  73.667  1.00  0.00    -0.365 OA 
HETATM   10  C3* UNL     1     -10.531   7.277  72.246  1.00  0.00    -0.214 C  
BRANCH   6  11
HETATM   11  N   UNL     1     -10.012   4.603  69.780  1.00  0.00    -0.230 N  
HETATM   12  C   UNL     1     -10.108   5.201  68.535  1.00  0.00    -0.144 C  
HETATM   13  C   UNL     1      -9.871   5.214  66.062  1.00  0.00    -0.163 C  
HETATM   14  C   UNL     1      -9.728   4.591  67.401  1.00  0.00    -0.218 C  
HETATM   15  C   UNL     1      -9.180   3.234  67.500  1.00  0.00    -0.193 C  
HETATM   16  O   UNL     1      -8.864   2.558  66.530  1.00  0.00    -0.119 OA 
HETATM   17  N   UNL     1      -9.046   2.737  68.769  1.00  0.00    -0.135 N  
HETATM   18  F   UNL     1      -9.552   4.434  65.003  1.00  0.00    -0.151 F  
HETATM   19  F   UNL     1     -11.152   5.626  65.853  1.00  0.00    -0.147 F  
HETATM   20  F   UNL     1      -9.099   6.331  65.961  1.00  0.00    -0.154 F  
HETATM   21  C   UNL     1      -9.486   3.326  69.923  1.00  0.00    -0.146 C  
HETATM   22  H   UNL     1      -8.572   1.839  68.863  1.00  0.00     0.000 HD 
HETATM   23  O   UNL     1      -9.413   2.724  70.993  1.00  0.00    -0.137 OA 
ENDBRANCH   6  11
ENDBRANCH   3   4
TORSDOF 2
ENDMDL
MODEL      183
REMARK 921   NORMALIZED FREE ENERGY PREDICTED BY IDOCK:   -3.78 KCAL/MOL
REMARK 922        TOTAL FREE ENERGY PREDICTED BY IDOCK:   -4.65 KCAL/MOL
REMARK 923 INTER-LIGAND FREE ENERGY PREDICTED BY IDOCK:   -4.26 KCAL/MOL
REMARK 924 INTRA-LIGAND FREE ENERGY PREDICTED BY IDOCK:   -0.40 KCAL/MOL
REMARK 927      BINDING AFFINITY PREDICTED BY RF-SCORE:    0.00 PKD
ROOT
HETATM    1  O5* UNL     1     -11.250  14.943  71.806  1.00  0.00    -0.548 OA 
HETATM    2  H5* UNL     1     -11.996  15.267  72.295  1.00  0.00     0.000 HD 
HETATM    3  C5* UNL     1     -10.949  15.783  70.692  1.00  0.00    -0.320 C  
ENDROOT
BRANCH   3   4
HETATM    4  C4* UNL     1      -9.748  15.260  69.905  1.00  0.00    -0.093 C  
HETATM    5  O4* UNL     1     -10.143  14.249  68.960  1.00  0.00    -0.209 OA 
HETATM    6  C1* UNL     1      -9.082  14.194  67.995  1.00  0.00    -0.191 C  
HETATM    7  C2* UNL     1      -8.607  15.633  67.815  1.00  0.00    -0.168 C  
HETATM    8  H3* UNL     1      -7.459  17.499  69.301  1.00  0.00     0.000 HD 
HETATM    9  O3* UNL     1      -7.905  16.831  69.808  1.00  0.00     0.332 OA 
HETATM   10  C3* UNL     1      -9.032  16.335  69.091  1.00  0.00    -0.219 C  
BRANCH   6  11
HETATM   11  N   UNL     1      -9.505  13.535  66.760  1.00  0.00    -0.263 N  
HETATM   12  C   UNL     1     -10.761  13.739  66.215  1.00  0.00    -0.285 C  
HETATM   13  C   UNL     1     -12.581  13.241  64.599  1.00  0.00    -0.293 C  
HETATM   14  C   UNL     1     -11.219  13.053  65.157  1.00  0.00    -0.321 C  
HETATM   15  C   UNL     1     -10.336  12.048  64.554  1.00  0.00    -0.296 C  
HETATM   16  O   UNL     1     -10.671  11.317  63.631  1.00  0.00    -0.375 OA 
HETATM   17  N   UNL     1      -9.083  11.953  65.099  1.00  0.00    -0.407 N  
HETATM   18  F   UNL     1     -12.942  12.396  63.606  1.00  0.00    -0.461 F  
HETATM   19  F   UNL     1     -13.525  13.105  65.571  1.00  0.00    -0.111 F  
HETATM   20  F   UNL     1     -12.734  14.500  64.106  1.00  0.00    -0.408 F  
HETATM   21  C   UNL     1      -8.630  12.606  66.213  1.00  0.00     0.286 C  
HETATM   22  H   UNL     1      -8.423  11.335  64.627  1.00  0.00     0.000 HD 
HETATM   23  O   UNL     1      -7.520  12.345  66.674  1.00  0.00     0.093 OA 
ENDBRANCH   6  11
ENDBRANCH   3   4
TORSDOF 2
ENDMDL
MODEL      184
REMARK 921   NORMALIZED FREE ENERGY PREDICTED BY IDOCK:   -3.75 KCAL/MOL
REMARK 922        TOTAL FREE ENERGY PREDICTED BY IDOCK:   -4.62 KCAL/MOL
REMARK 923 INTER-LIGAND FREE ENERGY PREDICTED BY IDOCK:   -4.71 KCAL/MOL
REMARK 924 INTRA-LIGAND FREE ENERGY PREDICTED BY IDOCK:    0.09 KCAL/MOL
REMARK 927      BINDING AFFINITY PREDICTED BY RF-SCORE:    0.00 PKD
ROOT
HETATM    1  O5* UNL     1      -7.295   8.030  65.934  1.00  0.00    -0.073 OA 
HETATM    2  H5* UNL     1      -7.247   7.162  65.551  1.00  0.00     0.000 HD 
HETATM    3  C5* UNL     1      -8.598   8.594  65.788  1.00  0.00    -0.163 C  
ENDROOT
BRANCH   3   4
HETATM    4  C4* UNL     1      -8.675   9.990  66.404  1.00  0.00    -0.129 C  
HETATM    5  O4* UNL     1      -9.943  10.206  67.050  1.00  0.00    -0.182 OA 
HETATM    6  C1* UNL     1      -9.726  11.294  67.962  1.00  0.00    -0.179 C  
HETATM    7  C2* UNL     1      -8.315  11.100  68.512  1.00  0.00    -0.154 C  
HETATM    8  H3* UNL     1      -5.843  11.106  67.566  1.00  0.00     0.000 HD 
HETATM    9  O3* UNL     1      -6.504  10.943  66.903  1.00  0.00    -0.079 OA 
HETATM   10  C3* UNL     1      -7.613  10.252  67.469  1.00  0.00    -0.094 C  
BRANCH   6  11
HETATM   11  N   UNL     1     -10.772  11.365  68.981  1.00  0.00    -0.211 N  
HETATM   12  C   UNL     1     -11.238  12.574  69.467  1.00  0.00    -0.093 C  
HETATM   13  C   UNL     1     -12.570  13.963  71.039  1.00  0.00    -0.371 C  
HETATM   14  C   UNL     1     -12.103  12.666  70.489  1.00  0.00    -0.360 C  
HETATM   15  C   UNL     1     -12.574  11.421  71.106  1.00  0.00    -0.386 C  
HETATM   16  O   UNL     1     -13.308  11.385  72.084  1.00  0.00    -0.469 OA 
HETATM   17  N   UNL     1     -12.128  10.264  70.526  1.00  0.00    -0.297 N  
HETATM   18  F   UNL     1     -13.349  13.898  72.143  1.00  0.00    -0.395 F  
HETATM   19  F   UNL     1     -11.515  14.757  71.369  1.00  0.00    -0.358 F  
HETATM   20  F   UNL     1     -13.281  14.657  70.108  1.00  0.00    -0.285 F  
HETATM   21  C   UNL     1     -11.202  10.161  69.524  1.00  0.00    -0.238 C  
HETATM   22  H   UNL     1     -12.526   9.391  70.875  1.00  0.00     0.000 HD 
HETATM   23  O   UNL     1     -10.794   9.057  69.168  1.00  0.00    -0.193 OA 
ENDBRANCH   6  11
ENDBRANCH   3   4
TORSDOF 2
ENDMDL
MODEL      185
REMARK 921   NORMALIZED FREE ENERGY PREDICTED BY IDOCK:   -3.72 KCAL/MOL
REMARK 922        TOTAL FREE ENERGY PREDICTED BY IDOCK:   -4.58 KCAL/MOL
REMARK 923 INTER-LIGAND FREE ENERGY PREDICTED BY IDOCK:   -4.36 KCAL/MOL
REMARK 924 INTRA-LIGAND FREE ENERGY PREDICTED BY IDOCK:   -0.22 KCAL/MOL
REMARK 927      BINDING AFFINITY PREDICTED BY RF-SCORE:    0.00 PKD
ROOT
HETATM    1  O5* UNL     1      -9.647   9.898  70.601  1.00  0.00    -0.349 OA 
HETATM    2  H5* UNL     1      -9.672   9.459  71.443  1.00  0.00     0.000 HD 
HETATM    3  C5* UNL     1     -10.961  10.140  70.098  1.00  0.00    -0.316 C  
ENDROOT
BRANCH   3   4
HETATM    4  C4* UNL     1     -10.921  10.847  68.744  1.00  0.00    -0.237 C  
HETATM    5  O4* UNL     1     -11.132  12.263  68.888  1.00  0.00    -0.224 OA 
HETATM    6  C1* UNL     1     -10.611  12.850  67.686  1.00  0.00    -0.223 C  
HETATM    7  C2* UNL     1      -9.374  12.031  67.325  1.00  0.00    -0.180 C  
HETATM    8  H3* UNL     1      -8.836   9.540  66.608  1.00  0.00     0.000 HD 
HETATM    9  O3* UNL     1      -9.664   9.634  67.064  1.00  0.00    -0.165 OA 
HETATM   10  C3* UNL     1      -9.590  10.696  68.011  1.00  0.00    -0.157 C  
BRANCH   6  11
HETATM   11  N   UNL     1     -10.366  14.283  67.844  1.00  0.00    -0.231 N  
HETATM   12  C   UNL     1      -9.089  14.816  67.801  1.00  0.00    -0.186 C  
HETATM   13  C   UNL     1      -7.452  16.666  68.065  1.00  0.00    -0.164 C  
HETATM   14  C   UNL     1      -8.825  16.104  68.069  1.00  0.00    -0.181 C  
HETATM   15  C   UNL     1      -9.951  16.979  68.413  1.00  0.00    -0.289 C  
HETATM   16  O   UNL     1      -9.823  18.152  68.741  1.00  0.00    -0.348 OA 
HETATM   17  N   UNL     1     -11.191  16.401  68.364  1.00  0.00    -0.361 N  
HETATM   18  F   UNL     1      -7.332  17.952  68.467  1.00  0.00    -0.226 F  
HETATM   19  F   UNL     1      -6.629  15.940  68.872  1.00  0.00    -0.110 F  
HETATM   20  F   UNL     1      -6.904  16.601  66.821  1.00  0.00    -0.199 F  
HETATM   21  C   UNL     1     -11.463  15.077  68.151  1.00  0.00    -0.339 C  
HETATM   22  H   UNL     1     -11.992  17.019  68.499  1.00  0.00     0.000 HD 
HETATM   23  O   UNL     1     -12.615  14.658  68.249  1.00  0.00     0.124 OA 
ENDBRANCH   6  11
ENDBRANCH   3   4
TORSDOF 2
ENDMDL
MODEL      186
REMARK 921   NORMALIZED FREE ENERGY PREDICTED BY IDOCK:   -3.72 KCAL/MOL
REMARK 922        TOTAL FREE ENERGY PREDICTED BY IDOCK:   -4.58 KCAL/MOL
REMARK 923 INTER-LIGAND FREE ENERGY PREDICTED BY IDOCK:   -3.99 KCAL/MOL
REMARK 924 INTRA-LIGAND FREE ENERGY PREDICTED BY IDOCK:   -0.59 KCAL/MOL
REMARK 927      BINDING AFFINITY PREDICTED BY RF-SCORE:    0.00 PKD
ROOT
HETATM    1  O5* UNL     1      -8.923   6.292  73.352  1.00  0.00    -0.126 OA 
HETATM    2  H5* UNL     1      -8.139   6.093  73.850  1.00  0.00     0.000 HD 
HETATM    3  C5* UNL     1      -8.755   7.467  72.559  1.00  0.00    -0.123 C  
ENDROOT
BRANCH   3   4
HETATM    4  C4* UNL     1     -10.016   7.787  71.758  1.00  0.00    -0.175 C  
HETATM    5  O4* UNL     1      -9.709   8.579  70.597  1.00  0.00    -0.166 OA 
HETATM    6  C1* UNL     1     -10.827   8.408  69.712  1.00  0.00    -0.183 C  
HETATM    7  C2* UNL     1     -11.267   6.956  69.874  1.00  0.00    -0.334 C  
HETATM    8  H3* UNL     1     -12.266   5.432  71.794  1.00  0.00     0.000 HD 
HETATM    9  O3* UNL     1     -11.812   6.201  72.117  1.00  0.00    -0.317 OA 
HETATM   10  C3* UNL     1     -10.746   6.551  71.240  1.00  0.00    -0.237 C  
BRANCH   6  11
HETATM   11  N   UNL     1     -10.499   8.795  68.341  1.00  0.00    -0.200 N  
HETATM   12  C   UNL     1      -9.605   8.070  67.571  1.00  0.00    -0.153 C  
HETATM   13  C   UNL     1      -8.201   7.719  65.552  1.00  0.00    -0.137 C  
HETATM   14  C   UNL     1      -9.191   8.473  66.360  1.00  0.00    -0.251 C  
HETATM   15  C   UNL     1      -9.723   9.735  65.835  1.00  0.00    -0.266 C  
HETATM   16  O   UNL     1      -9.367  10.233  64.775  1.00  0.00    -0.213 OA 
HETATM   17  N   UNL     1     -10.657  10.359  66.619  1.00  0.00    -0.211 N  
HETATM   18  F   UNL     1      -7.794   8.307  64.403  1.00  0.00    -0.104 F  
HETATM   19  F   UNL     1      -7.071   7.478  66.273  1.00  0.00    -0.063 F  
HETATM   20  F   UNL     1      -8.687   6.496  65.205  1.00  0.00    -0.133 F  
HETATM   21  C   UNL     1     -11.040   9.987  67.879  1.00  0.00    -0.195 C  
HETATM   22  H   UNL     1     -11.113  11.182  66.223  1.00  0.00     0.000 HD 
HETATM   23  O   UNL     1     -11.803  10.699  68.529  1.00  0.00    -0.406 OA 
ENDBRANCH   6  11
ENDBRANCH   3   4
TORSDOF 2
ENDMDL
MODEL      187
REMARK 921   NORMALIZED FREE ENERGY PREDICTED BY IDOCK:   -3.71 KCAL/MOL
REMARK 922        TOTAL FREE ENERGY PREDICTED BY IDOCK:   -4.58 KCAL/MOL
REMARK 923 INTER-LIGAND FREE ENERGY PREDICTED BY IDOCK:   -4.94 KCAL/MOL
REMARK 924 INTRA-LIGAND FREE ENERGY PREDICTED BY IDOCK:    0.36 KCAL/MOL
REMARK 927      BINDING AFFINITY PREDICTED BY RF-SCORE:    0.00 PKD
ROOT
HETATM    1  O5* UNL     1      -8.583  14.083  69.005  1.00  0.00    -0.358 OA 
HETATM    2  H5* UNL     1      -7.977  14.691  69.411  1.00  0.00     0.000 HD 
HETATM    3  C5* UNL     1      -8.513  14.146  67.581  1.00  0.00    -0.185 C  
ENDROOT
BRANCH   3   4
HETATM    4  C4* UNL     1      -9.489  13.168  66.929  1.00  0.00    -0.244 C  
HETATM    5  O4* UNL     1      -9.279  11.826  67.405  1.00  0.00    -0.169 OA 
HETATM    6  C1* UNL     1     -10.498  11.125  67.118  1.00  0.00    -0.231 C  
HETATM    7  C2* UNL     1     -11.622  12.130  67.352  1.00  0.00    -0.410 C  
HETATM    8  H3* UNL     1     -12.430  14.421  66.299  1.00  0.00     0.000 HD 
HETATM    9  O3* UNL     1     -11.517  14.224  66.126  1.00  0.00    -0.338 OA 
HETATM   10  C3* UNL     1     -10.956  13.485  67.207  1.00  0.00    -0.280 C  
BRANCH   6  11
HETATM   11  N   UNL     1     -10.613   9.893  67.897  1.00  0.00    -0.237 N  
HETATM   12  C   UNL     1     -10.444   8.645  67.322  1.00  0.00    -0.289 C  
HETATM   13  C   UNL     1     -10.529   6.163  67.355  1.00  0.00    -0.247 C  
HETATM   14  C   UNL     1     -10.668   7.499  67.983  1.00  0.00    -0.170 C  
HETATM   15  C   UNL     1     -11.103   7.586  69.382  1.00  0.00     0.004 C  
HETATM   16  O   UNL     1     -11.401   6.612  70.061  1.00  0.00    -0.336 OA 
HETATM   17  N   UNL     1     -11.177   8.849  69.905  1.00  0.00    -0.425 N  
HETATM   18  F   UNL     1     -10.900   5.104  68.112  1.00  0.00    -0.152 F  
HETATM   19  F   UNL     1     -11.266   6.085  66.213  1.00  0.00    -0.268 F  
HETATM   20  F   UNL     1      -9.240   5.933  66.982  1.00  0.00    -0.117 F  
HETATM   21  C   UNL     1     -11.009  10.023  69.222  1.00  0.00    -0.228 C  
HETATM   22  H   UNL     1     -11.377   8.923  70.903  1.00  0.00     0.000 HD 
HETATM   23  O   UNL     1     -11.219  11.099  69.779  1.00  0.00    -0.259 OA 
ENDBRANCH   6  11
ENDBRANCH   3   4
TORSDOF 2
ENDMDL
MODEL      188
REMARK 921   NORMALIZED FREE ENERGY PREDICTED BY IDOCK:   -3.70 KCAL/MOL
REMARK 922        TOTAL FREE ENERGY PREDICTED BY IDOCK:   -4.56 KCAL/MOL
REMARK 923 INTER-LIGAND FREE ENERGY PREDICTED BY IDOCK:   -3.99 KCAL/MOL
REMARK 924 INTRA-LIGAND FREE ENERGY PREDICTED BY IDOCK:   -0.58 KCAL/MOL
REMARK 927      BINDING AFFINITY PREDICTED BY RF-SCORE:    0.00 PKD
ROOT
HETATM    1  O5* UNL     1      -8.870  16.077  67.514  1.00  0.00    -0.185 OA 
HETATM    2  H5* UNL     1      -8.300  16.705  67.942  1.00  0.00     0.000 HD 
HETATM    3  C5* UNL     1      -8.304  14.767  67.520  1.00  0.00    -0.183 C  
ENDROOT
BRANCH   3   4
HETATM    4  C4* UNL     1      -9.222  13.758  66.832  1.00  0.00    -0.255 C  
HETATM    5  O4* UNL     1      -8.898  12.410  67.218  1.00  0.00    -0.176 OA 
HETATM    6  C1* UNL     1     -10.069  11.635  66.918  1.00  0.00    -0.211 C  
HETATM    7  C2* UNL     1     -11.258  12.535  67.243  1.00  0.00    -0.347 C  
HETATM    8  H3* UNL     1     -12.267  14.816  66.356  1.00  0.00     0.000 HD 
HETATM    9  O3* UNL     1     -11.348  14.701  66.148  1.00  0.00    -0.344 OA 
HETATM   10  C3* UNL     1     -10.700  13.943  67.167  1.00  0.00    -0.282 C  
BRANCH   6  11
HETATM   11  N   UNL     1     -10.067  10.353  67.622  1.00  0.00    -0.180 N  
HETATM   12  C   UNL     1      -9.775  10.260  68.972  1.00  0.00    -0.205 C  
HETATM   13  C   UNL     1      -9.286   8.987  71.048  1.00  0.00    -0.264 C  
HETATM   14  C   UNL     1      -9.641   9.088  69.611  1.00  0.00    -0.175 C  
HETATM   15  C   UNL     1      -9.824   7.857  68.835  1.00  0.00    -0.173 C  
HETATM   16  O   UNL     1      -9.661   6.734  69.296  1.00  0.00    -0.150 OA 
HETATM   17  N   UNL     1     -10.184   8.026  67.525  1.00  0.00    -0.223 N  
HETATM   18  F   UNL     1      -9.073   7.738  71.525  1.00  0.00    -0.131 F  
HETATM   19  F   UNL     1      -8.151   9.691  71.317  1.00  0.00    -0.070 F  
HETATM   20  F   UNL     1     -10.257   9.535  71.828  1.00  0.00    -0.363 F  
HETATM   21  C   UNL     1     -10.263   9.215  66.851  1.00  0.00    -0.266 C  
HETATM   22  H   UNL     1     -10.416   7.183  66.999  1.00  0.00     0.000 HD 
HETATM   23  O   UNL     1     -10.482   9.227  65.641  1.00  0.00     0.199 OA 
ENDBRANCH   6  11
ENDBRANCH   3   4
TORSDOF 2
ENDMDL
MODEL      189
REMARK 921   NORMALIZED FREE ENERGY PREDICTED BY IDOCK:   -3.68 KCAL/MOL
REMARK 922        TOTAL FREE ENERGY PREDICTED BY IDOCK:   -4.54 KCAL/MOL
REMARK 923 INTER-LIGAND FREE ENERGY PREDICTED BY IDOCK:   -4.68 KCAL/MOL
REMARK 924 INTRA-LIGAND FREE ENERGY PREDICTED BY IDOCK:    0.14 KCAL/MOL
REMARK 927      BINDING AFFINITY PREDICTED BY RF-SCORE:    0.00 PKD
ROOT
HETATM    1  O5* UNL     1      -8.579   7.787  64.425  1.00  0.00    -0.376 OA 
HETATM    2  H5* UNL     1      -8.428   8.477  63.790  1.00  0.00     0.000 HD 
HETATM    3  C5* UNL     1      -7.932   6.574  64.045  1.00  0.00    -0.081 C  
ENDROOT
BRANCH   3   4
HETATM    4  C4* UNL     1      -8.175   5.465  65.068  1.00  0.00    -0.137 C  
HETATM    5  O4* UNL     1      -8.430   6.009  66.375  1.00  0.00    -0.112 OA 
HETATM    6  C1* UNL     1      -9.094   4.962  67.101  1.00  0.00    -0.119 C  
HETATM    7  C2* UNL     1      -9.997   4.263  66.088  1.00  0.00    -0.231 C  
HETATM    8  H3* UNL     1      -9.698   2.844  63.873  1.00  0.00     0.000 HD 
HETATM    9  O3* UNL     1      -8.951   3.394  64.076  1.00  0.00    -0.096 OA 
HETATM   10  C3* UNL     1      -9.376   4.580  64.742  1.00  0.00    -0.138 C  
BRANCH   6  11
HETATM   11  N   UNL     1      -9.788   5.475  68.282  1.00  0.00    -0.136 N  
HETATM   12  C   UNL     1      -9.581   4.939  69.541  1.00  0.00    -0.170 C  
HETATM   13  C   UNL     1     -10.103   4.701  71.958  1.00  0.00    -0.197 C  
HETATM   14  C   UNL     1     -10.295   5.305  70.617  1.00  0.00    -0.324 C  
HETATM   15  C   UNL     1     -11.335   6.324  70.438  1.00  0.00    -0.372 C  
HETATM   16  O   UNL     1     -12.091   6.685  71.330  1.00  0.00    -0.348 OA 
HETATM   17  N   UNL     1     -11.432   6.861  69.182  1.00  0.00    -0.560 N  
HETATM   18  F   UNL     1     -10.976   5.087  72.918  1.00  0.00    -0.251 F  
HETATM   19  F   UNL     1     -10.190   3.343  71.895  1.00  0.00    -0.240 F  
HETATM   20  F   UNL     1      -8.859   4.972  72.439  1.00  0.00    -0.123 F  
HETATM   21  C   UNL     1     -10.750   6.453  68.068  1.00  0.00    -0.291 C  
HETATM   22  H   UNL     1     -12.078   7.643  69.065  1.00  0.00     0.000 HD 
HETATM   23  O   UNL     1     -11.013   6.937  66.969  1.00  0.00    -0.379 OA 
ENDBRANCH   6  11
ENDBRANCH   3   4
TORSDOF 2
ENDMDL
MODEL      190
REMARK 921   NORMALIZED FREE ENERGY PREDICTED BY IDOCK:   -3.66 KCAL/MOL
REMARK 922        TOTAL FREE ENERGY PREDICTED BY IDOCK:   -4.52 KCAL/MOL
REMARK 923 INTER-LIGAND FREE ENERGY PREDICTED BY IDOCK:   -5.08 KCAL/MOL
REMARK 924 INTRA-LIGAND FREE ENERGY PREDICTED BY IDOCK:    0.56 KCAL/MOL
REMARK 927      BINDING AFFINITY PREDICTED BY RF-SCORE:    0.00 PKD
ROOT
HETATM    1  O5* UNL     1      -7.938  11.416  66.027  1.00  0.00    -0.352 OA 
HETATM    2  H5* UNL     1      -7.229  11.867  65.584  1.00  0.00     0.000 HD 
HETATM    3  C5* UNL     1      -9.196  11.683  65.408  1.00  0.00    -0.065 C  
ENDROOT
BRANCH   3   4
HETATM    4  C4* UNL     1     -10.336  10.958  66.121  1.00  0.00    -0.248 C  
HETATM    5  O4* UNL     1      -9.836   9.925  66.988  1.00  0.00    -0.174 OA 
HETATM    6  C1* UNL     1     -10.896   9.663  67.921  1.00  0.00    -0.215 C  
HETATM    7  C2* UNL     1     -11.542  11.016  68.206  1.00  0.00    -0.354 C  
HETATM    8  H3* UNL     1     -12.885  12.852  66.852  1.00  0.00     0.000 HD 
HETATM    9  O3* UNL     1     -12.355  12.286  66.303  1.00  0.00    -0.556 OA 
HETATM   10  C3* UNL     1     -11.187  11.868  67.003  1.00  0.00    -0.323 C  
BRANCH   6  11
HETATM   11  N   UNL     1     -10.414   8.957  69.107  1.00  0.00    -0.227 N  
HETATM   12  C   UNL     1     -11.255   8.634  70.158  1.00  0.00    -0.146 C  
HETATM   13  C   UNL     1     -11.710   7.796  72.451  1.00  0.00    -0.341 C  
HETATM   14  C   UNL     1     -10.815   8.102  71.308  1.00  0.00    -0.278 C  
HETATM   15  C   UNL     1      -9.377   7.848  71.443  1.00  0.00    -0.143 C  
HETATM   16  O   UNL     1      -8.855   7.430  72.469  1.00  0.00    -0.123 OA 
HETATM   17  N   UNL     1      -8.617   8.124  70.338  1.00  0.00    -0.129 N  
HETATM   18  F   UNL     1     -11.107   7.371  73.586  1.00  0.00    -0.388 F  
HETATM   19  F   UNL     1     -12.442   8.890  72.801  1.00  0.00    -0.426 F  
HETATM   20  F   UNL     1     -12.615   6.835  72.116  1.00  0.00    -0.336 F  
HETATM   21  C   UNL     1      -9.048   8.721  69.184  1.00  0.00    -0.141 C  
HETATM   22  H   UNL     1      -7.633   7.857  70.378  1.00  0.00     0.000 HD 
HETATM   23  O   UNL     1      -8.242   9.024  68.306  1.00  0.00    -0.114 OA 
ENDBRANCH   6  11
ENDBRANCH   3   4
TORSDOF 2
ENDMDL
MODEL      191
REMARK 921   NORMALIZED FREE ENERGY PREDICTED BY IDOCK:   -3.63 KCAL/MOL
REMARK 922        TOTAL FREE ENERGY PREDICTED BY IDOCK:   -4.49 KCAL/MOL
REMARK 923 INTER-LIGAND FREE ENERGY PREDICTED BY IDOCK:   -4.27 KCAL/MOL
REMARK 924 INTRA-LIGAND FREE ENERGY PREDICTED BY IDOCK:   -0.22 KCAL/MOL
REMARK 927      BINDING AFFINITY PREDICTED BY RF-SCORE:    0.00 PKD
ROOT
HETATM    1  O5* UNL     1     -11.618  13.074  70.083  1.00  0.00    -0.512 OA 
HETATM    2  H5* UNL     1     -12.134  13.058  70.880  1.00  0.00     0.000 HD 
HETATM    3  C5* UNL     1     -12.214  13.909  69.090  1.00  0.00    -0.267 C  
ENDROOT
BRANCH   3   4
HETATM    4  C4* UNL     1     -11.384  13.935  67.808  1.00  0.00    -0.308 C  
HETATM    5  O4* UNL     1     -10.141  13.230  67.977  1.00  0.00    -0.222 OA 
HETATM    6  C1* UNL     1      -9.698  12.913  66.648  1.00  0.00    -0.254 C  
HETATM    7  C2* UNL     1     -10.961  12.587  65.856  1.00  0.00    -0.314 C  
HETATM    8  H3* UNL     1     -13.142  13.862  65.066  1.00  0.00     0.000 HD 
HETATM    9  O3* UNL     1     -12.712  14.269  65.808  1.00  0.00    -0.464 OA 
HETATM   10  C3* UNL     1     -12.076  13.281  66.614  1.00  0.00    -0.361 C  
BRANCH   6  11
HETATM   11  N   UNL     1      -8.690  11.853  66.650  1.00  0.00    -0.195 N  
HETATM   12  C   UNL     1      -8.950  10.597  66.130  1.00  0.00    -0.168 C  
HETATM   13  C   UNL     1      -8.385   8.214  65.715  1.00  0.00    -0.136 C  
HETATM   14  C   UNL     1      -8.090   9.572  66.234  1.00  0.00    -0.111 C  
HETATM   15  C   UNL     1      -6.817   9.809  66.922  1.00  0.00    -0.083 C  
HETATM   16  O   UNL     1      -5.987   8.935  67.134  1.00  0.00    -0.054 OA 
HETATM   17  N   UNL     1      -6.598  11.094  67.344  1.00  0.00    -0.070 N  
HETATM   18  F   UNL     1      -7.471   7.255  65.995  1.00  0.00    -0.072 F  
HETATM   19  F   UNL     1      -9.572   7.756  66.203  1.00  0.00    -0.242 F  
HETATM   20  F   UNL     1      -8.521   8.229  64.361  1.00  0.00    -0.165 F  
HETATM   21  C   UNL     1      -7.493  12.128  67.296  1.00  0.00    -0.152 C  
HETATM   22  H   UNL     1      -5.677  11.300  67.731  1.00  0.00     0.000 HD 
HETATM   23  O   UNL     1      -7.219  13.208  67.817  1.00  0.00    -0.115 OA 
ENDBRANCH   6  11
ENDBRANCH   3   4
TORSDOF 2
ENDMDL
MODEL      192
REMARK 921   NORMALIZED FREE ENERGY PREDICTED BY IDOCK:   -3.62 KCAL/MOL
REMARK 922        TOTAL FREE ENERGY PREDICTED BY IDOCK:   -4.47 KCAL/MOL
REMARK 923 INTER-LIGAND FREE ENERGY PREDICTED BY IDOCK:   -3.95 KCAL/MOL
REMARK 924 INTRA-LIGAND FREE ENERGY PREDICTED BY IDOCK:   -0.52 KCAL/MOL
REMARK 927      BINDING AFFINITY PREDICTED BY RF-SCORE:    0.00 PKD
ROOT
HETATM    1  O5* UNL     1     -13.739   9.495  72.677  1.00  0.00    -0.706 OA 
HETATM    2  H5* UNL     1     -14.524   9.078  73.011  1.00  0.00     0.000 HD 
HETATM    3  C5* UNL     1     -12.745   8.534  72.326  1.00  0.00    -0.367 C  
ENDROOT
BRANCH   3   4
HETATM    4  C4* UNL     1     -11.482   9.205  71.789  1.00  0.00    -0.381 C  
HETATM    5  O4* UNL     1     -10.435   8.244  71.564  1.00  0.00    -0.207 OA 
HETATM    6  C1* UNL     1      -9.527   8.876  70.649  1.00  0.00    -0.214 C  
HETATM    7  C2* UNL     1     -10.397   9.685  69.691  1.00  0.00    -0.245 C  
HETATM    8  H3* UNL     1     -12.041  11.755  69.838  1.00  0.00     0.000 HD 
HETATM    9  O3* UNL     1     -11.914  11.310  70.668  1.00  0.00    -0.345 OA 
HETATM   10  C3* UNL     1     -11.686   9.920  70.455  1.00  0.00    -0.295 C  
BRANCH   6  11
HETATM   11  N   UNL     1      -8.647   7.905  69.999  1.00  0.00    -0.134 N  
HETATM   12  C   UNL     1      -9.099   7.068  68.993  1.00  0.00    -0.135 C  
HETATM   13  C   UNL     1      -8.849   5.160  67.423  1.00  0.00    -0.105 C  
HETATM   14  C   UNL     1      -8.351   6.085  68.470  1.00  0.00    -0.113 C  
HETATM   15  C   UNL     1      -6.991   5.905  68.990  1.00  0.00    -0.068 C  
HETATM   16  O   UNL     1      -6.244   5.002  68.637  1.00  0.00    -0.029 OA 
HETATM   17  N   UNL     1      -6.587   6.815  69.930  1.00  0.00    -0.047 N  
HETATM   18  F   UNL     1      -8.020   4.147  67.077  1.00  0.00    -0.093 F  
HETATM   19  F   UNL     1     -10.017   4.576  67.808  1.00  0.00    -0.205 F  
HETATM   20  F   UNL     1      -9.131   5.834  66.274  1.00  0.00    -0.131 F  
HETATM   21  C   UNL     1      -7.363   7.782  70.511  1.00  0.00    -0.072 C  
HETATM   22  H   UNL     1      -5.612   6.769  70.226  1.00  0.00     0.000 HD 
HETATM   23  O   UNL     1      -6.916   8.463  71.433  1.00  0.00    -0.058 OA 
ENDBRANCH   6  11
ENDBRANCH   3   4
TORSDOF 2
ENDMDL
MODEL      193
REMARK 921   NORMALIZED FREE ENERGY PREDICTED BY IDOCK:   -3.58 KCAL/MOL
REMARK 922        TOTAL FREE ENERGY PREDICTED BY IDOCK:   -4.43 KCAL/MOL
REMARK 923 INTER-LIGAND FREE ENERGY PREDICTED BY IDOCK:   -4.15 KCAL/MOL
REMARK 924 INTRA-LIGAND FREE ENERGY PREDICTED BY IDOCK:   -0.28 KCAL/MOL
REMARK 927      BINDING AFFINITY PREDICTED BY RF-SCORE:    0.00 PKD
ROOT
HETATM    1  O5* UNL     1     -11.116  11.347  62.961  1.00  0.00    -0.803 OA 
HETATM    2  H5* UNL     1     -10.879  10.999  62.110  1.00  0.00     0.000 HD 
HETATM    3  C5* UNL     1     -10.262  12.424  63.343  1.00  0.00    -0.213 C  
ENDROOT
BRANCH   3   4
HETATM    4  C4* UNL     1     -10.644  12.984  64.712  1.00  0.00    -0.362 C  
HETATM    5  O4* UNL     1     -10.191  12.124  65.772  1.00  0.00    -0.240 OA 
HETATM    6  C1* UNL     1     -10.170  12.948  66.949  1.00  0.00    -0.242 C  
HETATM    7  C2* UNL     1      -9.713  14.327  66.482  1.00  0.00    -0.304 C  
HETATM    8  H3* UNL     1     -10.617  16.238  64.889  1.00  0.00     0.000 HD 
HETATM    9  O3* UNL     1     -10.990  15.383  64.707  1.00  0.00    -0.420 OA 
HETATM   10  C3* UNL     1     -10.045  14.358  65.003  1.00  0.00    -0.286 C  
BRANCH   6  11
HETATM   11  N   UNL     1      -9.350  12.361  68.008  1.00  0.00    -0.198 N  
HETATM   12  C   UNL     1      -8.093  12.851  68.315  1.00  0.00    -0.151 C  
HETATM   13  C   UNL     1      -5.907  12.755  69.491  1.00  0.00    -0.105 C  
HETATM   14  C   UNL     1      -7.271  12.255  69.192  1.00  0.00     0.041 C  
HETATM   15  C   UNL     1      -7.742  11.033  69.855  1.00  0.00     0.483 C  
HETATM   16  O   UNL     1      -7.054  10.369  70.620  1.00  0.00    -0.300 OA 
HETATM   17  N   UNL     1      -9.022  10.650  69.557  1.00  0.00    -0.405 N  
HETATM   18  F   UNL     1      -5.153  11.984  70.309  1.00  0.00    -0.070 F  
HETATM   19  F   UNL     1      -5.185  12.907  68.346  1.00  0.00    -0.056 F  
HETATM   20  F   UNL     1      -5.956  13.988  70.065  1.00  0.00    -0.106 F  
HETATM   21  C   UNL     1      -9.843  11.217  68.621  1.00  0.00    -0.202 C  
HETATM   22  H   UNL     1      -9.401   9.864  70.086  1.00  0.00     0.000 HD 
HETATM   23  O   UNL     1     -10.931  10.706  68.361  1.00  0.00    -0.214 OA 
ENDBRANCH   6  11
ENDBRANCH   3   4
TORSDOF 2
ENDMDL
MODEL      194
REMARK 921   NORMALIZED FREE ENERGY PREDICTED BY IDOCK:   -3.55 KCAL/MOL
REMARK 922        TOTAL FREE ENERGY PREDICTED BY IDOCK:   -4.40 KCAL/MOL
REMARK 923 INTER-LIGAND FREE ENERGY PREDICTED BY IDOCK:   -4.54 KCAL/MOL
REMARK 924 INTRA-LIGAND FREE ENERGY PREDICTED BY IDOCK:    0.14 KCAL/MOL
REMARK 927      BINDING AFFINITY PREDICTED BY RF-SCORE:    0.00 PKD
ROOT
HETATM    1  O5* UNL     1     -13.636  11.982  72.346  1.00  0.00    -0.587 OA 
HETATM    2  H5* UNL     1     -13.486  12.911  72.475  1.00  0.00     0.000 HD 
HETATM    3  C5* UNL     1     -12.760  11.442  71.357  1.00  0.00    -0.384 C  
ENDROOT
BRANCH   3   4
HETATM    4  C4* UNL     1     -13.001   9.948  71.151  1.00  0.00    -0.369 C  
HETATM    5  O4* UNL     1     -11.975   9.362  70.331  1.00  0.00    -0.175 OA 
HETATM    6  C1* UNL     1     -12.029   7.952  70.601  1.00  0.00    -0.048 C  
HETATM    7  C2* UNL     1     -12.348   7.826  72.088  1.00  0.00    -0.303 C  
HETATM    8  H3* UNL     1     -14.354   8.439  73.703  1.00  0.00     0.000 HD 
HETATM    9  O3* UNL     1     -14.348   8.941  72.896  1.00  0.00    -0.548 OA 
HETATM   10  C3* UNL     1     -13.011   9.142  72.447  1.00  0.00    -0.398 C  
BRANCH   6  11
HETATM   11  N   UNL     1     -10.804   7.272  70.182  1.00  0.00    -0.251 N  
HETATM   12  C   UNL     1     -10.239   6.255  70.932  1.00  0.00    -0.193 C  
HETATM   13  C   UNL     1      -8.426   4.643  71.466  1.00  0.00    -0.111 C  
HETATM   14  C   UNL     1      -9.052   5.703  70.638  1.00  0.00    -0.168 C  
HETATM   15  C   UNL     1      -8.335   6.202  69.460  1.00  0.00    -0.120 C  
HETATM   16  O   UNL     1      -7.218   5.821  69.134  1.00  0.00    -0.070 OA 
HETATM   17  N   UNL     1      -8.987   7.155  68.724  1.00  0.00    -0.129 N  
HETATM   18  F   UNL     1      -7.176   4.266  71.109  1.00  0.00    -0.036 F  
HETATM   19  F   UNL     1      -8.345   5.031  72.769  1.00  0.00    -0.107 F  
HETATM   20  F   UNL     1      -9.183   3.512  71.462  1.00  0.00    -0.139 F  
HETATM   21  C   UNL     1     -10.168   7.765  69.050  1.00  0.00    -0.208 C  
HETATM   22  H   UNL     1      -8.550   7.438  67.847  1.00  0.00     0.000 HD 
HETATM   23  O   UNL     1     -10.594   8.694  68.367  1.00  0.00    -0.197 OA 
ENDBRANCH   6  11
ENDBRANCH   3   4
TORSDOF 2
ENDMDL
MODEL      195
REMARK 921   NORMALIZED FREE ENERGY PREDICTED BY IDOCK:   -3.54 KCAL/MOL
REMARK 922        TOTAL FREE ENERGY PREDICTED BY IDOCK:   -4.38 KCAL/MOL
REMARK 923 INTER-LIGAND FREE ENERGY PREDICTED BY IDOCK:   -4.16 KCAL/MOL
REMARK 924 INTRA-LIGAND FREE ENERGY PREDICTED BY IDOCK:   -0.22 KCAL/MOL
REMARK 927      BINDING AFFINITY PREDICTED BY RF-SCORE:    0.00 PKD
ROOT
HETATM    1  O5* UNL     1     -13.325  11.809  72.295  1.00  0.00    -0.613 OA 
HETATM    2  H5* UNL     1     -13.520  12.714  72.505  1.00  0.00     0.000 HD 
HETATM    3  C5* UNL     1     -12.604  11.700  71.068  1.00  0.00    -0.331 C  
ENDROOT
BRANCH   3   4
HETATM    4  C4* UNL     1     -12.289  10.244  70.730  1.00  0.00    -0.350 C  
HETATM    5  O4* UNL     1     -11.480  10.146  69.545  1.00  0.00    -0.229 OA 
HETATM    6  C1* UNL     1     -10.871   8.848  69.604  1.00  0.00    -0.178 C  
HETATM    7  C2* UNL     1     -10.561   8.601  71.078  1.00  0.00    -0.278 C  
HETATM    8  H3* UNL     1     -11.926   8.310  73.328  1.00  0.00     0.000 HD 
HETATM    9  O3* UNL     1     -12.408   8.765  72.647  1.00  0.00    -0.346 OA 
HETATM   10  C3* UNL     1     -11.516   9.513  71.825  1.00  0.00    -0.279 C  
BRANCH   6  11
HETATM   11  N   UNL     1      -9.714   8.749  68.715  1.00  0.00    -0.162 N  
HETATM   12  C   UNL     1      -9.272   9.827  67.968  1.00  0.00    -0.124 C  
HETATM   13  C   UNL     1      -7.851  10.875  66.221  1.00  0.00    -0.158 C  
HETATM   14  C   UNL     1      -8.296   9.730  67.052  1.00  0.00    -0.117 C  
HETATM   15  C   UNL     1      -7.671   8.419  66.850  1.00  0.00    -0.092 C  
HETATM   16  O   UNL     1      -6.820   8.197  65.998  1.00  0.00    -0.056 OA 
HETATM   17  N   UNL     1      -8.107   7.417  67.675  1.00  0.00    -0.113 N  
HETATM   18  F   UNL     1      -6.938  10.598  65.261  1.00  0.00    -0.136 F  
HETATM   19  F   UNL     1      -8.908  11.449  65.581  1.00  0.00    -0.201 F  
HETATM   20  F   UNL     1      -7.308  11.855  66.994  1.00  0.00    -0.126 F  
HETATM   21  C   UNL     1      -9.142   7.493  68.568  1.00  0.00    -0.134 C  
HETATM   22  H   UNL     1      -7.612   6.527  67.619  1.00  0.00     0.000 HD 
HETATM   23  O   UNL     1      -9.516   6.487  69.168  1.00  0.00    -0.136 OA 
ENDBRANCH   6  11
ENDBRANCH   3   4
TORSDOF 2
ENDMDL
MODEL      196
REMARK 921   NORMALIZED FREE ENERGY PREDICTED BY IDOCK:   -3.52 KCAL/MOL
REMARK 922        TOTAL FREE ENERGY PREDICTED BY IDOCK:   -4.37 KCAL/MOL
REMARK 923 INTER-LIGAND FREE ENERGY PREDICTED BY IDOCK:   -4.51 KCAL/MOL
REMARK 924 INTRA-LIGAND FREE ENERGY PREDICTED BY IDOCK:    0.15 KCAL/MOL
REMARK 927      BINDING AFFINITY PREDICTED BY RF-SCORE:    0.00 PKD
ROOT
HETATM    1  O5* UNL     1     -13.202   9.218  72.609  1.00  0.00    -0.517 OA 
HETATM    2  H5* UNL     1     -14.078   9.250  72.974  1.00  0.00     0.000 HD 
HETATM    3  C5* UNL     1     -12.989   8.018  71.865  1.00  0.00    -0.312 C  
ENDROOT
BRANCH   3   4
HETATM    4  C4* UNL     1     -11.579   7.966  71.278  1.00  0.00    -0.276 C  
HETATM    5  O4* UNL     1     -11.591   8.246  69.867  1.00  0.00     0.063 OA 
HETATM    6  C1* UNL     1     -10.248   8.636  69.544  1.00  0.00    -0.209 C  
HETATM    7  C2* UNL     1      -9.748   9.438  70.742  1.00  0.00    -0.332 C  
HETATM    8  H3* UNL     1      -9.241   8.993  73.302  1.00  0.00     0.000 HD 
HETATM    9  O3* UNL     1      -9.839   8.363  72.918  1.00  0.00    -0.261 OA 
HETATM   10  C3* UNL     1     -10.618   8.979  71.896  1.00  0.00    -0.317 C  
BRANCH   6  11
HETATM   11  N   UNL     1     -10.180   9.345  68.267  1.00  0.00    -0.188 N  
HETATM   12  C   UNL     1      -9.229   9.037  67.309  1.00  0.00    -0.134 C  
HETATM   13  C   UNL     1      -8.017   9.451  65.180  1.00  0.00    -0.116 C  
HETATM   14  C   UNL     1      -9.064   9.754  66.187  1.00  0.00    -0.198 C  
HETATM   15  C   UNL     1      -9.943  10.908  65.973  1.00  0.00    -0.240 C  
HETATM   16  O   UNL     1      -9.840  11.672  65.021  1.00  0.00    -0.247 OA 
HETATM   17  N   UNL     1     -10.907  11.107  66.925  1.00  0.00    -0.275 N  
HETATM   18  F   UNL     1      -7.897  10.330  64.159  1.00  0.00    -0.148 F  
HETATM   19  F   UNL     1      -6.789   9.383  65.764  1.00  0.00    -0.078 F  
HETATM   20  F   UNL     1      -8.226   8.231  64.614  1.00  0.00    -0.140 F  
HETATM   21  C   UNL     1     -11.043  10.419  68.100  1.00  0.00    -0.285 C  
HETATM   22  H   UNL     1     -11.591  11.841  66.740  1.00  0.00     0.000 HD 
HETATM   23  O   UNL     1     -11.879  10.771  68.930  1.00  0.00    -0.304 OA 
ENDBRANCH   6  11
ENDBRANCH   3   4
TORSDOF 2
ENDMDL
MODEL      197
REMARK 921   NORMALIZED FREE ENERGY PREDICTED BY IDOCK:   -3.50 KCAL/MOL
REMARK 922        TOTAL FREE ENERGY PREDICTED BY IDOCK:   -4.34 KCAL/MOL
REMARK 923 INTER-LIGAND FREE ENERGY PREDICTED BY IDOCK:   -5.17 KCAL/MOL
REMARK 924 INTRA-LIGAND FREE ENERGY PREDICTED BY IDOCK:    0.82 KCAL/MOL
REMARK 927      BINDING AFFINITY PREDICTED BY RF-SCORE:    0.00 PKD
ROOT
HETATM    1  O5* UNL     1     -10.561  10.678  62.424  1.00  0.00    -0.541 OA 
HETATM    2  H5* UNL     1     -10.090  10.308  61.687  1.00  0.00     0.000 HD 
HETATM    3  C5* UNL     1      -9.698  11.441  63.266  1.00  0.00    -0.394 C  
ENDROOT
BRANCH   3   4
HETATM    4  C4* UNL     1     -10.456  12.038  64.451  1.00  0.00    -0.312 C  
HETATM    5  O4* UNL     1      -9.588  12.835  65.277  1.00  0.00    -0.069 OA 
HETATM    6  C1* UNL     1     -10.461  13.694  66.028  1.00  0.00    -0.300 C  
HETATM    7  C2* UNL     1     -11.598  14.064  65.080  1.00  0.00    -0.344 C  
HETATM    8  H3* UNL     1     -13.556  12.811  63.812  1.00  0.00     0.000 HD 
HETATM    9  O3* UNL     1     -12.839  12.241  64.064  1.00  0.00    -0.696 OA 
HETATM   10  C3* UNL     1     -11.607  12.955  64.046  1.00  0.00    -0.426 C  
BRANCH   6  11
HETATM   11  N   UNL     1      -9.744  14.836  66.594  1.00  0.00    -0.255 N  
HETATM   12  C   UNL     1      -8.624  14.675  67.391  1.00  0.00    -0.199 C  
HETATM   13  C   UNL     1      -6.851  15.517  68.913  1.00  0.00    -0.123 C  
HETATM   14  C   UNL     1      -8.025  15.695  68.024  1.00  0.00    -0.137 C  
HETATM   15  C   UNL     1      -8.587  17.039  67.848  1.00  0.00    -0.207 C  
HETATM   16  O   UNL     1      -8.167  18.031  68.429  1.00  0.00    -0.283 OA 
HETATM   17  N   UNL     1      -9.649  17.132  66.988  1.00  0.00    -0.252 N  
HETATM   18  F   UNL     1      -6.428  16.621  69.573  1.00  0.00    -0.187 F  
HETATM   19  F   UNL     1      -7.104  14.581  69.869  1.00  0.00    -0.157 F  
HETATM   20  F   UNL     1      -5.778  15.054  68.214  1.00  0.00    -0.090 F  
HETATM   21  C   UNL     1     -10.302  16.091  66.387  1.00  0.00    -0.305 C  
HETATM   22  H   UNL     1      -9.986  18.071  66.775  1.00  0.00     0.000 HD 
HETATM   23  O   UNL     1     -11.319  16.296  65.728  1.00  0.00     0.110 OA 
ENDBRANCH   6  11
ENDBRANCH   3   4
TORSDOF 2
ENDMDL
MODEL      198
REMARK 921   NORMALIZED FREE ENERGY PREDICTED BY IDOCK:   -3.50 KCAL/MOL
REMARK 922        TOTAL FREE ENERGY PREDICTED BY IDOCK:   -4.34 KCAL/MOL
REMARK 923 INTER-LIGAND FREE ENERGY PREDICTED BY IDOCK:   -4.71 KCAL/MOL
REMARK 924 INTRA-LIGAND FREE ENERGY PREDICTED BY IDOCK:    0.36 KCAL/MOL
REMARK 927      BINDING AFFINITY PREDICTED BY RF-SCORE:    0.00 PKD
ROOT
HETATM    1  O5* UNL     1      -5.526  13.016  70.634  1.00  0.00    -0.139 OA 
HETATM    2  H5* UNL     1      -5.002  13.704  71.027  1.00  0.00     0.000 HD 
HETATM    3  C5* UNL     1      -6.642  13.551  69.923  1.00  0.00     0.060 C  
ENDROOT
BRANCH   3   4
HETATM    4  C4* UNL     1      -7.485  12.444  69.291  1.00  0.00     0.277 C  
HETATM    5  O4* UNL     1      -8.790  12.926  68.927  1.00  0.00     0.118 OA 
HETATM    6  C1* UNL     1      -9.284  11.994  67.952  1.00  0.00    -0.190 C  
HETATM    7  C2* UNL     1      -8.073  11.586  67.117  1.00  0.00    -0.159 C  
HETATM    8  H3* UNL     1      -5.785  10.313  67.506  1.00  0.00     0.000 HD 
HETATM    9  O3* UNL     1      -6.160  10.672  68.301  1.00  0.00    -0.047 OA 
HETATM   10  C3* UNL     1      -6.882  11.866  68.012  1.00  0.00    -0.072 C  
BRANCH   6  11
HETATM   11  N   UNL     1     -10.395  12.550  67.182  1.00  0.00    -0.220 N  
HETATM   12  C   UNL     1     -10.592  12.231  65.849  1.00  0.00    -0.256 C  
HETATM   13  C   UNL     1     -11.709  12.512  63.648  1.00  0.00    -0.515 C  
HETATM   14  C   UNL     1     -11.525  12.823  65.087  1.00  0.00    -0.356 C  
HETATM   15  C   UNL     1     -12.372  13.847  65.708  1.00  0.00    -0.486 C  
HETATM   16  O   UNL     1     -13.207  14.499  65.094  1.00  0.00    -0.499 OA 
HETATM   17  N   UNL     1     -12.169  14.057  67.045  1.00  0.00    -0.520 N  
HETATM   18  F   UNL     1     -12.610  13.272  62.983  1.00  0.00    -0.478 F  
HETATM   19  F   UNL     1     -10.535  12.641  62.970  1.00  0.00    -0.302 F  
HETATM   20  F   UNL     1     -12.097  11.219  63.476  1.00  0.00    -0.390 F  
HETATM   21  C   UNL     1     -11.182  13.502  67.815  1.00  0.00    -0.282 C  
HETATM   22  H   UNL     1     -12.817  14.690  67.515  1.00  0.00     0.000 HD 
HETATM   23  O   UNL     1     -11.030  13.863  68.981  1.00  0.00    -0.250 OA 
ENDBRANCH   6  11
ENDBRANCH   3   4
TORSDOF 2
ENDMDL
MODEL      199
REMARK 921   NORMALIZED FREE ENERGY PREDICTED BY IDOCK:   -3.50 KCAL/MOL
REMARK 922        TOTAL FREE ENERGY PREDICTED BY IDOCK:   -4.33 KCAL/MOL
REMARK 923 INTER-LIGAND FREE ENERGY PREDICTED BY IDOCK:   -4.94 KCAL/MOL
REMARK 924 INTRA-LIGAND FREE ENERGY PREDICTED BY IDOCK:    0.61 KCAL/MOL
REMARK 927      BINDING AFFINITY PREDICTED BY RF-SCORE:    0.00 PKD
ROOT
HETATM    1  O5* UNL     1     -12.016  14.637  63.942  1.00  0.00    -0.786 OA 
HETATM    2  H5* UNL     1     -12.535  14.834  63.171  1.00  0.00     0.000 HD 
HETATM    3  C5* UNL     1     -11.856  15.787  64.773  1.00  0.00     0.018 C  
ENDROOT
BRANCH   3   4
HETATM    4  C4* UNL     1     -11.021  15.469  66.012  1.00  0.00    -0.251 C  
HETATM    5  O4* UNL     1     -11.397  14.205  66.585  1.00  0.00    -0.322 OA 
HETATM    6  C1* UNL     1     -10.281  13.806  67.396  1.00  0.00    -0.252 C  
HETATM    7  C2* UNL     1      -9.035  14.257  66.639  1.00  0.00    -0.212 C  
HETATM    8  H3* UNL     1      -7.949  16.547  65.875  1.00  0.00     0.000 HD 
HETATM    9  O3* UNL     1      -8.881  16.607  66.047  1.00  0.00    -0.425 OA 
HETATM   10  C3* UNL     1      -9.522  15.373  65.736  1.00  0.00    -0.290 C  
BRANCH   6  11
HETATM   11  N   UNL     1     -10.319  12.378  67.708  1.00  0.00    -0.212 N  
HETATM   12  C   UNL     1      -9.352  11.775  68.493  1.00  0.00    -0.156 C  
HETATM   13  C   UNL     1      -8.230   9.798  69.495  1.00  0.00    -0.144 C  
HETATM   14  C   UNL     1      -9.292  10.449  68.689  1.00  0.00    -0.167 C  
HETATM   15  C   UNL     1     -10.310   9.612  68.044  1.00  0.00    -0.218 C  
HETATM   16  O   UNL     1     -10.315   8.389  68.097  1.00  0.00    -0.205 OA 
HETATM   17  N   UNL     1     -11.277  10.283  67.345  1.00  0.00    -0.303 N  
HETATM   18  F   UNL     1      -8.234   8.444  69.507  1.00  0.00    -0.108 F  
HETATM   19  F   UNL     1      -6.995  10.166  69.057  1.00  0.00    -0.051 F  
HETATM   20  F   UNL     1      -8.296  10.193  70.796  1.00  0.00     0.042 F  
HETATM   21  C   UNL     1     -11.311  11.627  67.090  1.00  0.00    -0.306 C  
HETATM   22  H   UNL     1     -12.049   9.726  66.978  1.00  0.00     0.000 HD 
HETATM   23  O   UNL     1     -12.172  12.095  66.347  1.00  0.00    -0.592 OA 
ENDBRANCH   6  11
ENDBRANCH   3   4
TORSDOF 2
ENDMDL
MODEL      200
REMARK 921   NORMALIZED FREE ENERGY PREDICTED BY IDOCK:   -3.49 KCAL/MOL
REMARK 922        TOTAL FREE ENERGY PREDICTED BY IDOCK:   -4.33 KCAL/MOL
REMARK 923 INTER-LIGAND FREE ENERGY PREDICTED BY IDOCK:   -4.36 KCAL/MOL
REMARK 924 INTRA-LIGAND FREE ENERGY PREDICTED BY IDOCK:    0.02 KCAL/MOL
REMARK 927      BINDING AFFINITY PREDICTED BY RF-SCORE:    0.00 PKD
ROOT
HETATM    1  O5* UNL     1     -10.633  19.234  66.190  1.00  0.00    -0.454 OA 
HETATM    2  H5* UNL     1     -10.566  20.084  66.609  1.00  0.00     0.000 HD 
HETATM    3  C5* UNL     1      -9.510  18.408  66.499  1.00  0.00    -0.317 C  
ENDROOT
BRANCH   3   4
HETATM    4  C4* UNL     1      -9.618  17.042  65.823  1.00  0.00    -0.009 C  
HETATM    5  O4* UNL     1      -9.072  16.004  66.657  1.00  0.00    -0.210 OA 
HETATM    6  C1* UNL     1      -9.643  14.781  66.166  1.00  0.00    -0.309 C  
HETATM    7  C2* UNL     1     -11.074  15.124  65.761  1.00  0.00    -0.330 C  
HETATM    8  H3* UNL     1     -12.271  16.663  63.970  1.00  0.00     0.000 HD 
HETATM    9  O3* UNL     1     -11.379  16.926  64.162  1.00  0.00    -1.208 OA 
HETATM   10  C3* UNL     1     -11.052  16.620  65.515  1.00  0.00     0.072 C  
BRANCH   6  11
HETATM   11  N   UNL     1      -9.529  13.698  67.142  1.00  0.00    -0.235 N  
HETATM   12  C   UNL     1      -9.055  12.446  66.792  1.00  0.00    -0.212 C  
HETATM   13  C   UNL     1      -8.593  10.048  67.248  1.00  0.00    -0.125 C  
HETATM   14  C   UNL     1      -9.061  11.401  67.635  1.00  0.00    -0.155 C  
HETATM   15  C   UNL     1      -9.588  11.612  68.988  1.00  0.00     0.115 C  
HETATM   16  O   UNL     1      -9.704  10.719  69.817  1.00  0.00     0.004 OA 
HETATM   17  N   UNL     1      -9.969  12.893  69.285  1.00  0.00    -0.152 N  
HETATM   18  F   UNL     1      -8.767   9.070  68.167  1.00  0.00    -0.126 F  
HETATM   19  F   UNL     1      -9.225   9.621  66.120  1.00  0.00    -0.163 F  
HETATM   20  F   UNL     1      -7.265  10.060  66.948  1.00  0.00    -0.086 F  
HETATM   21  C   UNL     1     -10.023  13.948  68.415  1.00  0.00    -0.233 C  
HETATM   22  H   UNL     1     -10.240  13.079  70.251  1.00  0.00     0.000 HD 
HETATM   23  O   UNL     1     -10.498  15.024  68.775  1.00  0.00    -0.224 OA 
ENDBRANCH   6  11
ENDBRANCH   3   4
TORSDOF 2
ENDMDL
MODEL      201
REMARK 921   NORMALIZED FREE ENERGY PREDICTED BY IDOCK:   -3.46 KCAL/MOL
REMARK 922        TOTAL FREE ENERGY PREDICTED BY IDOCK:   -4.30 KCAL/MOL
REMARK 923 INTER-LIGAND FREE ENERGY PREDICTED BY IDOCK:   -4.86 KCAL/MOL
REMARK 924 INTRA-LIGAND FREE ENERGY PREDICTED BY IDOCK:    0.56 KCAL/MOL
REMARK 927      BINDING AFFINITY PREDICTED BY RF-SCORE:    0.00 PKD
ROOT
HETATM    1  O5* UNL     1     -10.407   6.302  67.592  1.00  0.00    -0.148 OA 
HETATM    2  H5* UNL     1     -10.472   5.771  68.377  1.00  0.00     0.000 HD 
HETATM    3  C5* UNL     1      -9.047   6.543  67.235  1.00  0.00    -0.117 C  
ENDROOT
BRANCH   3   4
HETATM    4  C4* UNL     1      -8.943   7.397  65.972  1.00  0.00    -0.121 C  
HETATM    5  O4* UNL     1      -9.750   8.584  66.077  1.00  0.00    -0.222 OA 
HETATM    6  C1* UNL     1      -9.218   9.495  65.103  1.00  0.00    -0.244 C  
HETATM    7  C2* UNL     1      -7.707   9.279  65.113  1.00  0.00    -0.108 C  
HETATM    8  H3* UNL     1      -6.019   7.323  64.535  1.00  0.00     0.000 HD 
HETATM    9  O3* UNL     1      -6.901   7.022  64.722  1.00  0.00    -0.045 OA 
HETATM   10  C3* UNL     1      -7.526   7.881  65.672  1.00  0.00    -0.081 C  
BRANCH   6  11
HETATM   11  N   UNL     1      -9.637  10.872  65.360  1.00  0.00    -0.212 N  
HETATM   12  C   UNL     1     -10.715  11.442  64.704  1.00  0.00    -0.314 C  
HETATM   13  C   UNL     1     -12.170  13.359  64.091  1.00  0.00    -0.398 C  
HETATM   14  C   UNL     1     -11.042  12.738  64.826  1.00  0.00    -0.333 C  
HETATM   15  C   UNL     1     -10.217  13.575  65.704  1.00  0.00    -0.296 C  
HETATM   16  O   UNL     1     -10.379  14.781  65.839  1.00  0.00    -0.288 OA 
HETATM   17  N   UNL     1      -9.215  12.927  66.376  1.00  0.00    -0.404 N  
HETATM   18  F   UNL     1     -12.306  14.699  64.227  1.00  0.00    -0.478 F  
HETATM   19  F   UNL     1     -12.065  13.125  62.754  1.00  0.00    -0.497 F  
HETATM   20  F   UNL     1     -13.358  12.814  64.472  1.00  0.00    -0.250 F  
HETATM   21  C   UNL     1      -8.838  11.622  66.211  1.00  0.00    -0.164 C  
HETATM   22  H   UNL     1      -8.698  13.472  67.067  1.00  0.00     0.000 HD 
HETATM   23  O   UNL     1      -7.842  11.188  66.788  1.00  0.00    -0.140 OA 
ENDBRANCH   6  11
ENDBRANCH   3   4
TORSDOF 2
ENDMDL
MODEL      202
REMARK 921   NORMALIZED FREE ENERGY PREDICTED BY IDOCK:   -3.45 KCAL/MOL
REMARK 922        TOTAL FREE ENERGY PREDICTED BY IDOCK:   -4.29 KCAL/MOL
REMARK 923 INTER-LIGAND FREE ENERGY PREDICTED BY IDOCK:   -3.86 KCAL/MOL
REMARK 924 INTRA-LIGAND FREE ENERGY PREDICTED BY IDOCK:   -0.42 KCAL/MOL
REMARK 927      BINDING AFFINITY PREDICTED BY RF-SCORE:    0.00 PKD
ROOT
HETATM    1  O5* UNL     1     -13.237   7.742  72.267  1.00  0.00    -0.505 OA 
HETATM    2  H5* UNL     1     -14.166   7.818  72.085  1.00  0.00     0.000 HD 
HETATM    3  C5* UNL     1     -12.529   7.196  71.155  1.00  0.00    -0.359 C  
ENDROOT
BRANCH   3   4
HETATM    4  C4* UNL     1     -11.034   7.074  71.447  1.00  0.00    -0.240 C  
HETATM    5  O4* UNL     1     -10.252   7.779  70.467  1.00  0.00    -0.199 OA 
HETATM    6  C1* UNL     1      -8.974   7.999  71.085  1.00  0.00    -0.141 C  
HETATM    7  C2* UNL     1      -9.267   8.280  72.557  1.00  0.00    -0.339 C  
HETATM    8  H3* UNL     1     -10.290   6.970  74.618  1.00  0.00     0.000 HD 
HETATM    9  O3* UNL     1     -10.545   6.613  73.776  1.00  0.00    -0.315 OA 
HETATM   10  C3* UNL     1     -10.624   7.649  72.801  1.00  0.00    -0.325 C  
BRANCH   6  11
HETATM   11  N   UNL     1      -8.215   9.048  70.406  1.00  0.00    -0.132 N  
HETATM   12  C   UNL     1      -8.823   9.959  69.559  1.00  0.00    -0.197 C  
HETATM   13  C   UNL     1      -8.782  11.794  67.885  1.00  0.00    -0.164 C  
HETATM   14  C   UNL     1      -8.135  10.847  68.826  1.00  0.00    -0.145 C  
HETATM   15  C   UNL     1      -6.672  10.850  68.944  1.00  0.00    -0.067 C  
HETATM   16  O   UNL     1      -5.939  11.568  68.277  1.00  0.00    -0.046 OA 
HETATM   17  N   UNL     1      -6.147   9.973  69.856  1.00  0.00    -0.046 N  
HETATM   18  F   UNL     1      -7.951  12.550  67.131  1.00  0.00    -0.160 F  
HETATM   19  F   UNL     1      -9.587  11.132  67.009  1.00  0.00    -0.181 F  
HETATM   20  F   UNL     1      -9.591  12.663  68.551  1.00  0.00    -0.210 F  
HETATM   21  C   UNL     1      -6.836   9.024  70.561  1.00  0.00    -0.061 C  
HETATM   22  H   UNL     1      -5.143  10.034  70.026  1.00  0.00     0.000 HD 
HETATM   23  O   UNL     1      -6.232   8.215  71.262  1.00  0.00    -0.034 OA 
ENDBRANCH   6  11
ENDBRANCH   3   4
TORSDOF 2
ENDMDL
MODEL      203
REMARK 921   NORMALIZED FREE ENERGY PREDICTED BY IDOCK:   -3.45 KCAL/MOL
REMARK 922        TOTAL FREE ENERGY PREDICTED BY IDOCK:   -4.28 KCAL/MOL
REMARK 923 INTER-LIGAND FREE ENERGY PREDICTED BY IDOCK:   -4.60 KCAL/MOL
REMARK 924 INTRA-LIGAND FREE ENERGY PREDICTED BY IDOCK:    0.32 KCAL/MOL
REMARK 927      BINDING AFFINITY PREDICTED BY RF-SCORE:    0.00 PKD
ROOT
HETATM    1  O5* UNL     1      -9.422   7.518  72.197  1.00  0.00    -0.143 OA 
HETATM    2  H5* UNL     1      -9.213   7.878  73.050  1.00  0.00     0.000 HD 
HETATM    3  C5* UNL     1      -9.898   8.525  71.306  1.00  0.00    -0.216 C  
ENDROOT
BRANCH   3   4
HETATM    4  C4* UNL     1     -10.235   7.944  69.933  1.00  0.00    -0.210 C  
HETATM    5  O4* UNL     1     -10.660   8.973  69.022  1.00  0.00    -0.223 OA 
HETATM    6  C1* UNL     1     -10.483   8.417  67.710  1.00  0.00    -0.220 C  
HETATM    7  C2* UNL     1      -9.212   7.575  67.783  1.00  0.00    -0.139 C  
HETATM    8  H3* UNL     1      -8.391   5.405  69.058  1.00  0.00     0.000 HD 
HETATM    9  O3* UNL     1      -9.123   5.840  69.480  1.00  0.00    -0.128 OA 
HETATM   10  C3* UNL     1      -9.059   7.245  69.256  1.00  0.00    -0.138 C  
BRANCH   6  11
HETATM   11  N   UNL     1     -10.466   9.453  66.678  1.00  0.00    -0.208 N  
HETATM   12  C   UNL     1      -9.736   9.311  65.511  1.00  0.00    -0.177 C  
HETATM   13  C   UNL     1      -8.784  10.159  63.378  1.00  0.00    -0.213 C  
HETATM   14  C   UNL     1      -9.601  10.296  64.609  1.00  0.00    -0.374 C  
HETATM   15  C   UNL     1     -10.271  11.573  64.880  1.00  0.00    -0.275 C  
HETATM   16  O   UNL     1     -10.163  12.560  64.164  1.00  0.00    -0.359 OA 
HETATM   17  N   UNL     1     -11.034  11.616  66.015  1.00  0.00    -0.295 N  
HETATM   18  F   UNL     1      -8.649  11.274  62.623  1.00  0.00    -0.250 F  
HETATM   19  F   UNL     1      -7.519   9.753  63.680  1.00  0.00    -0.112 F  
HETATM   20  F   UNL     1      -9.296   9.201  62.559  1.00  0.00    -0.233 F  
HETATM   21  C   UNL     1     -11.128  10.639  66.969  1.00  0.00    -0.145 C  
HETATM   22  H   UNL     1     -11.589  12.459  66.165  1.00  0.00     0.000 HD 
HETATM   23  O   UNL     1     -11.756  10.844  68.006  1.00  0.00    -0.540 OA 
ENDBRANCH   6  11
ENDBRANCH   3   4
TORSDOF 2
ENDMDL
MODEL      204
REMARK 921   NORMALIZED FREE ENERGY PREDICTED BY IDOCK:   -3.44 KCAL/MOL
REMARK 922        TOTAL FREE ENERGY PREDICTED BY IDOCK:   -4.27 KCAL/MOL
REMARK 923 INTER-LIGAND FREE ENERGY PREDICTED BY IDOCK:   -3.82 KCAL/MOL
REMARK 924 INTRA-LIGAND FREE ENERGY PREDICTED BY IDOCK:   -0.45 KCAL/MOL
REMARK 927      BINDING AFFINITY PREDICTED BY RF-SCORE:    0.00 PKD
ROOT
HETATM    1  O5* UNL     1      -9.386   5.948  73.999  1.00  0.00    -0.129 OA 
HETATM    2  H5* UNL     1      -9.786   5.341  74.611  1.00  0.00     0.000 HD 
HETATM    3  C5* UNL     1      -8.563   5.268  73.051  1.00  0.00    -0.118 C  
ENDROOT
BRANCH   3   4
HETATM    4  C4* UNL     1      -7.919   6.244  72.068  1.00  0.00    -0.109 C  
HETATM    5  O4* UNL     1      -8.899   6.814  71.181  1.00  0.00    -0.136 OA 
HETATM    6  C1* UNL     1      -8.297   8.011  70.666  1.00  0.00    -0.123 C  
HETATM    7  C2* UNL     1      -7.493   8.603  71.820  1.00  0.00    -0.114 C  
HETATM    8  H3* UNL     1      -5.399   7.913  73.284  1.00  0.00     0.000 HD 
HETATM    9  O3* UNL     1      -5.830   7.177  72.866  1.00  0.00    -0.041 OA 
HETATM   10  C3* UNL     1      -7.226   7.427  72.740  1.00  0.00    -0.069 C  
BRANCH   6  11
HETATM   11  N   UNL     1      -9.292   8.915  70.090  1.00  0.00    -0.170 N  
HETATM   12  C   UNL     1     -10.440   9.271  70.777  1.00  0.00    -0.276 C  
HETATM   13  C   UNL     1     -12.677  10.339  70.945  1.00  0.00    -0.370 C  
HETATM   14  C   UNL     1     -11.426   9.994  70.225  1.00  0.00    -0.372 C  
HETATM   15  C   UNL     1     -11.264  10.429  68.833  1.00  0.00    -0.235 C  
HETATM   16  O   UNL     1     -12.125  11.034  68.207  1.00  0.00    -0.604 OA 
HETATM   17  N   UNL     1     -10.072  10.105  68.243  1.00  0.00    -0.151 N  
HETATM   18  F   UNL     1     -13.628  10.973  70.221  1.00  0.00     0.122 F  
HETATM   19  F   UNL     1     -13.270   9.221  71.448  1.00  0.00    -0.346 F  
HETATM   20  F   UNL     1     -12.416  11.136  72.017  1.00  0.00    -0.339 F  
HETATM   21  C   UNL     1      -9.088   9.317  68.777  1.00  0.00    -0.136 C  
HETATM   22  H   UNL     1      -9.900  10.487  67.313  1.00  0.00     0.000 HD 
HETATM   23  O   UNL     1      -8.113   9.000  68.099  1.00  0.00    -0.104 OA 
ENDBRANCH   6  11
ENDBRANCH   3   4
TORSDOF 2
ENDMDL
MODEL      205
REMARK 921   NORMALIZED FREE ENERGY PREDICTED BY IDOCK:   -3.42 KCAL/MOL
REMARK 922        TOTAL FREE ENERGY PREDICTED BY IDOCK:   -4.26 KCAL/MOL
REMARK 923 INTER-LIGAND FREE ENERGY PREDICTED BY IDOCK:   -4.04 KCAL/MOL
REMARK 924 INTRA-LIGAND FREE ENERGY PREDICTED BY IDOCK:   -0.21 KCAL/MOL
REMARK 927      BINDING AFFINITY PREDICTED BY RF-SCORE:    0.00 PKD
ROOT
HETATM    1  O5* UNL     1     -12.318  14.185  69.491  1.00  0.00    -0.410 OA 
HETATM    2  H5* UNL     1     -12.907  14.768  69.955  1.00  0.00     0.000 HD 
HETATM    3  C5* UNL     1     -11.861  14.766  68.270  1.00  0.00    -0.284 C  
ENDROOT
BRANCH   3   4
HETATM    4  C4* UNL     1     -10.914  13.828  67.524  1.00  0.00    -0.272 C  
HETATM    5  O4* UNL     1      -9.714  13.587  68.280  1.00  0.00    -0.218 OA 
HETATM    6  C1* UNL     1      -9.158  12.378  67.740  1.00  0.00    -0.193 C  
HETATM    7  C2* UNL     1     -10.351  11.488  67.401  1.00  0.00    -0.235 C  
HETATM    8  H3* UNL     1     -12.410  11.549  65.739  1.00  0.00     0.000 HD 
HETATM    9  O3* UNL     1     -12.039  12.405  65.916  1.00  0.00    -0.580 OA 
HETATM   10  C3* UNL     1     -11.510  12.452  67.238  1.00  0.00    -0.354 C  
BRANCH   6  11
HETATM   11  N   UNL     1      -8.187  11.773  68.651  1.00  0.00    -0.128 N  
HETATM   12  C   UNL     1      -8.416  10.548  69.255  1.00  0.00    -0.129 C  
HETATM   13  C   UNL     1      -7.869   8.740  70.868  1.00  0.00    -0.120 C  
HETATM   14  C   UNL     1      -7.603  10.032  70.189  1.00  0.00    -0.168 C  
HETATM   15  C   UNL     1      -6.416  10.805  70.572  1.00  0.00     0.006 C  
HETATM   16  O   UNL     1      -5.643  10.466  71.458  1.00  0.00    -0.257 OA 
HETATM   17  N   UNL     1      -6.216  11.970  69.880  1.00  0.00    -0.219 N  
HETATM   18  F   UNL     1      -7.023   8.405  71.869  1.00  0.00    -0.065 F  
HETATM   19  F   UNL     1      -9.118   8.727  71.411  1.00  0.00    -0.205 F  
HETATM   20  F   UNL     1      -7.840   7.709  69.980  1.00  0.00    -0.092 F  
HETATM   21  C   UNL     1      -7.070  12.532  68.971  1.00  0.00    -0.037 C  
HETATM   22  H   UNL     1      -5.343  12.467  70.061  1.00  0.00     0.000 HD 
HETATM   23  O   UNL     1      -6.832  13.645  68.504  1.00  0.00    -0.083 OA 
ENDBRANCH   6  11
ENDBRANCH   3   4
TORSDOF 2
ENDMDL
MODEL      206
REMARK 921   NORMALIZED FREE ENERGY PREDICTED BY IDOCK:   -3.40 KCAL/MOL
REMARK 922        TOTAL FREE ENERGY PREDICTED BY IDOCK:   -4.23 KCAL/MOL
REMARK 923 INTER-LIGAND FREE ENERGY PREDICTED BY IDOCK:   -4.52 KCAL/MOL
REMARK 924 INTRA-LIGAND FREE ENERGY PREDICTED BY IDOCK:    0.28 KCAL/MOL
REMARK 927      BINDING AFFINITY PREDICTED BY RF-SCORE:    0.00 PKD
ROOT
HETATM    1  O5* UNL     1     -14.076  15.937  72.240  1.00  0.00    -0.413 OA 
HETATM    2  H5* UNL     1     -13.964  16.727  72.755  1.00  0.00     0.000 HD 
HETATM    3  C5* UNL     1     -12.841  15.503  71.672  1.00  0.00    -0.446 C  
ENDROOT
BRANCH   3   4
HETATM    4  C4* UNL     1     -13.022  14.232  70.843  1.00  0.00    -0.329 C  
HETATM    5  O4* UNL     1     -12.198  14.257  69.664  1.00  0.00    -0.327 OA 
HETATM    6  C1* UNL     1     -12.083  12.886  69.250  1.00  0.00    -0.182 C  
HETATM    7  C2* UNL     1     -12.007  12.068  70.537  1.00  0.00    -0.338 C  
HETATM    8  H3* UNL     1     -13.579  11.548  72.603  1.00  0.00     0.000 HD 
HETATM    9  O3* UNL     1     -13.812  12.343  72.139  1.00  0.00    -0.305 OA 
HETATM   10  C3* UNL     1     -12.648  12.954  71.588  1.00  0.00    -0.102 C  
BRANCH   6  11
HETATM   11  N   UNL     1     -10.960  12.687  68.336  1.00  0.00    -0.244 N  
HETATM   12  C   UNL     1     -10.993  11.731  67.335  1.00  0.00    -0.262 C  
HETATM   13  C   UNL     1      -9.953  10.388  65.522  1.00  0.00    -0.282 C  
HETATM   14  C   UNL     1      -9.931  11.441  66.567  1.00  0.00    -0.243 C  
HETATM   15  C   UNL     1      -8.688  12.183  66.803  1.00  0.00    -0.183 C  
HETATM   16  O   UNL     1      -7.641  11.958  66.211  1.00  0.00     0.136 OA 
HETATM   17  N   UNL     1      -8.752  13.163  67.758  1.00  0.00    -0.175 N  
HETATM   18  F   UNL     1      -8.775  10.130  64.908  1.00  0.00    -0.146 F  
HETATM   19  F   UNL     1     -10.375   9.201  66.040  1.00  0.00    -0.355 F  
HETATM   20  F   UNL     1     -10.839  10.699  64.536  1.00  0.00    -0.383 F  
HETATM   21  C   UNL     1      -9.810  13.424  68.585  1.00  0.00    -0.112 C  
HETATM   22  H   UNL     1      -7.928  13.757  67.863  1.00  0.00     0.000 HD 
HETATM   23  O   UNL     1      -9.701  14.254  69.486  1.00  0.00     0.173 OA 
ENDBRANCH   6  11
ENDBRANCH   3   4
TORSDOF 2
ENDMDL
MODEL      207
REMARK 921   NORMALIZED FREE ENERGY PREDICTED BY IDOCK:   -3.40 KCAL/MOL
REMARK 922        TOTAL FREE ENERGY PREDICTED BY IDOCK:   -4.23 KCAL/MOL
REMARK 923 INTER-LIGAND FREE ENERGY PREDICTED BY IDOCK:   -4.82 KCAL/MOL
REMARK 924 INTRA-LIGAND FREE ENERGY PREDICTED BY IDOCK:    0.58 KCAL/MOL
REMARK 927      BINDING AFFINITY PREDICTED BY RF-SCORE:    0.00 PKD
ROOT
HETATM    1  O5* UNL     1      -9.775   3.666  70.956  1.00  0.00    -0.178 OA 
HETATM    2  H5* UNL     1      -9.745   2.782  70.611  1.00  0.00     0.000 HD 
HETATM    3  C5* UNL     1      -9.984   4.626  69.921  1.00  0.00    -0.226 C  
ENDROOT
BRANCH   3   4
HETATM    4  C4* UNL     1     -10.033   6.048  70.477  1.00  0.00    -0.185 C  
HETATM    5  O4* UNL     1      -9.719   7.017  69.460  1.00  0.00    -0.159 OA 
HETATM    6  C1* UNL     1     -10.250   8.261  69.942  1.00  0.00    -0.201 C  
HETATM    7  C2* UNL     1     -11.554   7.909  70.653  1.00  0.00    -0.215 C  
HETATM    8  H3* UNL     1     -12.292   6.514  72.778  1.00  0.00     0.000 HD 
HETATM    9  O3* UNL     1     -11.441   6.266  72.437  1.00  0.00    -0.279 OA 
HETATM   10  C3* UNL     1     -11.401   6.447  71.025  1.00  0.00    -0.328 C  
BRANCH   6  11
HETATM   11  N   UNL     1     -10.389   9.244  68.868  1.00  0.00    -0.210 N  
HETATM   12  C   UNL     1     -10.698  10.568  69.125  1.00  0.00    -0.231 C  
HETATM   13  C   UNL     1     -11.329  12.869  68.432  1.00  0.00    -0.294 C  
HETATM   14  C   UNL     1     -10.956  11.460  68.156  1.00  0.00    -0.284 C  
HETATM   15  C   UNL     1     -10.896  10.999  66.764  1.00  0.00    -0.251 C  
HETATM   16  O   UNL     1     -11.177  11.704  65.804  1.00  0.00    -0.303 OA 
HETATM   17  N   UNL     1     -10.512   9.697  66.584  1.00  0.00    -0.197 N  
HETATM   18  F   UNL     1     -11.673  13.617  67.358  1.00  0.00    -0.324 F  
HETATM   19  F   UNL     1     -12.387  12.931  69.288  1.00  0.00    -0.279 F  
HETATM   20  F   UNL     1     -10.312  13.529  69.049  1.00  0.00    -0.218 F  
HETATM   21  C   UNL     1     -10.306   8.767  67.567  1.00  0.00    -0.268 C  
HETATM   22  H   UNL     1     -10.365   9.390  65.622  1.00  0.00     0.000 HD 
HETATM   23  O   UNL     1     -10.080   7.595  67.272  1.00  0.00    -0.188 OA 
ENDBRANCH   6  11
ENDBRANCH   3   4
TORSDOF 2
ENDMDL
MODEL      208
REMARK 921   NORMALIZED FREE ENERGY PREDICTED BY IDOCK:   -3.39 KCAL/MOL
REMARK 922        TOTAL FREE ENERGY PREDICTED BY IDOCK:   -4.22 KCAL/MOL
REMARK 923 INTER-LIGAND FREE ENERGY PREDICTED BY IDOCK:   -4.25 KCAL/MOL
REMARK 924 INTRA-LIGAND FREE ENERGY PREDICTED BY IDOCK:    0.04 KCAL/MOL
REMARK 927      BINDING AFFINITY PREDICTED BY RF-SCORE:    0.00 PKD
ROOT
HETATM    1  O5* UNL     1     -13.400  12.177  71.914  1.00  0.00    -0.463 OA 
HETATM    2  H5* UNL     1     -13.294  13.120  71.895  1.00  0.00     0.000 HD 
HETATM    3  C5* UNL     1     -12.539  11.534  70.975  1.00  0.00    -0.357 C  
ENDROOT
BRANCH   3   4
HETATM    4  C4* UNL     1     -12.709  10.016  71.007  1.00  0.00    -0.362 C  
HETATM    5  O4* UNL     1     -11.675   9.359  70.253  1.00  0.00    -0.206 OA 
HETATM    6  C1* UNL     1     -11.651   8.007  70.737  1.00  0.00    -0.242 C  
HETATM    7  C2* UNL     1     -11.926   8.096  72.236  1.00  0.00    -0.434 C  
HETATM    8  H3* UNL     1     -13.919   8.858  73.803  1.00  0.00     0.000 HD 
HETATM    9  O3* UNL     1     -13.959   9.229  72.929  1.00  0.00    -0.398 OA 
HETATM   10  C3* UNL     1     -12.645   9.420  72.412  1.00  0.00    -0.237 C  
BRANCH   6  11
HETATM   11  N   UNL     1     -10.404   7.327  70.387  1.00  0.00    -0.205 N  
HETATM   12  C   UNL     1      -9.508   7.865  69.479  1.00  0.00    -0.160 C  
HETATM   13  C   UNL     1      -7.485   7.763  68.041  1.00  0.00    -0.108 C  
HETATM   14  C   UNL     1      -8.423   7.205  69.046  1.00  0.00    -0.129 C  
HETATM   15  C   UNL     1      -8.182   5.857  69.573  1.00  0.00    -0.113 C  
HETATM   16  O   UNL     1      -7.264   5.137  69.200  1.00  0.00    -0.055 OA 
HETATM   17  N   UNL     1      -9.068   5.421  70.521  1.00  0.00    -0.140 N  
HETATM   18  F   UNL     1      -6.502   6.936  67.617  1.00  0.00    -0.041 F  
HETATM   19  F   UNL     1      -8.153   8.159  66.922  1.00  0.00    -0.099 F  
HETATM   20  F   UNL     1      -6.868   8.878  68.519  1.00  0.00    -0.060 F  
HETATM   21  C   UNL     1     -10.209   6.061  70.923  1.00  0.00    -0.206 C  
HETATM   22  H   UNL     1      -8.857   4.530  70.972  1.00  0.00     0.000 HD 
HETATM   23  O   UNL     1     -10.988   5.510  71.698  1.00  0.00    -0.238 OA 
ENDBRANCH   6  11
ENDBRANCH   3   4
TORSDOF 2
ENDMDL
MODEL      209
REMARK 921   NORMALIZED FREE ENERGY PREDICTED BY IDOCK:   -3.38 KCAL/MOL
REMARK 922        TOTAL FREE ENERGY PREDICTED BY IDOCK:   -4.20 KCAL/MOL
REMARK 923 INTER-LIGAND FREE ENERGY PREDICTED BY IDOCK:   -3.84 KCAL/MOL
REMARK 924 INTRA-LIGAND FREE ENERGY PREDICTED BY IDOCK:   -0.37 KCAL/MOL
REMARK 927      BINDING AFFINITY PREDICTED BY RF-SCORE:    0.00 PKD
ROOT
HETATM    1  O5* UNL     1      -5.766   9.451  71.138  1.00  0.00    -0.052 OA 
HETATM    2  H5* UNL     1      -4.908   9.633  71.501  1.00  0.00     0.000 HD 
HETATM    3  C5* UNL     1      -5.942  10.079  69.869  1.00  0.00    -0.048 C  
ENDROOT
BRANCH   3   4
HETATM    4  C4* UNL     1      -7.323   9.784  69.286  1.00  0.00    -0.082 C  
HETATM    5  O4* UNL     1      -8.145  10.965  69.268  1.00  0.00    -0.136 OA 
HETATM    6  C1* UNL     1      -9.174  10.699  68.303  1.00  0.00    -0.153 C  
HETATM    7  C2* UNL     1      -8.504   9.901  67.188  1.00  0.00    -0.121 C  
HETATM    8  H3* UNL     1      -7.334   7.541  66.923  1.00  0.00     0.000 HD 
HETATM    9  O3* UNL     1      -7.356   7.856  67.818  1.00  0.00    -0.091 OA 
HETATM   10  C3* UNL     1      -7.287   9.278  67.846  1.00  0.00    -0.080 C  
BRANCH   6  11
HETATM   11  N   UNL     1      -9.834  11.927  67.859  1.00  0.00    -0.185 N  
HETATM   12  C   UNL     1      -9.174  13.143  67.835  1.00  0.00    -0.207 C  
HETATM   13  C   UNL     1      -9.094  15.612  67.572  1.00  0.00    -0.193 C  
HETATM   14  C   UNL     1      -9.790  14.303  67.555  1.00  0.00    -0.231 C  
HETATM   15  C   UNL     1     -11.225  14.264  67.255  1.00  0.00    -0.318 C  
HETATM   16  O   UNL     1     -11.903  15.263  67.052  1.00  0.00    -0.133 OA 
HETATM   17  N   UNL     1     -11.794  13.018  67.224  1.00  0.00    -0.372 N  
HETATM   18  F   UNL     1      -9.870  16.705  67.383  1.00  0.00    -0.238 F  
HETATM   19  F   UNL     1      -8.453  15.806  68.758  1.00  0.00    -0.154 F  
HETATM   20  F   UNL     1      -8.126  15.660  66.615  1.00  0.00    -0.245 F  
HETATM   21  C   UNL     1     -11.189  11.840  67.567  1.00  0.00    -0.291 C  
HETATM   22  H   UNL     1     -12.765  12.964  66.916  1.00  0.00     0.000 HD 
HETATM   23  O   UNL     1     -11.842  10.799  67.613  1.00  0.00    -0.505 OA 
ENDBRANCH   6  11
ENDBRANCH   3   4
TORSDOF 2
ENDMDL
MODEL      210
REMARK 921   NORMALIZED FREE ENERGY PREDICTED BY IDOCK:   -3.36 KCAL/MOL
REMARK 922        TOTAL FREE ENERGY PREDICTED BY IDOCK:   -4.18 KCAL/MOL
REMARK 923 INTER-LIGAND FREE ENERGY PREDICTED BY IDOCK:   -3.72 KCAL/MOL
REMARK 924 INTRA-LIGAND FREE ENERGY PREDICTED BY IDOCK:   -0.46 KCAL/MOL
REMARK 927      BINDING AFFINITY PREDICTED BY RF-SCORE:    0.00 PKD
ROOT
HETATM    1  O5* UNL     1      -8.757   8.021  70.787  1.00  0.00    -0.132 OA 
HETATM    2  H5* UNL     1      -8.445   7.536  71.541  1.00  0.00     0.000 HD 
HETATM    3  C5* UNL     1     -10.181   7.990  70.697  1.00  0.00    -0.196 C  
ENDROOT
BRANCH   3   4
HETATM    4  C4* UNL     1     -10.682   8.771  69.483  1.00  0.00    -0.188 C  
HETATM    5  O4* UNL     1     -10.521  10.188  69.671  1.00  0.00    -0.220 OA 
HETATM    6  C1* UNL     1     -10.561  10.755  68.352  1.00  0.00    -0.197 C  
HETATM    7  C2* UNL     1      -9.847   9.755  67.448  1.00  0.00    -0.219 C  
HETATM    8  H3* UNL     1     -10.220   7.264  66.631  1.00  0.00     0.000 HD 
HETATM    9  O3* UNL     1     -10.678   7.473  67.436  1.00  0.00    -0.280 OA 
HETATM   10  C3* UNL     1      -9.945   8.435  68.189  1.00  0.00    -0.191 C  
BRANCH   6  11
HETATM   11  N   UNL     1     -10.002  12.106  68.325  1.00  0.00    -0.208 N  
HETATM   12  C   UNL     1      -8.637  12.333  68.325  1.00  0.00    -0.172 C  
HETATM   13  C   UNL     1      -6.636  13.799  68.471  1.00  0.00    -0.099 C  
HETATM   14  C   UNL     1      -8.100  13.558  68.428  1.00  0.00    -0.145 C  
HETATM   15  C   UNL     1      -9.012  14.702  68.537  1.00  0.00    -0.184 C  
HETATM   16  O   UNL     1      -8.637  15.855  68.703  1.00  0.00    -0.176 OA 
HETATM   17  N   UNL     1     -10.347  14.409  68.456  1.00  0.00    -0.242 N  
HETATM   18  F   UNL     1      -6.246  15.075  68.694  1.00  0.00    -0.081 F  
HETATM   19  F   UNL     1      -6.051  13.051  69.447  1.00  0.00    -0.082 F  
HETATM   20  F   UNL     1      -6.047  13.416  67.306  1.00  0.00    -0.147 F  
HETATM   21  C   UNL     1     -10.903  13.159  68.411  1.00  0.00    -0.262 C  
HETATM   22  H   UNL     1     -10.990  15.200  68.425  1.00  0.00     0.000 HD 
HETATM   23  O   UNL     1     -12.124  13.023  68.460  1.00  0.00    -0.297 OA 
ENDBRANCH   6  11
ENDBRANCH   3   4
TORSDOF 2
ENDMDL
MODEL      211
REMARK 921   NORMALIZED FREE ENERGY PREDICTED BY IDOCK:   -3.35 KCAL/MOL
REMARK 922        TOTAL FREE ENERGY PREDICTED BY IDOCK:   -4.17 KCAL/MOL
REMARK 923 INTER-LIGAND FREE ENERGY PREDICTED BY IDOCK:   -4.58 KCAL/MOL
REMARK 924 INTRA-LIGAND FREE ENERGY PREDICTED BY IDOCK:    0.41 KCAL/MOL
REMARK 927      BINDING AFFINITY PREDICTED BY RF-SCORE:    0.00 PKD
ROOT
HETATM    1  O5* UNL     1      -6.409  13.745  71.428  1.00  0.00    -0.530 OA 
HETATM    2  H5* UNL     1      -6.058  13.468  72.266  1.00  0.00     0.000 HD 
HETATM    3  C5* UNL     1      -5.448  14.486  70.677  1.00  0.00    -0.142 C  
ENDROOT
BRANCH   3   4
HETATM    4  C4* UNL     1      -6.013  14.932  69.329  1.00  0.00    -0.104 C  
HETATM    5  O4* UNL     1      -6.911  13.946  68.789  1.00  0.00    -0.097 OA 
HETATM    6  C1* UNL     1      -7.712  14.648  67.826  1.00  0.00    -0.157 C  
HETATM    7  C2* UNL     1      -7.949  16.037  68.414  1.00  0.00    -0.151 C  
HETATM    8  H3* UNL     1      -6.486  18.145  69.066  1.00  0.00     0.000 HD 
HETATM    9  O3* UNL     1      -5.990  17.336  69.024  1.00  0.00    -0.174 OA 
HETATM   10  C3* UNL     1      -6.810  16.232  69.397  1.00  0.00    -0.213 C  
BRANCH   6  11
HETATM   11  N   UNL     1      -8.932  13.913  67.495  1.00  0.00    -0.186 N  
HETATM   12  C   UNL     1      -9.068  13.221  66.303  1.00  0.00     0.029 C  
HETATM   13  C   UNL     1     -10.377  11.941  64.624  1.00  0.00    -0.284 C  
HETATM   14  C   UNL     1     -10.218  12.646  65.920  1.00  0.00    -0.290 C  
HETATM   15  C   UNL     1     -11.374  12.756  66.816  1.00  0.00    -0.313 C  
HETATM   16  O   UNL     1     -12.489  12.331  66.540  1.00  0.00    -0.340 OA 
HETATM   17  N   UNL     1     -11.146  13.390  68.008  1.00  0.00    -0.246 N  
HETATM   18  F   UNL     1     -11.625  11.514  64.325  1.00  0.00    -0.390 F  
HETATM   19  F   UNL     1      -9.993  12.739  63.589  1.00  0.00    -0.385 F  
HETATM   20  F   UNL     1      -9.572  10.845  64.566  1.00  0.00    -0.221 F  
HETATM   21  C   UNL     1      -9.995  14.030  68.381  1.00  0.00    -0.236 C  
HETATM   22  H   UNL     1     -11.909  13.384  68.685  1.00  0.00     0.000 HD 
HETATM   23  O   UNL     1      -9.953  14.666  69.432  1.00  0.00    -0.147 OA 
ENDBRANCH   6  11
ENDBRANCH   3   4
TORSDOF 2
ENDMDL
MODEL      212
REMARK 921   NORMALIZED FREE ENERGY PREDICTED BY IDOCK:   -3.35 KCAL/MOL
REMARK 922        TOTAL FREE ENERGY PREDICTED BY IDOCK:   -4.17 KCAL/MOL
REMARK 923 INTER-LIGAND FREE ENERGY PREDICTED BY IDOCK:   -4.31 KCAL/MOL
REMARK 924 INTRA-LIGAND FREE ENERGY PREDICTED BY IDOCK:    0.14 KCAL/MOL
REMARK 927      BINDING AFFINITY PREDICTED BY RF-SCORE:    0.00 PKD
ROOT
HETATM    1  O5* UNL     1      -8.356   7.616  64.676  1.00  0.00    -0.307 OA 
HETATM    2  H5* UNL     1      -7.959   8.001  63.904  1.00  0.00     0.000 HD 
HETATM    3  C5* UNL     1      -7.834   6.313  64.938  1.00  0.00    -0.113 C  
ENDROOT
BRANCH   3   4
HETATM    4  C4* UNL     1      -8.472   5.694  66.180  1.00  0.00    -0.128 C  
HETATM    5  O4* UNL     1      -8.673   6.678  67.210  1.00  0.00    -0.118 OA 
HETATM    6  C1* UNL     1      -9.669   6.121  68.081  1.00  0.00    -0.120 C  
HETATM    7  C2* UNL     1     -10.643   5.373  67.175  1.00  0.00    -0.274 C  
HETATM    8  H3* UNL     1     -10.572   3.283  65.552  1.00  0.00     0.000 HD 
HETATM    9  O3* UNL     1      -9.720   3.669  65.712  1.00  0.00    -0.166 OA 
HETATM   10  C3* UNL     1      -9.843   5.073  65.922  1.00  0.00    -0.164 C  
BRANCH   6  11
HETATM   11  N   UNL     1     -10.286   7.143  68.925  1.00  0.00    -0.181 N  
HETATM   12  C   UNL     1     -10.545   6.925  70.267  1.00  0.00    -0.218 C  
HETATM   13  C   UNL     1     -11.540   7.542  72.458  1.00  0.00    -0.303 C  
HETATM   14  C   UNL     1     -11.224   7.795  71.031  1.00  0.00    -0.282 C  
HETATM   15  C   UNL     1     -11.699   9.034  70.406  1.00  0.00    -0.062 C  
HETATM   16  O   UNL     1     -12.383   9.867  70.986  1.00  0.00    -0.317 OA 
HETATM   17  N   UNL     1     -11.341   9.215  69.097  1.00  0.00    -0.398 N  
HETATM   18  F   UNL     1     -12.329   8.457  73.067  1.00  0.00    -0.393 F  
HETATM   19  F   UNL     1     -12.167   6.343  72.611  1.00  0.00    -0.205 F  
HETATM   20  F   UNL     1     -10.402   7.463  73.201  1.00  0.00    -0.241 F  
HETATM   21  C   UNL     1     -10.703   8.308  68.295  1.00  0.00    -0.019 C  
HETATM   22  H   UNL     1     -11.574  10.116  68.677  1.00  0.00     0.000 HD 
HETATM   23  O   UNL     1     -10.543   8.544  67.099  1.00  0.00    -0.303 OA 
ENDBRANCH   6  11
ENDBRANCH   3   4
TORSDOF 2
ENDMDL
MODEL      213
REMARK 921   NORMALIZED FREE ENERGY PREDICTED BY IDOCK:   -3.34 KCAL/MOL
REMARK 922        TOTAL FREE ENERGY PREDICTED BY IDOCK:   -4.16 KCAL/MOL
REMARK 923 INTER-LIGAND FREE ENERGY PREDICTED BY IDOCK:   -3.73 KCAL/MOL
REMARK 924 INTRA-LIGAND FREE ENERGY PREDICTED BY IDOCK:   -0.44 KCAL/MOL
REMARK 927      BINDING AFFINITY PREDICTED BY RF-SCORE:    0.00 PKD
ROOT
HETATM    1  O5* UNL     1      -8.297  15.100  69.470  1.00  0.00    -0.325 OA 
HETATM    2  H5* UNL     1      -7.739  15.631  70.025  1.00  0.00     0.000 HD 
HETATM    3  C5* UNL     1      -9.577  15.703  69.284  1.00  0.00    -0.268 C  
ENDROOT
BRANCH   3   4
HETATM    4  C4* UNL     1     -10.474  14.848  68.390  1.00  0.00    -0.243 C  
HETATM    5  O4* UNL     1      -9.696  13.989  67.538  1.00  0.00    -0.224 OA 
HETATM    6  C1* UNL     1     -10.592  12.945  67.128  1.00  0.00    -0.238 C  
HETATM    7  C2* UNL     1     -11.478  12.658  68.338  1.00  0.00    -0.350 C  
HETATM    8  H3* UNL     1     -13.287  13.954  69.771  1.00  0.00     0.000 HD 
HETATM    9  O3* UNL     1     -12.701  14.527  69.290  1.00  0.00    -0.006 OA 
HETATM   10  C3* UNL     1     -11.415  13.928  69.164  1.00  0.00    -0.299 C  
BRANCH   6  11
HETATM   11  N   UNL     1      -9.871  11.782  66.613  1.00  0.00    -0.199 N  
HETATM   12  C   UNL     1      -8.701  11.328  67.198  1.00  0.00    -0.151 C  
HETATM   13  C   UNL     1      -6.679   9.888  67.274  1.00  0.00    -0.074 C  
HETATM   14  C   UNL     1      -7.955  10.345  66.671  1.00  0.00    -0.120 C  
HETATM   15  C   UNL     1      -8.414   9.726  65.424  1.00  0.00    -0.145 C  
HETATM   16  O   UNL     1      -7.782   8.869  64.819  1.00  0.00    -0.102 OA 
HETATM   17  N   UNL     1      -9.616  10.174  64.944  1.00  0.00    -0.284 N  
HETATM   18  F   UNL     1      -5.979   8.970  66.568  1.00  0.00    -0.051 F  
HETATM   19  F   UNL     1      -5.832  10.937  67.470  1.00  0.00    -0.043 F  
HETATM   20  F   UNL     1      -6.889   9.346  68.505  1.00  0.00    -0.059 F  
HETATM   21  C   UNL     1     -10.352  11.215  65.440  1.00  0.00    -0.271 C  
HETATM   22  H   UNL     1     -10.000   9.683  64.136  1.00  0.00     0.000 HD 
HETATM   23  O   UNL     1     -11.359  11.599  64.848  1.00  0.00    -0.272 OA 
ENDBRANCH   6  11
ENDBRANCH   3   4
TORSDOF 2
ENDMDL
MODEL      214
REMARK 921   NORMALIZED FREE ENERGY PREDICTED BY IDOCK:   -3.33 KCAL/MOL
REMARK 922        TOTAL FREE ENERGY PREDICTED BY IDOCK:   -4.15 KCAL/MOL
REMARK 923 INTER-LIGAND FREE ENERGY PREDICTED BY IDOCK:   -3.64 KCAL/MOL
REMARK 924 INTRA-LIGAND FREE ENERGY PREDICTED BY IDOCK:   -0.51 KCAL/MOL
REMARK 927      BINDING AFFINITY PREDICTED BY RF-SCORE:    0.00 PKD
ROOT
HETATM    1  O5* UNL     1      -5.771   8.421  71.405  1.00  0.00    -0.034 OA 
HETATM    2  H5* UNL     1      -4.860   8.686  71.363  1.00  0.00     0.000 HD 
HETATM    3  C5* UNL     1      -6.550   9.060  70.394  1.00  0.00    -0.049 C  
ENDROOT
BRANCH   3   4
HETATM    4  C4* UNL     1      -8.015   8.634  70.463  1.00  0.00    -0.106 C  
HETATM    5  O4* UNL     1      -8.469   8.118  69.199  1.00  0.00    -0.132 OA 
HETATM    6  C1* UNL     1      -9.635   7.337  69.501  1.00  0.00    -0.155 C  
HETATM    7  C2* UNL     1      -9.348   6.661  70.839  1.00  0.00    -0.159 C  
HETATM    8  H3* UNL     1      -8.925   7.410  73.343  1.00  0.00     0.000 HD 
HETATM    9  O3* UNL     1      -8.756   8.095  72.707  1.00  0.00    -0.177 OA 
HETATM   10  C3* UNL     1      -8.288   7.532  71.485  1.00  0.00    -0.107 C  
BRANCH   6  11
HETATM   11  N   UNL     1      -9.970   6.417  68.415  1.00  0.00    -0.136 N  
HETATM   12  C   UNL     1      -9.541   5.101  68.413  1.00  0.00    -0.139 C  
HETATM   13  C   UNL     1      -9.228   2.877  67.351  1.00  0.00    -0.182 C  
HETATM   14  C   UNL     1      -9.725   4.275  67.372  1.00  0.00    -0.210 C  
HETATM   15  C   UNL     1     -10.422   4.799  66.192  1.00  0.00    -0.290 C  
HETATM   16  O   UNL     1     -10.587   4.159  65.162  1.00  0.00    -0.224 OA 
HETATM   17  N   UNL     1     -10.882   6.085  66.295  1.00  0.00    -0.624 N  
HETATM   18  F   UNL     1      -9.388   2.203  66.189  1.00  0.00    -0.115 F  
HETATM   19  F   UNL     1      -7.896   2.832  67.633  1.00  0.00    -0.065 F  
HETATM   20  F   UNL     1      -9.836   2.131  68.314  1.00  0.00    -0.261 F  
HETATM   21  C   UNL     1     -10.647   6.952  67.327  1.00  0.00    -0.322 C  
HETATM   22  H   UNL     1     -11.458   6.430  65.526  1.00  0.00     0.000 HD 
HETATM   23  O   UNL     1     -11.015   8.123  67.247  1.00  0.00    -0.154 OA 
ENDBRANCH   6  11
ENDBRANCH   3   4
TORSDOF 2
ENDMDL
MODEL      215
REMARK 921   NORMALIZED FREE ENERGY PREDICTED BY IDOCK:   -3.31 KCAL/MOL
REMARK 922        TOTAL FREE ENERGY PREDICTED BY IDOCK:   -4.13 KCAL/MOL
REMARK 923 INTER-LIGAND FREE ENERGY PREDICTED BY IDOCK:   -3.58 KCAL/MOL
REMARK 924 INTRA-LIGAND FREE ENERGY PREDICTED BY IDOCK:   -0.55 KCAL/MOL
REMARK 927      BINDING AFFINITY PREDICTED BY RF-SCORE:    0.00 PKD
ROOT
HETATM    1  O5* UNL     1     -10.772   1.852  72.798  1.00  0.00    -0.150 OA 
HETATM    2  H5* UNL     1     -11.010   0.962  72.568  1.00  0.00     0.000 HD 
HETATM    3  C5* UNL     1      -9.935   2.444  71.805  1.00  0.00    -0.127 C  
ENDROOT
BRANCH   3   4
HETATM    4  C4* UNL     1      -9.551   3.875  72.176  1.00  0.00    -0.147 C  
HETATM    5  O4* UNL     1      -8.836   4.518  71.105  1.00  0.00    -0.111 OA 
HETATM    6  C1* UNL     1      -8.957   5.926  71.357  1.00  0.00    -0.140 C  
HETATM    7  C2* UNL     1     -10.363   6.129  71.916  1.00  0.00    -0.244 C  
HETATM    8  H3* UNL     1     -11.721   5.400  74.068  1.00  0.00     0.000 HD 
HETATM    9  O3* UNL     1     -10.976   4.841  73.881  1.00  0.00    -0.300 OA 
HETATM   10  C3* UNL     1     -10.748   4.774  72.477  1.00  0.00    -0.176 C  
BRANCH   6  11
HETATM   11  N   UNL     1      -8.657   6.719  70.165  1.00  0.00    -0.139 N  
HETATM   12  C   UNL     1      -9.644   7.101  69.273  1.00  0.00    -0.155 C  
HETATM   13  C   UNL     1     -10.432   8.088  67.135  1.00  0.00    -0.338 C  
HETATM   14  C   UNL     1      -9.379   7.717  68.111  1.00  0.00    -0.146 C  
HETATM   15  C   UNL     1      -7.976   8.000  67.786  1.00  0.00    -0.127 C  
HETATM   16  O   UNL     1      -7.612   8.495  66.728  1.00  0.00    -0.088 OA 
HETATM   17  N   UNL     1      -7.062   7.660  68.748  1.00  0.00    -0.078 N  
HETATM   18  F   UNL     1     -10.003   8.598  65.957  1.00  0.00    -0.331 F  
HETATM   19  F   UNL     1     -11.203   7.011  66.819  1.00  0.00    -0.458 F  
HETATM   20  F   UNL     1     -11.282   9.011  67.664  1.00  0.00    -0.202 F  
HETATM   21  C   UNL     1      -7.317   6.979  69.907  1.00  0.00    -0.085 C  
HETATM   22  H   UNL     1      -6.096   7.944  68.584  1.00  0.00     0.000 HD 
HETATM   23  O   UNL     1      -6.391   6.628  70.635  1.00  0.00    -0.038 OA 
ENDBRANCH   6  11
ENDBRANCH   3   4
TORSDOF 2
ENDMDL
MODEL      216
REMARK 921   NORMALIZED FREE ENERGY PREDICTED BY IDOCK:   -3.30 KCAL/MOL
REMARK 922        TOTAL FREE ENERGY PREDICTED BY IDOCK:   -4.12 KCAL/MOL
REMARK 923 INTER-LIGAND FREE ENERGY PREDICTED BY IDOCK:   -3.59 KCAL/MOL
REMARK 924 INTRA-LIGAND FREE ENERGY PREDICTED BY IDOCK:   -0.54 KCAL/MOL
REMARK 927      BINDING AFFINITY PREDICTED BY RF-SCORE:    0.00 PKD
ROOT
HETATM    1  O5* UNL     1     -10.164  10.535  70.158  1.00  0.00    -0.433 OA 
HETATM    2  H5* UNL     1     -10.824  11.171  69.908  1.00  0.00     0.000 HD 
HETATM    3  C5* UNL     1     -10.715   9.503  70.975  1.00  0.00    -0.340 C  
ENDROOT
BRANCH   3   4
HETATM    4  C4* UNL     1      -9.653   8.480  71.376  1.00  0.00    -0.215 C  
HETATM    5  O4* UNL     1     -10.020   7.155  70.953  1.00  0.00    -0.189 OA 
HETATM    6  C1* UNL     1      -8.795   6.405  70.943  1.00  0.00    -0.136 C  
HETATM    7  C2* UNL     1      -7.718   7.374  70.461  1.00  0.00    -0.096 C  
HETATM    8  H3* UNL     1      -6.600   9.617  71.314  1.00  0.00     0.000 HD 
HETATM    9  O3* UNL     1      -7.455   9.450  71.693  1.00  0.00    -0.323 OA 
HETATM   10  C3* UNL     1      -8.279   8.749  70.766  1.00  0.00    -0.156 C  
BRANCH   6  11
HETATM   11  N   UNL     1      -8.912   5.182  70.150  1.00  0.00    -0.117 N  
HETATM   12  C   UNL     1      -8.961   5.210  68.767  1.00  0.00    -0.101 C  
HETATM   13  C   UNL     1      -9.291   4.154  66.543  1.00  0.00    -0.174 C  
HETATM   14  C   UNL     1      -9.196   4.118  68.023  1.00  0.00    -0.191 C  
HETATM   15  C   UNL     1      -9.399   2.843  68.718  1.00  0.00    -0.168 C  
HETATM   16  O   UNL     1      -9.686   1.798  68.148  1.00  0.00    -0.168 OA 
HETATM   17  N   UNL     1      -9.264   2.878  70.080  1.00  0.00    -0.124 N  
HETATM   18  F   UNL     1      -9.647   2.997  65.938  1.00  0.00    -0.144 F  
HETATM   19  F   UNL     1     -10.199   5.085  66.138  1.00  0.00    -0.189 F  
HETATM   20  F   UNL     1      -8.105   4.527  65.989  1.00  0.00    -0.099 F  
HETATM   21  C   UNL     1      -9.084   3.995  70.850  1.00  0.00    -0.113 C  
HETATM   22  H   UNL     1      -9.299   1.984  70.569  1.00  0.00     0.000 HD 
HETATM   23  O   UNL     1      -9.096   3.910  72.077  1.00  0.00    -0.110 OA 
ENDBRANCH   6  11
ENDBRANCH   3   4
TORSDOF 2
ENDMDL
MODEL      217
REMARK 921   NORMALIZED FREE ENERGY PREDICTED BY IDOCK:   -3.27 KCAL/MOL
REMARK 922        TOTAL FREE ENERGY PREDICTED BY IDOCK:   -4.09 KCAL/MOL
REMARK 923 INTER-LIGAND FREE ENERGY PREDICTED BY IDOCK:   -4.19 KCAL/MOL
REMARK 924 INTRA-LIGAND FREE ENERGY PREDICTED BY IDOCK:    0.10 KCAL/MOL
REMARK 927      BINDING AFFINITY PREDICTED BY RF-SCORE:    0.00 PKD
ROOT
HETATM    1  O5* UNL     1      -9.447   8.292  72.652  1.00  0.00    -0.248 OA 
HETATM    2  H5* UNL     1      -9.034   8.939  73.211  1.00  0.00     0.000 HD 
HETATM    3  C5* UNL     1     -10.472   8.873  71.848  1.00  0.00    -0.345 C  
ENDROOT
BRANCH   3   4
HETATM    4  C4* UNL     1     -11.137   7.832  70.948  1.00  0.00    -0.259 C  
HETATM    5  O4* UNL     1     -10.677   7.947  69.590  1.00  0.00    -0.244 OA 
HETATM    6  C1* UNL     1     -10.973   6.682  68.979  1.00  0.00    -0.279 C  
HETATM    7  C2* UNL     1     -10.726   5.631  70.058  1.00  0.00    -0.390 C  
HETATM    8  H3* UNL     1     -11.750   4.987  72.413  1.00  0.00     0.000 HD 
HETATM    9  O3* UNL     1     -11.926   5.884  72.154  1.00  0.00    -0.274 OA 
HETATM   10  C3* UNL     1     -10.854   6.391  71.365  1.00  0.00    -0.253 C  
BRANCH   6  11
HETATM   11  N   UNL     1     -10.209   6.481  67.749  1.00  0.00    -0.150 N  
HETATM   12  C   UNL     1      -9.537   5.298  67.490  1.00  0.00    -0.134 C  
HETATM   13  C   UNL     1      -7.974   3.882  66.178  1.00  0.00    -0.094 C  
HETATM   14  C   UNL     1      -8.728   5.134  66.432  1.00  0.00    -0.113 C  
HETATM   15  C   UNL     1      -8.562   6.264  65.512  1.00  0.00    -0.119 C  
HETATM   16  O   UNL     1      -7.799   6.252  64.554  1.00  0.00    -0.104 OA 
HETATM   17  N   UNL     1      -9.313   7.374  65.790  1.00  0.00    -0.389 N  
HETATM   18  F   UNL     1      -7.109   3.906  65.137  1.00  0.00    -0.059 F  
HETATM   19  F   UNL     1      -7.240   3.528  67.269  1.00  0.00    -0.056 F  
HETATM   20  F   UNL     1      -8.823   2.843  65.947  1.00  0.00    -0.117 F  
HETATM   21  C   UNL     1     -10.094   7.571  66.897  1.00  0.00    -0.266 C  
HETATM   22  H   UNL     1      -9.289   8.130  65.104  1.00  0.00     0.000 HD 
HETATM   23  O   UNL     1     -10.627   8.662  67.092  1.00  0.00    -0.294 OA 
ENDBRANCH   6  11
ENDBRANCH   3   4
TORSDOF 2
ENDMDL
MODEL      218
REMARK 921   NORMALIZED FREE ENERGY PREDICTED BY IDOCK:   -3.26 KCAL/MOL
REMARK 922        TOTAL FREE ENERGY PREDICTED BY IDOCK:   -4.07 KCAL/MOL
REMARK 923 INTER-LIGAND FREE ENERGY PREDICTED BY IDOCK:   -4.15 KCAL/MOL
REMARK 924 INTRA-LIGAND FREE ENERGY PREDICTED BY IDOCK:    0.07 KCAL/MOL
REMARK 927      BINDING AFFINITY PREDICTED BY RF-SCORE:    0.00 PKD
ROOT
HETATM    1  O5* UNL     1      -9.398   8.459  66.009  1.00  0.00    -0.261 OA 
HETATM    2  H5* UNL     1      -9.134   7.580  66.254  1.00  0.00     0.000 HD 
HETATM    3  C5* UNL     1     -10.284   9.027  66.973  1.00  0.00    -0.266 C  
ENDROOT
BRANCH   3   4
HETATM    4  C4* UNL     1     -10.708  10.441  66.579  1.00  0.00    -0.092 C  
HETATM    5  O4* UNL     1     -10.374  11.391  67.607  1.00  0.00    -0.177 OA 
HETATM    6  C1* UNL     1     -10.368  12.670  66.956  1.00  0.00    -0.232 C  
HETATM    7  C2* UNL     1      -9.795  12.425  65.562  1.00  0.00    -0.215 C  
HETATM    8  H3* UNL     1     -10.479  11.073  63.391  1.00  0.00     0.000 HD 
HETATM    9  O3* UNL     1     -10.895  10.756  64.184  1.00  0.00    -0.207 OA 
HETATM   10  C3* UNL     1     -10.038  10.951  65.305  1.00  0.00    -0.280 C  
BRANCH   6  11
HETATM   11  N   UNL     1      -9.651  13.675  67.739  1.00  0.00    -0.217 N  
HETATM   12  C   UNL     1     -10.198  14.918  68.011  1.00  0.00    -0.228 C  
HETATM   13  C   UNL     1     -10.085  17.246  68.870  1.00  0.00    -0.331 C  
HETATM   14  C   UNL     1      -9.514  15.900  68.617  1.00  0.00    -0.214 C  
HETATM   15  C   UNL     1      -8.127  15.631  69.011  1.00  0.00    -0.222 C  
HETATM   16  O   UNL     1      -7.388  16.471  69.508  1.00  0.00    -0.190 OA 
HETATM   17  N   UNL     1      -7.678  14.359  68.777  1.00  0.00    -0.137 N  
HETATM   18  F   UNL     1      -9.239  18.168  69.384  1.00  0.00    -0.065 F  
HETATM   19  F   UNL     1     -10.579  17.787  67.722  1.00  0.00    -0.349 F  
HETATM   20  F   UNL     1     -11.139  17.172  69.729  1.00  0.00    -0.176 F  
HETATM   21  C   UNL     1      -8.347  13.371  68.108  1.00  0.00    -0.164 C  
HETATM   22  H   UNL     1      -6.753  14.124  69.139  1.00  0.00     0.000 HD 
HETATM   23  O   UNL     1      -7.788  12.304  67.857  1.00  0.00    -0.124 OA 
ENDBRANCH   6  11
ENDBRANCH   3   4
TORSDOF 2
ENDMDL
MODEL      219
REMARK 921   NORMALIZED FREE ENERGY PREDICTED BY IDOCK:   -3.23 KCAL/MOL
REMARK 922        TOTAL FREE ENERGY PREDICTED BY IDOCK:   -4.04 KCAL/MOL
REMARK 923 INTER-LIGAND FREE ENERGY PREDICTED BY IDOCK:   -4.74 KCAL/MOL
REMARK 924 INTRA-LIGAND FREE ENERGY PREDICTED BY IDOCK:    0.70 KCAL/MOL
REMARK 927      BINDING AFFINITY PREDICTED BY RF-SCORE:    0.00 PKD
ROOT
HETATM    1  O5* UNL     1      -7.688   3.416  68.611  1.00  0.00    -0.055 OA 
HETATM    2  H5* UNL     1      -7.742   2.809  67.882  1.00  0.00     0.000 HD 
HETATM    3  C5* UNL     1      -8.239   4.688  68.274  1.00  0.00    -0.090 C  
ENDROOT
BRANCH   3   4
HETATM    4  C4* UNL     1      -8.153   5.664  69.447  1.00  0.00    -0.100 C  
HETATM    5  O4* UNL     1      -9.311   6.516  69.502  1.00  0.00    -0.147 OA 
HETATM    6  C1* UNL     1      -9.351   7.018  70.847  1.00  0.00    -0.157 C  
HETATM    7  C2* UNL     1      -8.882   5.868  71.735  1.00  0.00    -0.139 C  
HETATM    8  H3* UNL     1      -6.666   4.464  72.086  1.00  0.00     0.000 HD 
HETATM    9  O3* UNL     1      -6.716   4.889  71.238  1.00  0.00    -0.036 OA 
HETATM   10  C3* UNL     1      -8.072   4.981  70.810  1.00  0.00    -0.095 C  
BRANCH   6  11
HETATM   11  N   UNL     1     -10.668   7.553  71.189  1.00  0.00    -0.226 N  
HETATM   12  C   UNL     1     -11.075   8.811  70.781  1.00  0.00    -0.260 C  
HETATM   13  C   UNL     1     -12.641  10.740  70.783  1.00  0.00    -0.383 C  
HETATM   14  C   UNL     1     -12.224   9.374  71.186  1.00  0.00    -0.402 C  
HETATM   15  C   UNL     1     -13.083   8.607  72.095  1.00  0.00    -0.383 C  
HETATM   16  O   UNL     1     -14.117   9.045  72.582  1.00  0.00    -0.516 OA 
HETATM   17  N   UNL     1     -12.652   7.343  72.397  1.00  0.00    -0.506 N  
HETATM   18  F   UNL     1     -13.767  11.216  71.363  1.00  0.00    -0.154 F  
HETATM   19  F   UNL     1     -11.663  11.646  71.060  1.00  0.00    -0.307 F  
HETATM   20  F   UNL     1     -12.843  10.810  69.439  1.00  0.00    -0.257 F  
HETATM   21  C   UNL     1     -11.455   6.785  72.037  1.00  0.00    -0.282 C  
HETATM   22  H   UNL     1     -13.286   6.759  72.943  1.00  0.00     0.000 HD 
HETATM   23  O   UNL     1     -11.132   5.681  72.471  1.00  0.00    -0.247 OA 
ENDBRANCH   6  11
ENDBRANCH   3   4
TORSDOF 2
ENDMDL
MODEL      220
REMARK 921   NORMALIZED FREE ENERGY PREDICTED BY IDOCK:   -3.19 KCAL/MOL
REMARK 922        TOTAL FREE ENERGY PREDICTED BY IDOCK:   -4.00 KCAL/MOL
REMARK 923 INTER-LIGAND FREE ENERGY PREDICTED BY IDOCK:   -4.15 KCAL/MOL
REMARK 924 INTRA-LIGAND FREE ENERGY PREDICTED BY IDOCK:    0.15 KCAL/MOL
REMARK 927      BINDING AFFINITY PREDICTED BY RF-SCORE:    0.00 PKD
ROOT
HETATM    1  O5* UNL     1      -8.718   8.065  70.852  1.00  0.00    -0.131 OA 
HETATM    2  H5* UNL     1      -8.446   7.729  71.698  1.00  0.00     0.000 HD 
HETATM    3  C5* UNL     1     -10.074   7.725  70.566  1.00  0.00    -0.192 C  
ENDROOT
BRANCH   3   4
HETATM    4  C4* UNL     1     -10.511   8.266  69.205  1.00  0.00    -0.210 C  
HETATM    5  O4* UNL     1     -11.035   9.601  69.318  1.00  0.00    -0.224 OA 
HETATM    6  C1* UNL     1     -10.954  10.155  67.996  1.00  0.00    -0.270 C  
HETATM    7  C2* UNL     1      -9.663   9.609  67.394  1.00  0.00    -0.198 C  
HETATM    8  H3* UNL     1      -8.688   7.246  66.705  1.00  0.00     0.000 HD 
HETATM    9  O3* UNL     1      -9.392   7.196  67.341  1.00  0.00    -0.124 OA 
HETATM   10  C3* UNL     1      -9.380   8.345  68.183  1.00  0.00    -0.133 C  
BRANCH   6  11
HETATM   11  N   UNL     1     -11.048  11.614  68.012  1.00  0.00    -0.224 N  
HETATM   12  C   UNL     1     -10.203  12.410  67.258  1.00  0.00    -0.215 C  
HETATM   13  C   UNL     1      -9.248  14.599  66.575  1.00  0.00    -0.266 C  
HETATM   14  C   UNL     1     -10.183  13.748  67.351  1.00  0.00    -0.252 C  
HETATM   15  C   UNL     1     -11.111  14.386  68.292  1.00  0.00    -0.259 C  
HETATM   16  O   UNL     1     -11.135  15.591  68.509  1.00  0.00    -0.273 OA 
HETATM   17  N   UNL     1     -11.967  13.543  68.948  1.00  0.00    -0.349 N  
HETATM   18  F   UNL     1      -9.267  15.922  66.859  1.00  0.00    -0.205 F  
HETATM   19  F   UNL     1      -7.961  14.193  66.755  1.00  0.00    -0.138 F  
HETATM   20  F   UNL     1      -9.488  14.491  65.239  1.00  0.00    -0.259 F  
HETATM   21  C   UNL     1     -11.953  12.175  68.904  1.00  0.00    -0.242 C  
HETATM   22  H   UNL     1     -12.686  13.977  69.527  1.00  0.00     0.000 HD 
HETATM   23  O   UNL     1     -12.699  11.524  69.634  1.00  0.00     0.016 OA 
ENDBRANCH   6  11
ENDBRANCH   3   4
TORSDOF 2
ENDMDL
MODEL      221
REMARK 921   NORMALIZED FREE ENERGY PREDICTED BY IDOCK:   -3.19 KCAL/MOL
REMARK 922        TOTAL FREE ENERGY PREDICTED BY IDOCK:   -3.99 KCAL/MOL
REMARK 923 INTER-LIGAND FREE ENERGY PREDICTED BY IDOCK:   -3.64 KCAL/MOL
REMARK 924 INTRA-LIGAND FREE ENERGY PREDICTED BY IDOCK:   -0.35 KCAL/MOL
REMARK 927      BINDING AFFINITY PREDICTED BY RF-SCORE:    0.00 PKD
ROOT
HETATM    1  O5* UNL     1     -13.421   8.107  71.548  1.00  0.00    -0.388 OA 
HETATM    2  H5* UNL     1     -14.308   8.419  71.687  1.00  0.00     0.000 HD 
HETATM    3  C5* UNL     1     -12.636   9.062  70.835  1.00  0.00    -0.030 C  
ENDROOT
BRANCH   3   4
HETATM    4  C4* UNL     1     -11.211   8.560  70.611  1.00  0.00    -0.252 C  
HETATM    5  O4* UNL     1     -10.797   8.755  69.247  1.00  0.00    -0.187 OA 
HETATM    6  C1* UNL     1      -9.362   8.708  69.274  1.00  0.00    -0.153 C  
HETATM    7  C2* UNL     1      -8.947   9.386  70.576  1.00  0.00    -0.303 C  
HETATM    8  H3* UNL     1      -9.232   8.947  73.171  1.00  0.00     0.000 HD 
HETATM    9  O3* UNL     1      -9.882   8.505  72.637  1.00  0.00    -0.281 OA 
HETATM   10  C3* UNL     1     -10.167   9.270  71.470  1.00  0.00    -0.268 C  
BRANCH   6  11
HETATM   11  N   UNL     1      -8.777   9.295  68.069  1.00  0.00    -0.125 N  
HETATM   12  C   UNL     1      -9.458  10.228  67.306  1.00  0.00    -0.150 C  
HETATM   13  C   UNL     1      -9.747  11.652  65.291  1.00  0.00    -0.229 C  
HETATM   14  C   UNL     1      -8.998  10.686  66.131  1.00  0.00    -0.184 C  
HETATM   15  C   UNL     1      -7.710  10.174  65.650  1.00  0.00    -0.143 C  
HETATM   16  O   UNL     1      -7.226  10.469  64.565  1.00  0.00    -0.054 OA 
HETATM   17  N   UNL     1      -7.059   9.312  66.492  1.00  0.00    -0.084 N  
HETATM   18  F   UNL     1      -9.211  11.933  64.081  1.00  0.00    -0.050 F  
HETATM   19  F   UNL     1     -11.011  11.206  65.050  1.00  0.00    -0.340 F  
HETATM   20  F   UNL     1      -9.890  12.844  65.933  1.00  0.00    -0.258 F  
HETATM   21  C   UNL     1      -7.548   8.794  67.661  1.00  0.00    -0.097 C  
HETATM   22  H   UNL     1      -6.118   9.028  66.221  1.00  0.00     0.000 HD 
HETATM   23  O   UNL     1      -6.914   7.934  68.269  1.00  0.00    -0.069 OA 
ENDBRANCH   6  11
ENDBRANCH   3   4
TORSDOF 2
ENDMDL
MODEL      222
REMARK 921   NORMALIZED FREE ENERGY PREDICTED BY IDOCK:   -3.19 KCAL/MOL
REMARK 922        TOTAL FREE ENERGY PREDICTED BY IDOCK:   -3.99 KCAL/MOL
REMARK 923 INTER-LIGAND FREE ENERGY PREDICTED BY IDOCK:   -3.55 KCAL/MOL
REMARK 924 INTRA-LIGAND FREE ENERGY PREDICTED BY IDOCK:   -0.44 KCAL/MOL
REMARK 927      BINDING AFFINITY PREDICTED BY RF-SCORE:    0.00 PKD
ROOT
HETATM    1  O5* UNL     1      -6.913  11.550  68.629  1.00  0.00    -0.075 OA 
HETATM    2  H5* UNL     1      -6.381  11.872  69.348  1.00  0.00     0.000 HD 
HETATM    3  C5* UNL     1      -7.647  12.604  68.008  1.00  0.00    -0.132 C  
ENDROOT
BRANCH   3   4
HETATM    4  C4* UNL     1      -8.501  12.085  66.852  1.00  0.00    -0.172 C  
HETATM    5  O4* UNL     1      -8.142  10.736  66.503  1.00  0.00    -0.134 OA 
HETATM    6  C1* UNL     1      -9.273  10.214  65.787  1.00  0.00    -0.178 C  
HETATM    7  C2* UNL     1     -10.505  10.803  66.469  1.00  0.00    -0.299 C  
HETATM    8  H3* UNL     1     -11.562  13.202  66.836  1.00  0.00     0.000 HD 
HETATM    9  O3* UNL     1     -10.632  13.221  66.646  1.00  0.00    -0.277 OA 
HETATM   10  C3* UNL     1      -9.996  12.054  67.159  1.00  0.00    -0.195 C  
BRANCH   6  11
HETATM   11  N   UNL     1      -9.250   8.754  65.726  1.00  0.00    -0.219 N  
HETATM   12  C   UNL     1      -9.718   7.972  66.769  1.00  0.00    -0.237 C  
HETATM   13  C   UNL     1     -10.055   5.801  67.928  1.00  0.00    -0.162 C  
HETATM   14  C   UNL     1      -9.593   6.636  66.793  1.00  0.00    -0.207 C  
HETATM   15  C   UNL     1      -8.936   5.986  65.653  1.00  0.00    -0.064 C  
HETATM   16  O   UNL     1      -8.707   4.785  65.597  1.00  0.00    -0.123 OA 
HETATM   17  N   UNL     1      -8.566   6.814  64.627  1.00  0.00    -0.344 N  
HETATM   18  F   UNL     1      -9.756   4.483  67.862  1.00  0.00    -0.175 F  
HETATM   19  F   UNL     1      -9.529   6.247  69.103  1.00  0.00    -0.132 F  
HETATM   20  F   UNL     1     -11.406   5.881  68.072  1.00  0.00    -0.332 F  
HETATM   21  C   UNL     1      -8.636   8.181  64.621  1.00  0.00     0.062 C  
HETATM   22  H   UNL     1      -8.203   6.368  63.784  1.00  0.00     0.000 HD 
HETATM   23  O   UNL     1      -8.160   8.821  63.684  1.00  0.00    -0.155 OA 
ENDBRANCH   6  11
ENDBRANCH   3   4
TORSDOF 2
ENDMDL
MODEL      223
REMARK 921   NORMALIZED FREE ENERGY PREDICTED BY IDOCK:   -3.10 KCAL/MOL
REMARK 922        TOTAL FREE ENERGY PREDICTED BY IDOCK:   -3.89 KCAL/MOL
REMARK 923 INTER-LIGAND FREE ENERGY PREDICTED BY IDOCK:   -3.92 KCAL/MOL
REMARK 924 INTRA-LIGAND FREE ENERGY PREDICTED BY IDOCK:    0.03 KCAL/MOL
REMARK 927      BINDING AFFINITY PREDICTED BY RF-SCORE:    0.00 PKD
ROOT
HETATM    1  O5* UNL     1     -11.497   7.966  72.885  1.00  0.00    -0.493 OA 
HETATM    2  H5* UNL     1     -11.512   8.284  73.780  1.00  0.00     0.000 HD 
HETATM    3  C5* UNL     1     -11.522   9.041  71.947  1.00  0.00    -0.370 C  
ENDROOT
BRANCH   3   4
HETATM    4  C4* UNL     1     -11.498   8.528  70.507  1.00  0.00    -0.182 C  
HETATM    5  O4* UNL     1     -10.807   9.444  69.639  1.00  0.00    -0.235 OA 
HETATM    6  C1* UNL     1     -10.438   8.672  68.486  1.00  0.00    -0.172 C  
HETATM    7  C2* UNL     1     -10.072   7.287  69.014  1.00  0.00    -0.186 C  
HETATM    8  H3* UNL     1     -11.301   5.287  70.237  1.00  0.00     0.000 HD 
HETATM    9  O3* UNL     1     -11.741   6.123  70.339  1.00  0.00    -0.298 OA 
HETATM   10  C3* UNL     1     -10.791   7.185  70.345  1.00  0.00    -0.246 C  
BRANCH   6  11
HETATM   11  N   UNL     1      -9.384   9.325  67.710  1.00  0.00    -0.129 N  
HETATM   12  C   UNL     1      -9.453   9.433  66.332  1.00  0.00    -0.201 C  
HETATM   13  C   UNL     1      -8.500   9.988  64.105  1.00  0.00    -0.176 C  
HETATM   14  C   UNL     1      -8.445   9.911  65.586  1.00  0.00    -0.152 C  
HETATM   15  C   UNL     1      -7.224  10.344  66.275  1.00  0.00    -0.127 C  
HETATM   16  O   UNL     1      -6.219  10.733  65.695  1.00  0.00    -0.129 OA 
HETATM   17  N   UNL     1      -7.257  10.277  67.643  1.00  0.00    -0.086 N  
HETATM   18  F   UNL     1      -7.365  10.384  63.484  1.00  0.00    -0.143 F  
HETATM   19  F   UNL     1      -8.820   8.777  63.569  1.00  0.00    -0.166 F  
HETATM   20  F   UNL     1      -9.478  10.844  63.699  1.00  0.00    -0.209 F  
HETATM   21  C   UNL     1      -8.255   9.735  68.406  1.00  0.00    -0.105 C  
HETATM   22  H   UNL     1      -6.458  10.670  68.141  1.00  0.00     0.000 HD 
HETATM   23  O   UNL     1      -8.114   9.626  69.623  1.00  0.00    -0.110 OA 
ENDBRANCH   6  11
ENDBRANCH   3   4
TORSDOF 2
ENDMDL
MODEL      224
REMARK 921   NORMALIZED FREE ENERGY PREDICTED BY IDOCK:   -3.07 KCAL/MOL
REMARK 922        TOTAL FREE ENERGY PREDICTED BY IDOCK:   -3.86 KCAL/MOL
REMARK 923 INTER-LIGAND FREE ENERGY PREDICTED BY IDOCK:   -3.55 KCAL/MOL
REMARK 924 INTRA-LIGAND FREE ENERGY PREDICTED BY IDOCK:   -0.31 KCAL/MOL
REMARK 927      BINDING AFFINITY PREDICTED BY RF-SCORE:    0.00 PKD
ROOT
HETATM    1  O5* UNL     1      -5.651   8.179  71.917  1.00  0.00    -0.035 OA 
HETATM    2  H5* UNL     1      -4.905   8.763  71.864  1.00  0.00     0.000 HD 
HETATM    3  C5* UNL     1      -6.425   8.423  73.091  1.00  0.00    -0.099 C  
ENDROOT
BRANCH   3   4
HETATM    4  C4* UNL     1      -7.626   7.482  73.176  1.00  0.00    -0.096 C  
HETATM    5  O4* UNL     1      -8.508   7.660  72.054  1.00  0.00    -0.104 OA 
HETATM    6  C1* UNL     1      -9.288   6.456  71.987  1.00  0.00    -0.151 C  
HETATM    7  C2* UNL     1      -8.340   5.324  72.376  1.00  0.00    -0.118 C  
HETATM    8  H3* UNL     1      -6.972   4.586  74.519  1.00  0.00     0.000 HD 
HETATM    9  O3* UNL     1      -7.206   5.506  74.516  1.00  0.00    -0.081 OA 
HETATM   10  C3* UNL     1      -7.248   6.003  73.181  1.00  0.00    -0.085 C  
BRANCH   6  11
HETATM   11  N   UNL     1      -9.926   6.293  70.682  1.00  0.00    -0.184 N  
HETATM   12  C   UNL     1      -9.479   5.361  69.761  1.00  0.00    -0.151 C  
HETATM   13  C   UNL     1      -9.456   4.308  67.511  1.00  0.00    -0.178 C  
HETATM   14  C   UNL     1      -9.963   5.278  68.512  1.00  0.00    -0.227 C  
HETATM   15  C   UNL     1     -11.019   6.218  68.120  1.00  0.00    -0.323 C  
HETATM   16  O   UNL     1     -11.487   6.280  66.990  1.00  0.00    -0.143 OA 
HETATM   17  N   UNL     1     -11.462   7.061  69.104  1.00  0.00    -0.522 N  
HETATM   18  F   UNL     1      -9.960   4.421  66.260  1.00  0.00    -0.177 F  
HETATM   19  F   UNL     1      -8.104   4.408  67.382  1.00  0.00    -0.097 F  
HETATM   20  F   UNL     1      -9.698   3.029  67.908  1.00  0.00    -0.256 F  
HETATM   21  C   UNL     1     -10.934   7.192  70.360  1.00  0.00    -0.265 C  
HETATM   22  H   UNL     1     -12.265   7.649  68.879  1.00  0.00     0.000 HD 
HETATM   23  O   UNL     1     -11.344   8.072  71.115  1.00  0.00    -0.257 OA 
ENDBRANCH   6  11
ENDBRANCH   3   4
TORSDOF 2
ENDMDL
MODEL      225
REMARK 921   NORMALIZED FREE ENERGY PREDICTED BY IDOCK:   -3.06 KCAL/MOL
REMARK 922        TOTAL FREE ENERGY PREDICTED BY IDOCK:   -3.85 KCAL/MOL
REMARK 923 INTER-LIGAND FREE ENERGY PREDICTED BY IDOCK:   -3.97 KCAL/MOL
REMARK 924 INTRA-LIGAND FREE ENERGY PREDICTED BY IDOCK:    0.13 KCAL/MOL
REMARK 927      BINDING AFFINITY PREDICTED BY RF-SCORE:    0.00 PKD
ROOT
HETATM    1  O5* UNL     1     -11.034  14.789  66.512  1.00  0.00    -0.314 OA 
HETATM    2  H5* UNL     1     -11.004  15.730  66.633  1.00  0.00     0.000 HD 
HETATM    3  C5* UNL     1      -9.731  14.210  66.579  1.00  0.00    -0.295 C  
ENDROOT
BRANCH   3   4
HETATM    4  C4* UNL     1      -9.780  12.696  66.385  1.00  0.00    -0.258 C  
HETATM    5  O4* UNL     1      -9.186  12.008  67.500  1.00  0.00    -0.171 OA 
HETATM    6  C1* UNL     1      -9.704  10.670  67.442  1.00  0.00    -0.167 C  
HETATM    7  C2* UNL     1     -11.151  10.803  66.974  1.00  0.00    -0.245 C  
HETATM    8  H3* UNL     1     -12.422  11.628  64.803  1.00  0.00     0.000 HD 
HETATM    9  O3* UNL     1     -11.541  11.975  64.883  1.00  0.00    -0.322 OA 
HETATM   10  C3* UNL     1     -11.196  12.138  66.256  1.00  0.00    -0.334 C  
BRANCH   6  11
HETATM   11  N   UNL     1      -9.539   9.968  68.714  1.00  0.00    -0.162 N  
HETATM   12  C   UNL     1      -8.771   8.822  68.823  1.00  0.00    -0.137 C  
HETATM   13  C   UNL     1      -7.917   6.837  70.049  1.00  0.00    -0.116 C  
HETATM   14  C   UNL     1      -8.706   8.089  69.945  1.00  0.00    -0.139 C  
HETATM   15  C   UNL     1      -9.483   8.539  71.106  1.00  0.00    -0.195 C  
HETATM   16  O   UNL     1      -9.553   7.916  72.157  1.00  0.00    -0.170 OA 
HETATM   17  N   UNL     1     -10.159   9.719  70.948  1.00  0.00    -0.331 N  
HETATM   18  F   UNL     1      -8.040   6.147  71.207  1.00  0.00    -0.109 F  
HETATM   19  F   UNL     1      -8.252   5.969  69.055  1.00  0.00    -0.102 F  
HETATM   20  F   UNL     1      -6.588   7.087  69.892  1.00  0.00    -0.039 F  
HETATM   21  C   UNL     1     -10.279  10.439  69.791  1.00  0.00    -0.184 C  
HETATM   22  H   UNL     1     -10.620  10.099  71.776  1.00  0.00     0.000 HD 
HETATM   23  O   UNL     1     -11.015  11.423  69.748  1.00  0.00    -0.181 OA 
ENDBRANCH   6  11
ENDBRANCH   3   4
TORSDOF 2
ENDMDL
MODEL      226
REMARK 921   NORMALIZED FREE ENERGY PREDICTED BY IDOCK:   -3.04 KCAL/MOL
REMARK 922        TOTAL FREE ENERGY PREDICTED BY IDOCK:   -3.82 KCAL/MOL
REMARK 923 INTER-LIGAND FREE ENERGY PREDICTED BY IDOCK:   -3.94 KCAL/MOL
REMARK 924 INTRA-LIGAND FREE ENERGY PREDICTED BY IDOCK:    0.12 KCAL/MOL
REMARK 927      BINDING AFFINITY PREDICTED BY RF-SCORE:    0.00 PKD
ROOT
HETATM    1  O5* UNL     1      -8.216  12.191  65.882  1.00  0.00    -0.208 OA 
HETATM    2  H5* UNL     1      -7.879  13.076  65.810  1.00  0.00     0.000 HD 
HETATM    3  C5* UNL     1      -8.076  11.684  67.209  1.00  0.00    -0.160 C  
ENDROOT
BRANCH   3   4
HETATM    4  C4* UNL     1      -8.618  10.260  67.324  1.00  0.00    -0.125 C  
HETATM    5  O4* UNL     1      -8.440   9.741  68.654  1.00  0.00    -0.111 OA 
HETATM    6  C1* UNL     1      -9.375   8.657  68.768  1.00  0.00    -0.142 C  
HETATM    7  C2* UNL     1     -10.618   9.096  67.998  1.00  0.00    -0.253 C  
HETATM    8  H3* UNL     1     -11.247   9.671  65.491  1.00  0.00     0.000 HD 
HETATM    9  O3* UNL     1     -10.318   9.742  65.676  1.00  0.00    -0.199 OA 
HETATM   10  C3* UNL     1     -10.111  10.145  67.027  1.00  0.00    -0.223 C  
BRANCH   6  11
HETATM   11  N   UNL     1      -9.621   8.296  70.164  1.00  0.00    -0.167 N  
HETATM   12  C   UNL     1      -9.299   7.046  70.663  1.00  0.00    -0.162 C  
HETATM   13  C   UNL     1      -9.323   5.292  72.422  1.00  0.00    -0.140 C  
HETATM   14  C   UNL     1      -9.629   6.647  71.901  1.00  0.00    -0.152 C  
HETATM   15  C   UNL     1     -10.356   7.590  72.757  1.00  0.00    -0.278 C  
HETATM   16  O   UNL     1     -10.767   7.313  73.876  1.00  0.00    -0.318 OA 
HETATM   17  N   UNL     1     -10.575   8.832  72.223  1.00  0.00    -0.313 N  
HETATM   18  F   UNL     1      -9.820   4.996  73.646  1.00  0.00    -0.142 F  
HETATM   19  F   UNL     1      -9.796   4.331  71.581  1.00  0.00    -0.210 F  
HETATM   20  F   UNL     1      -7.979   5.092  72.496  1.00  0.00    -0.095 F  
HETATM   21  C   UNL     1     -10.295   9.227  70.943  1.00  0.00    -0.296 C  
HETATM   22  H   UNL     1     -10.986   9.533  72.841  1.00  0.00     0.000 HD 
HETATM   23  O   UNL     1     -10.649  10.336  70.545  1.00  0.00    -0.251 OA 
ENDBRANCH   6  11
ENDBRANCH   3   4
TORSDOF 2
ENDMDL
MODEL      227
REMARK 921   NORMALIZED FREE ENERGY PREDICTED BY IDOCK:   -2.94 KCAL/MOL
REMARK 922        TOTAL FREE ENERGY PREDICTED BY IDOCK:   -3.72 KCAL/MOL
REMARK 923 INTER-LIGAND FREE ENERGY PREDICTED BY IDOCK:   -3.22 KCAL/MOL
REMARK 924 INTRA-LIGAND FREE ENERGY PREDICTED BY IDOCK:   -0.49 KCAL/MOL
REMARK 927      BINDING AFFINITY PREDICTED BY RF-SCORE:    0.00 PKD
ROOT
HETATM    1  O5* UNL     1     -10.626  15.427  64.954  1.00  0.00    -0.442 OA 
HETATM    2  H5* UNL     1     -10.619  15.727  64.052  1.00  0.00     0.000 HD 
HETATM    3  C5* UNL     1     -10.928  14.035  65.040  1.00  0.00    -0.375 C  
ENDROOT
BRANCH   3   4
HETATM    4  C4* UNL     1     -10.939  13.553  66.490  1.00  0.00    -0.291 C  
HETATM    5  O4* UNL     1     -10.798  12.123  66.565  1.00  0.00    -0.249 OA 
HETATM    6  C1* UNL     1     -10.349  11.854  67.903  1.00  0.00    -0.198 C  
HETATM    7  C2* UNL     1      -9.403  12.997  68.261  1.00  0.00    -0.199 C  
HETATM    8  H3* UNL     1      -9.564  15.617  68.602  1.00  0.00     0.000 HD 
HETATM    9  O3* UNL     1     -10.267  15.259  68.075  1.00  0.00    -0.227 OA 
HETATM   10  C3* UNL     1      -9.808  14.130  67.338  1.00  0.00    -0.239 C  
BRANCH   6  11
HETATM   11  N   UNL     1      -9.763  10.520  68.021  1.00  0.00    -0.146 N  
HETATM   12  C   UNL     1      -9.289   9.829  66.919  1.00  0.00    -0.149 C  
HETATM   13  C   UNL     1      -8.398   7.802  65.793  1.00  0.00    -0.137 C  
HETATM   14  C   UNL     1      -8.865   8.557  66.981  1.00  0.00    -0.144 C  
HETATM   15  C   UNL     1      -8.902   7.883  68.283  1.00  0.00    -0.129 C  
HETATM   16  O   UNL     1      -8.605   6.706  68.446  1.00  0.00    -0.124 OA 
HETATM   17  N   UNL     1      -9.313   8.651  69.340  1.00  0.00    -0.150 N  
HETATM   18  F   UNL     1      -8.111   6.494  65.990  1.00  0.00    -0.102 F  
HETATM   19  F   UNL     1      -9.328   7.838  64.799  1.00  0.00     0.399 F  
HETATM   20  F   UNL     1      -7.274   8.366  65.270  1.00  0.00    -0.076 F  
HETATM   21  C   UNL     1      -9.803   9.927  69.276  1.00  0.00    -0.207 C  
HETATM   22  H   UNL     1      -9.246   8.230  70.267  1.00  0.00     0.000 HD 
HETATM   23  O   UNL     1     -10.251  10.469  70.284  1.00  0.00    -0.039 OA 
ENDBRANCH   6  11
ENDBRANCH   3   4
TORSDOF 2
ENDMDL
MODEL      228
REMARK 921   NORMALIZED FREE ENERGY PREDICTED BY IDOCK:   -2.92 KCAL/MOL
REMARK 922        TOTAL FREE ENERGY PREDICTED BY IDOCK:   -3.69 KCAL/MOL
REMARK 923 INTER-LIGAND FREE ENERGY PREDICTED BY IDOCK:   -3.57 KCAL/MOL
REMARK 924 INTRA-LIGAND FREE ENERGY PREDICTED BY IDOCK:   -0.12 KCAL/MOL
REMARK 927      BINDING AFFINITY PREDICTED BY RF-SCORE:    0.00 PKD
ROOT
HETATM    1  O5* UNL     1      -9.444   8.343  72.544  1.00  0.00    -0.267 OA 
HETATM    2  H5* UNL     1      -9.227   8.941  73.249  1.00  0.00     0.000 HD 
HETATM    3  C5* UNL     1     -10.474   8.870  71.708  1.00  0.00    -0.360 C  
ENDROOT
BRANCH   3   4
HETATM    4  C4* UNL     1     -10.822   7.908  70.574  1.00  0.00    -0.241 C  
HETATM    5  O4* UNL     1     -10.440   8.448  69.296  1.00  0.00    -0.220 OA 
HETATM    6  C1* UNL     1     -10.365   7.319  68.412  1.00  0.00    -0.185 C  
HETATM    7  C2* UNL     1      -9.804   6.172  69.249  1.00  0.00    -0.182 C  
HETATM    8  H3* UNL     1     -10.556   4.756  71.356  1.00  0.00     0.000 HD 
HETATM    9  O3* UNL     1     -10.990   5.598  71.289  1.00  0.00    -0.246 OA 
HETATM   10  C3* UNL     1     -10.125   6.554  70.681  1.00  0.00    -0.185 C  
BRANCH   6  11
HETATM   11  N   UNL     1      -9.597   7.623  67.206  1.00  0.00    -0.148 N  
HETATM   12  C   UNL     1      -9.010   8.860  67.006  1.00  0.00    -0.127 C  
HETATM   13  C   UNL     1      -7.818  10.548  65.626  1.00  0.00    -0.150 C  
HETATM   14  C   UNL     1      -8.410   9.207  65.856  1.00  0.00    -0.127 C  
HETATM   15  C   UNL     1      -8.374   8.218  64.774  1.00  0.00    -0.119 C  
HETATM   16  O   UNL     1      -7.915   8.446  63.662  1.00  0.00    -0.149 OA 
HETATM   17  N   UNL     1      -8.909   6.992  65.069  1.00  0.00    -0.342 N  
HETATM   18  F   UNL     1      -7.352  10.789  64.379  1.00  0.00    -0.020 F  
HETATM   19  F   UNL     1      -8.726  11.529  65.885  1.00  0.00    -0.195 F  
HETATM   20  F   UNL     1      -6.777  10.772  66.474  1.00  0.00    -0.091 F  
HETATM   21  C   UNL     1      -9.575   6.651  66.215  1.00  0.00    -0.039 C  
HETATM   22  H   UNL     1      -8.800   6.262  64.365  1.00  0.00     0.000 HD 
HETATM   23  O   UNL     1     -10.114   5.550  66.312  1.00  0.00    -0.174 OA 
ENDBRANCH   6  11
ENDBRANCH   3   4
TORSDOF 2
ENDMDL
MODEL      229
REMARK 921   NORMALIZED FREE ENERGY PREDICTED BY IDOCK:   -2.92 KCAL/MOL
REMARK 922        TOTAL FREE ENERGY PREDICTED BY IDOCK:   -3.69 KCAL/MOL
REMARK 923 INTER-LIGAND FREE ENERGY PREDICTED BY IDOCK:   -3.92 KCAL/MOL
REMARK 924 INTRA-LIGAND FREE ENERGY PREDICTED BY IDOCK:    0.23 KCAL/MOL
REMARK 927      BINDING AFFINITY PREDICTED BY RF-SCORE:    0.00 PKD
ROOT
HETATM    1  O5* UNL     1      -7.452   7.413  62.604  1.00  0.00    -0.089 OA 
HETATM    2  H5* UNL     1      -7.129   7.534  61.719  1.00  0.00     0.000 HD 
HETATM    3  C5* UNL     1      -6.492   6.749  63.425  1.00  0.00    -0.042 C  
ENDROOT
BRANCH   3   4
HETATM    4  C4* UNL     1      -7.011   6.555  64.849  1.00  0.00    -0.051 C  
HETATM    5  O4* UNL     1      -7.486   7.794  65.405  1.00  0.00    -0.074 OA 
HETATM    6  C1* UNL     1      -8.352   7.419  66.487  1.00  0.00    -0.124 C  
HETATM    7  C2* UNL     1      -9.079   6.161  66.021  1.00  0.00    -0.136 C  
HETATM    8  H3* UNL     1      -8.439   3.674  65.377  1.00  0.00     0.000 HD 
HETATM    9  O3* UNL     1      -7.712   4.282  65.315  1.00  0.00    -0.084 OA 
HETATM   10  C3* UNL     1      -8.179   5.577  64.949  1.00  0.00    -0.136 C  
BRANCH   6  11
HETATM   11  N   UNL     1      -9.232   8.518  66.884  1.00  0.00    -0.150 N  
HETATM   12  C   UNL     1      -9.686   8.658  68.184  1.00  0.00    -0.158 C  
HETATM   13  C   UNL     1     -11.111   9.702  69.930  1.00  0.00    -0.235 C  
HETATM   14  C   UNL     1     -10.592   9.579  68.546  1.00  0.00    -0.247 C  
HETATM   15  C   UNL     1     -11.111  10.478  67.509  1.00  0.00    -0.290 C  
HETATM   16  O   UNL     1     -11.988  11.309  67.708  1.00  0.00    -0.637 OA 
HETATM   17  N   UNL     1     -10.563  10.329  66.263  1.00  0.00    -0.133 N  
HETATM   18  F   UNL     1     -12.106  10.601  70.118  1.00  0.00    -0.311 F  
HETATM   19  F   UNL     1     -11.593   8.509  70.375  1.00  0.00    -0.270 F  
HETATM   20  F   UNL     1     -10.116  10.046  70.793  1.00  0.00    -0.318 F  
HETATM   21  C   UNL     1      -9.684   9.355  65.872  1.00  0.00    -0.285 C  
HETATM   22  H   UNL     1     -10.836  11.012  65.556  1.00  0.00     0.000 HD 
HETATM   23  O   UNL     1      -9.355   9.256  64.692  1.00  0.00    -0.153 OA 
ENDBRANCH   6  11
ENDBRANCH   3   4
TORSDOF 2
ENDMDL
MODEL      230
REMARK 921   NORMALIZED FREE ENERGY PREDICTED BY IDOCK:   -2.88 KCAL/MOL
REMARK 922        TOTAL FREE ENERGY PREDICTED BY IDOCK:   -3.65 KCAL/MOL
REMARK 923 INTER-LIGAND FREE ENERGY PREDICTED BY IDOCK:   -3.11 KCAL/MOL
REMARK 924 INTRA-LIGAND FREE ENERGY PREDICTED BY IDOCK:   -0.54 KCAL/MOL
REMARK 927      BINDING AFFINITY PREDICTED BY RF-SCORE:    0.00 PKD
ROOT
HETATM    1  O5* UNL     1      -7.476   4.098  68.846  1.00  0.00    -0.055 OA 
HETATM    2  H5* UNL     1      -7.758   3.399  68.268  1.00  0.00     0.000 HD 
HETATM    3  C5* UNL     1      -7.592   5.375  68.218  1.00  0.00    -0.081 C  
ENDROOT
BRANCH   3   4
HETATM    4  C4* UNL     1      -7.139   6.499  69.148  1.00  0.00    -0.088 C  
HETATM    5  O4* UNL     1      -7.323   7.788  68.536  1.00  0.00    -0.086 OA 
HETATM    6  C1* UNL     1      -7.330   8.729  69.621  1.00  0.00    -0.059 C  
HETATM    7  C2* UNL     1      -8.048   8.030  70.772  1.00  0.00    -0.101 C  
HETATM    8  H3* UNL     1      -7.648   5.914  72.312  1.00  0.00     0.000 HD 
HETATM    9  O3* UNL     1      -7.172   5.882  71.491  1.00  0.00    -0.078 OA 
HETATM   10  C3* UNL     1      -7.904   6.551  70.468  1.00  0.00    -0.106 C  
BRANCH   6  11
HETATM   11  N   UNL     1      -7.916  10.009  69.227  1.00  0.00    -0.117 N  
HETATM   12  C   UNL     1      -9.062  10.082  68.454  1.00  0.00    -0.121 C  
HETATM   13  C   UNL     1     -10.750  11.312  67.109  1.00  0.00    -0.253 C  
HETATM   14  C   UNL     1      -9.546  11.237  67.973  1.00  0.00    -0.182 C  
HETATM   15  C   UNL     1      -8.825  12.473  68.296  1.00  0.00    -0.171 C  
HETATM   16  O   UNL     1      -9.135  13.574  67.859  1.00  0.00    -0.186 OA 
HETATM   17  N   UNL     1      -7.744  12.332  69.125  1.00  0.00    -0.329 N  
HETATM   18  F   UNL     1     -11.051  12.532  66.607  1.00  0.00    -0.266 F  
HETATM   19  F   UNL     1     -10.628  10.483  66.036  1.00  0.00    -0.297 F  
HETATM   20  F   UNL     1     -11.857  10.891  67.781  1.00  0.00    -0.331 F  
HETATM   21  C   UNL     1      -7.209  11.154  69.570  1.00  0.00    -0.057 C  
HETATM   22  H   UNL     1      -7.294  13.191  69.443  1.00  0.00     0.000 HD 
HETATM   23  O   UNL     1      -6.162  11.154  70.215  1.00  0.00    -0.144 OA 
ENDBRANCH   6  11
ENDBRANCH   3   4
TORSDOF 2
ENDMDL
MODEL      231
REMARK 921   NORMALIZED FREE ENERGY PREDICTED BY IDOCK:   -2.87 KCAL/MOL
REMARK 922        TOTAL FREE ENERGY PREDICTED BY IDOCK:   -3.64 KCAL/MOL
REMARK 923 INTER-LIGAND FREE ENERGY PREDICTED BY IDOCK:   -3.83 KCAL/MOL
REMARK 924 INTRA-LIGAND FREE ENERGY PREDICTED BY IDOCK:    0.19 KCAL/MOL
REMARK 927      BINDING AFFINITY PREDICTED BY RF-SCORE:    0.00 PKD
ROOT
HETATM    1  O5* UNL     1      -8.874  18.630  67.181  1.00  0.00    -0.266 OA 
HETATM    2  H5* UNL     1      -8.288  19.370  67.282  1.00  0.00     0.000 HD 
HETATM    3  C5* UNL     1      -8.277  17.422  67.651  1.00  0.00    -0.206 C  
ENDROOT
BRANCH   3   4
HETATM    4  C4* UNL     1      -9.220  16.231  67.489  1.00  0.00    -0.205 C  
HETATM    5  O4* UNL     1      -8.585  15.156  66.773  1.00  0.00    -0.243 OA 
HETATM    6  C1* UNL     1      -9.344  13.981  67.096  1.00  0.00    -0.242 C  
HETATM    7  C2* UNL     1      -9.750  14.138  68.559  1.00  0.00    -0.219 C  
HETATM    8  H3* UNL     1     -11.256  15.777  69.992  1.00  0.00     0.000 HD 
HETATM    9  O3* UNL     1     -10.965  16.150  69.168  1.00  0.00    -0.267 OA 
HETATM   10  C3* UNL     1      -9.687  15.631  68.813  1.00  0.00    -0.212 C  
BRANCH   6  11
HETATM   11  N   UNL     1      -8.603  12.756  66.798  1.00  0.00    -0.135 N  
HETATM   12  C   UNL     1      -9.165  11.719  66.075  1.00  0.00    -0.194 C  
HETATM   13  C   UNL     1      -9.174   9.410  65.158  1.00  0.00    -0.225 C  
HETATM   14  C   UNL     1      -8.554  10.537  65.897  1.00  0.00    -0.170 C  
HETATM   15  C   UNL     1      -7.228  10.352  66.495  1.00  0.00    -0.118 C  
HETATM   16  O   UNL     1      -6.607   9.297  66.456  1.00  0.00    -0.066 OA 
HETATM   17  N   UNL     1      -6.704  11.445  67.133  1.00  0.00    -0.110 N  
HETATM   18  F   UNL     1      -8.487   8.244  65.161  1.00  0.00    -0.151 F  
HETATM   19  F   UNL     1     -10.407   9.122  65.659  1.00  0.00    -0.279 F  
HETATM   20  F   UNL     1      -9.371   9.735  63.851  1.00  0.00    -0.286 F  
HETATM   21  C   UNL     1      -7.343  12.632  67.369  1.00  0.00    -0.140 C  
HETATM   22  H   UNL     1      -5.742  11.367  67.463  1.00  0.00     0.000 HD 
HETATM   23  O   UNL     1      -6.807  13.497  68.059  1.00  0.00    -0.101 OA 
ENDBRANCH   6  11
ENDBRANCH   3   4
TORSDOF 2
ENDMDL
MODEL      232
REMARK 921   NORMALIZED FREE ENERGY PREDICTED BY IDOCK:   -2.85 KCAL/MOL
REMARK 922        TOTAL FREE ENERGY PREDICTED BY IDOCK:   -3.62 KCAL/MOL
REMARK 923 INTER-LIGAND FREE ENERGY PREDICTED BY IDOCK:   -3.69 KCAL/MOL
REMARK 924 INTRA-LIGAND FREE ENERGY PREDICTED BY IDOCK:    0.08 KCAL/MOL
REMARK 927      BINDING AFFINITY PREDICTED BY RF-SCORE:    0.00 PKD
ROOT
HETATM    1  O5* UNL     1      -7.057   3.881  68.977  1.00  0.00    -0.046 OA 
HETATM    2  H5* UNL     1      -7.226   3.016  68.625  1.00  0.00     0.000 HD 
HETATM    3  C5* UNL     1      -7.491   4.905  68.083  1.00  0.00    -0.074 C  
ENDROOT
BRANCH   3   4
HETATM    4  C4* UNL     1      -7.218   6.297  68.650  1.00  0.00    -0.085 C  
HETATM    5  O4* UNL     1      -8.032   7.292  68.004  1.00  0.00    -0.116 OA 
HETATM    6  C1* UNL     1      -8.052   8.411  68.904  1.00  0.00    -0.114 C  
HETATM    7  C2* UNL     1      -8.085   7.815  70.309  1.00  0.00    -0.113 C  
HETATM    8  H3* UNL     1      -6.500   6.335  71.828  1.00  0.00     0.000 HD 
HETATM    9  O3* UNL     1      -6.317   6.258  70.900  1.00  0.00    -0.038 OA 
HETATM   10  C3* UNL     1      -7.513   6.420  70.143  1.00  0.00    -0.094 C  
BRANCH   6  11
HETATM   11  N   UNL     1      -9.152   9.328  68.607  1.00  0.00    -0.132 N  
HETATM   12  C   UNL     1      -8.927  10.640  68.227  1.00  0.00    -0.143 C  
HETATM   13  C   UNL     1      -9.672  12.952  67.709  1.00  0.00    -0.214 C  
HETATM   14  C   UNL     1      -9.915  11.535  68.073  1.00  0.00    -0.197 C  
HETATM   15  C   UNL     1     -11.292  11.088  68.312  1.00  0.00    -0.299 C  
HETATM   16  O   UNL     1     -12.264  11.831  68.267  1.00  0.00    -0.486 OA 
HETATM   17  N   UNL     1     -11.443   9.760  68.611  1.00  0.00    -0.488 N  
HETATM   18  F   UNL     1     -10.757  13.762  67.703  1.00  0.00    -0.241 F  
HETATM   19  F   UNL     1      -8.779  13.526  68.561  1.00  0.00    -0.168 F  
HETATM   20  F   UNL     1      -9.117  13.047  66.469  1.00  0.00    -0.229 F  
HETATM   21  C   UNL     1     -10.438   8.856  68.829  1.00  0.00    -0.200 C  
HETATM   22  H   UNL     1     -12.399   9.410  68.678  1.00  0.00     0.000 HD 
HETATM   23  O   UNL     1     -10.702   7.717  69.209  1.00  0.00    -0.216 OA 
ENDBRANCH   6  11
ENDBRANCH   3   4
TORSDOF 2
ENDMDL
MODEL      233
REMARK 921   NORMALIZED FREE ENERGY PREDICTED BY IDOCK:   -2.84 KCAL/MOL
REMARK 922        TOTAL FREE ENERGY PREDICTED BY IDOCK:   -3.60 KCAL/MOL
REMARK 923 INTER-LIGAND FREE ENERGY PREDICTED BY IDOCK:   -3.04 KCAL/MOL
REMARK 924 INTRA-LIGAND FREE ENERGY PREDICTED BY IDOCK:   -0.56 KCAL/MOL
REMARK 927      BINDING AFFINITY PREDICTED BY RF-SCORE:    0.00 PKD
ROOT
HETATM    1  O5* UNL     1      -7.379  11.621  69.373  1.00  0.00    -0.315 OA 
HETATM    2  H5* UNL     1      -7.160  12.471  69.009  1.00  0.00     0.000 HD 
HETATM    3  C5* UNL     1      -8.628  11.144  68.874  1.00  0.00    -0.087 C  
ENDROOT
BRANCH   3   4
HETATM    4  C4* UNL     1      -8.980   9.778  69.460  1.00  0.00    -0.204 C  
HETATM    5  O4* UNL     1      -9.405   8.864  68.434  1.00  0.00    -0.137 OA 
HETATM    6  C1* UNL     1      -9.241   7.553  68.998  1.00  0.00    -0.146 C  
HETATM    7  C2* UNL     1      -7.976   7.622  69.848  1.00  0.00    -0.115 C  
HETATM    8  H3* UNL     1      -7.159   8.902  72.017  1.00  0.00     0.000 HD 
HETATM    9  O3* UNL     1      -7.885   9.327  71.575  1.00  0.00    -0.336 OA 
HETATM   10  C3* UNL     1      -7.814   9.095  70.171  1.00  0.00    -0.113 C  
BRANCH   6  11
HETATM   11  N   UNL     1      -9.226   6.516  67.968  1.00  0.00    -0.113 N  
HETATM   12  C   UNL     1      -8.591   6.703  66.752  1.00  0.00    -0.118 C  
HETATM   13  C   UNL     1      -8.026   6.039  64.426  1.00  0.00    -0.123 C  
HETATM   14  C   UNL     1      -8.670   5.820  65.744  1.00  0.00    -0.152 C  
HETATM   15  C   UNL     1      -9.461   4.603  65.956  1.00  0.00    -0.171 C  
HETATM   16  O   UNL     1      -9.658   3.763  65.087  1.00  0.00    -0.160 OA 
HETATM   17  N   UNL     1      -9.998   4.452  67.206  1.00  0.00    -0.158 N  
HETATM   18  F   UNL     1      -8.289   5.117  63.471  1.00  0.00    -0.109 F  
HETATM   19  F   UNL     1      -8.394   7.241  63.900  1.00  0.00    -0.094 F  
HETATM   20  F   UNL     1      -6.671   6.087  64.549  1.00  0.00    -0.041 F  
HETATM   21  C   UNL     1      -9.973   5.372  68.218  1.00  0.00    -0.159 C  
HETATM   22  H   UNL     1     -10.462   3.564  67.403  1.00  0.00     0.000 HD 
HETATM   23  O   UNL     1     -10.596   5.166  69.258  1.00  0.00    -0.192 OA 
ENDBRANCH   6  11
ENDBRANCH   3   4
TORSDOF 2
ENDMDL
MODEL      234
REMARK 921   NORMALIZED FREE ENERGY PREDICTED BY IDOCK:   -2.84 KCAL/MOL
REMARK 922        TOTAL FREE ENERGY PREDICTED BY IDOCK:   -3.60 KCAL/MOL
REMARK 923 INTER-LIGAND FREE ENERGY PREDICTED BY IDOCK:   -3.54 KCAL/MOL
REMARK 924 INTRA-LIGAND FREE ENERGY PREDICTED BY IDOCK:   -0.06 KCAL/MOL
REMARK 927      BINDING AFFINITY PREDICTED BY RF-SCORE:    0.00 PKD
ROOT
HETATM    1  O5* UNL     1      -9.295  12.170  65.253  1.00  0.00    -0.432 OA 
HETATM    2  H5* UNL     1      -8.813  12.886  64.855  1.00  0.00     0.000 HD 
HETATM    3  C5* UNL     1      -9.898  12.565  66.484  1.00  0.00    -0.246 C  
ENDROOT
BRANCH   3   4
HETATM    4  C4* UNL     1     -10.672  11.413  67.123  1.00  0.00    -0.249 C  
HETATM    5  O4* UNL     1     -10.225  10.141  66.619  1.00  0.00    -0.215 OA 
HETATM    6  C1* UNL     1     -10.649   9.175  67.593  1.00  0.00    -0.242 C  
HETATM    7  C2* UNL     1     -10.485   9.853  68.951  1.00  0.00    -0.229 C  
HETATM    8  H3* UNL     1     -11.529  11.926  70.225  1.00  0.00     0.000 HD 
HETATM    9  O3* UNL     1     -11.623  11.973  69.281  1.00  0.00    -0.276 OA 
HETATM   10  C3* UNL     1     -10.520  11.337  68.641  1.00  0.00    -0.203 C  
BRANCH   6  11
HETATM   11  N   UNL     1      -9.927   7.911  67.454  1.00  0.00    -0.179 N  
HETATM   12  C   UNL     1      -8.954   7.728  66.487  1.00  0.00    -0.161 C  
HETATM   13  C   UNL     1      -7.356   6.335  65.191  1.00  0.00    -0.077 C  
HETATM   14  C   UNL     1      -8.368   6.542  66.256  1.00  0.00    -0.124 C  
HETATM   15  C   UNL     1      -8.780   5.400  67.078  1.00  0.00    -0.107 C  
HETATM   16  O   UNL     1      -8.365   4.260  66.912  1.00  0.00    -0.101 OA 
HETATM   17  N   UNL     1      -9.692   5.672  68.062  1.00  0.00    -0.121 N  
HETATM   18  F   UNL     1      -6.941   5.061  65.001  1.00  0.00    -0.054 F  
HETATM   19  F   UNL     1      -7.826   6.761  63.986  1.00  0.00    -0.098 F  
HETATM   20  F   UNL     1      -6.237   7.071  65.434  1.00  0.00    -0.034 F  
HETATM   21  C   UNL     1     -10.338   6.862  68.266  1.00  0.00    -0.193 C  
HETATM   22  H   UNL     1      -9.912   4.913  68.708  1.00  0.00     0.000 HD 
HETATM   23  O   UNL     1     -11.226   6.947  69.111  1.00  0.00    -0.193 OA 
ENDBRANCH   6  11
ENDBRANCH   3   4
TORSDOF 2
ENDMDL
MODEL      235
REMARK 921   NORMALIZED FREE ENERGY PREDICTED BY IDOCK:   -2.82 KCAL/MOL
REMARK 922        TOTAL FREE ENERGY PREDICTED BY IDOCK:   -3.59 KCAL/MOL
REMARK 923 INTER-LIGAND FREE ENERGY PREDICTED BY IDOCK:   -3.13 KCAL/MOL
REMARK 924 INTRA-LIGAND FREE ENERGY PREDICTED BY IDOCK:   -0.45 KCAL/MOL
REMARK 927      BINDING AFFINITY PREDICTED BY RF-SCORE:    0.00 PKD
ROOT
HETATM    1  O5* UNL     1      -5.187  10.290  69.654  1.00  0.00    -0.038 OA 
HETATM    2  H5* UNL     1      -4.258  10.379  69.828  1.00  0.00     0.000 HD 
HETATM    3  C5* UNL     1      -5.458  10.272  68.253  1.00  0.00    -0.034 C  
ENDROOT
BRANCH   3   4
HETATM    4  C4* UNL     1      -6.953  10.129  67.973  1.00  0.00    -0.082 C  
HETATM    5  O4* UNL     1      -7.466   8.891  68.498  1.00  0.00    -0.083 OA 
HETATM    6  C1* UNL     1      -8.884   9.082  68.608  1.00  0.00    -0.137 C  
HETATM    7  C2* UNL     1      -9.076  10.534  69.037  1.00  0.00    -0.188 C  
HETATM    8  H3* UNL     1      -8.606  12.936  68.029  1.00  0.00     0.000 HD 
HETATM    9  O3* UNL     1      -8.076  12.250  67.640  1.00  0.00    -0.143 OA 
HETATM   10  C3* UNL     1      -7.803  11.232  68.598  1.00  0.00    -0.139 C  
BRANCH   6  11
HETATM   11  N   UNL     1      -9.498   8.098  69.500  1.00  0.00    -0.156 N  
HETATM   12  C   UNL     1      -9.205   8.055  70.852  1.00  0.00    -0.149 C  
HETATM   13  C   UNL     1      -9.305   7.015  73.105  1.00  0.00    -0.149 C  
HETATM   14  C   UNL     1      -9.653   7.086  71.665  1.00  0.00    -0.160 C  
HETATM   15  C   UNL     1     -10.498   6.037  71.085  1.00  0.00    -0.230 C  
HETATM   16  O   UNL     1     -10.908   5.070  71.714  1.00  0.00    -0.149 OA 
HETATM   17  N   UNL     1     -10.806   6.186  69.759  1.00  0.00    -0.316 N  
HETATM   18  F   UNL     1      -9.737   5.918  73.771  1.00  0.00    -0.145 F  
HETATM   19  F   UNL     1      -7.955   7.054  73.280  1.00  0.00    -0.096 F  
HETATM   20  F   UNL     1      -9.798   8.090  73.779  1.00  0.00    -0.336 F  
HETATM   21  C   UNL     1     -10.305   7.135  68.910  1.00  0.00    -0.196 C  
HETATM   22  H   UNL     1     -11.476   5.524  69.365  1.00  0.00     0.000 HD 
HETATM   23  O   UNL     1     -10.567   7.092  67.709  1.00  0.00    -0.207 OA 
ENDBRANCH   6  11
ENDBRANCH   3   4
TORSDOF 2
ENDMDL
MODEL      236
REMARK 921   NORMALIZED FREE ENERGY PREDICTED BY IDOCK:   -2.82 KCAL/MOL
REMARK 922        TOTAL FREE ENERGY PREDICTED BY IDOCK:   -3.58 KCAL/MOL
REMARK 923 INTER-LIGAND FREE ENERGY PREDICTED BY IDOCK:   -3.77 KCAL/MOL
REMARK 924 INTRA-LIGAND FREE ENERGY PREDICTED BY IDOCK:    0.19 KCAL/MOL
REMARK 927      BINDING AFFINITY PREDICTED BY RF-SCORE:    0.00 PKD
ROOT
HETATM    1  O5* UNL     1      -8.351   6.432  67.478  1.00  0.00    -0.116 OA 
HETATM    2  H5* UNL     1      -8.032   5.751  68.058  1.00  0.00     0.000 HD 
HETATM    3  C5* UNL     1      -7.959   7.729  67.928  1.00  0.00    -0.125 C  
ENDROOT
BRANCH   3   4
HETATM    4  C4* UNL     1      -8.472   8.824  66.995  1.00  0.00    -0.109 C  
HETATM    5  O4* UNL     1      -8.929   9.969  67.736  1.00  0.00    -0.131 OA 
HETATM    6  C1* UNL     1      -8.924  11.057  66.800  1.00  0.00    -0.157 C  
HETATM    7  C2* UNL     1      -7.704  10.834  65.910  1.00  0.00    -0.118 C  
HETATM    8  H3* UNL     1      -6.883   9.028  64.157  1.00  0.00     0.000 HD 
HETATM    9  O3* UNL     1      -7.539   8.701  64.761  1.00  0.00    -0.093 OA 
HETATM   10  C3* UNL     1      -7.417   9.349  66.024  1.00  0.00    -0.096 C  
BRANCH   6  11
HETATM   11  N   UNL     1      -8.955  12.355  67.474  1.00  0.00    -0.174 N  
HETATM   12  C   UNL     1      -9.929  13.299  67.197  1.00  0.00    -0.238 C  
HETATM   13  C   UNL     1     -10.926  15.567  67.376  1.00  0.00    -0.306 C  
HETATM   14  C   UNL     1      -9.907  14.541  67.706  1.00  0.00    -0.220 C  
HETATM   15  C   UNL     1      -8.801  14.898  68.601  1.00  0.00    -0.179 C  
HETATM   16  O   UNL     1      -8.642  16.018  69.068  1.00  0.00    -0.219 OA 
HETATM   17  N   UNL     1      -7.918  13.892  68.887  1.00  0.00    -0.314 N  
HETATM   18  F   UNL     1     -10.708  16.807  67.873  1.00  0.00    -0.316 F  
HETATM   19  F   UNL     1     -11.043  15.718  66.027  1.00  0.00    -0.308 F  
HETATM   20  F   UNL     1     -12.157  15.189  67.816  1.00  0.00    -0.332 F  
HETATM   21  C   UNL     1      -7.898  12.643  68.327  1.00  0.00    -0.144 C  
HETATM   22  H   UNL     1      -7.203  14.093  69.588  1.00  0.00     0.000 HD 
HETATM   23  O   UNL     1      -6.980  11.866  68.579  1.00  0.00    -0.072 OA 
ENDBRANCH   6  11
ENDBRANCH   3   4
TORSDOF 2
ENDMDL
MODEL      237
REMARK 921   NORMALIZED FREE ENERGY PREDICTED BY IDOCK:   -2.81 KCAL/MOL
REMARK 922        TOTAL FREE ENERGY PREDICTED BY IDOCK:   -3.57 KCAL/MOL
REMARK 923 INTER-LIGAND FREE ENERGY PREDICTED BY IDOCK:   -3.78 KCAL/MOL
REMARK 924 INTRA-LIGAND FREE ENERGY PREDICTED BY IDOCK:    0.21 KCAL/MOL
REMARK 927      BINDING AFFINITY PREDICTED BY RF-SCORE:    0.00 PKD
ROOT
HETATM    1  O5* UNL     1      -9.385   3.009  71.661  1.00  0.00    -0.105 OA 
HETATM    2  H5* UNL     1      -8.815   2.663  72.336  1.00  0.00     0.000 HD 
HETATM    3  C5* UNL     1      -8.866   4.218  71.107  1.00  0.00    -0.110 C  
ENDROOT
BRANCH   3   4
HETATM    4  C4* UNL     1      -9.783   4.774  70.019  1.00  0.00    -0.210 C  
HETATM    5  O4* UNL     1     -10.449   5.971  70.461  1.00  0.00    -0.213 OA 
HETATM    6  C1* UNL     1     -10.871   6.638  69.261  1.00  0.00    -0.289 C  
HETATM    7  C2* UNL     1      -9.761   6.400  68.240  1.00  0.00    -0.127 C  
HETATM    8  H3* UNL     1      -8.690   4.332  66.982  1.00  0.00     0.000 HD 
HETATM    9  O3* UNL     1      -9.144   4.096  67.782  1.00  0.00    -0.118 OA 
HETATM   10  C3* UNL     1      -9.053   5.153  68.733  1.00  0.00    -0.114 C  
BRANCH   6  11
HETATM   11  N   UNL     1     -11.184   8.045  69.503  1.00  0.00     0.048 N  
HETATM   12  C   UNL     1     -10.751   9.047  68.651  1.00  0.00    -0.097 C  
HETATM   13  C   UNL     1     -10.413  11.427  68.025  1.00  0.00    -0.188 C  
HETATM   14  C   UNL     1     -10.914  10.352  68.916  1.00  0.00    -0.289 C  
HETATM   15  C   UNL     1     -11.591  10.721  70.164  1.00  0.00    -0.337 C  
HETATM   16  O   UNL     1     -11.735  11.877  70.541  1.00  0.00    -0.254 OA 
HETATM   17  N   UNL     1     -12.056   9.679  70.920  1.00  0.00    -0.327 N  
HETATM   18  F   UNL     1     -10.549  12.694  68.480  1.00  0.00    -0.220 F  
HETATM   19  F   UNL     1      -9.086  11.262  67.765  1.00  0.00    -0.142 F  
HETATM   20  F   UNL     1     -11.036  11.386  66.815  1.00  0.00    -0.297 F  
HETATM   21  C   UNL     1     -11.842   8.347  70.687  1.00  0.00    -0.092 C  
HETATM   22  H   UNL     1     -12.619   9.918  71.737  1.00  0.00     0.000 HD 
HETATM   23  O   UNL     1     -12.212   7.508  71.507  1.00  0.00    -0.303 OA 
ENDBRANCH   6  11
ENDBRANCH   3   4
TORSDOF 2
ENDMDL
MODEL      238
REMARK 921   NORMALIZED FREE ENERGY PREDICTED BY IDOCK:   -2.81 KCAL/MOL
REMARK 922        TOTAL FREE ENERGY PREDICTED BY IDOCK:   -3.57 KCAL/MOL
REMARK 923 INTER-LIGAND FREE ENERGY PREDICTED BY IDOCK:   -3.18 KCAL/MOL
REMARK 924 INTRA-LIGAND FREE ENERGY PREDICTED BY IDOCK:   -0.39 KCAL/MOL
REMARK 927      BINDING AFFINITY PREDICTED BY RF-SCORE:    0.00 PKD
ROOT
HETATM    1  O5* UNL     1     -10.442   2.387  72.541  1.00  0.00    -0.156 OA 
HETATM    2  H5* UNL     1     -10.402   1.462  72.331  1.00  0.00     0.000 HD 
HETATM    3  C5* UNL     1      -9.609   3.157  71.674  1.00  0.00    -0.157 C  
ENDROOT
BRANCH   3   4
HETATM    4  C4* UNL     1      -9.673   4.645  72.012  1.00  0.00    -0.168 C  
HETATM    5  O4* UNL     1      -9.131   5.446  70.946  1.00  0.00    -0.135 OA 
HETATM    6  C1* UNL     1      -9.666   6.763  71.149  1.00  0.00    -0.174 C  
HETATM    7  C2* UNL     1     -11.092   6.560  71.655  1.00  0.00    -0.302 C  
HETATM    8  H3* UNL     1     -12.267   5.512  73.782  1.00  0.00     0.000 HD 
HETATM    9  O3* UNL     1     -11.386   5.189  73.638  1.00  0.00    -0.252 OA 
HETATM   10  C3* UNL     1     -11.090   5.163  72.244  1.00  0.00    -0.107 C  
BRANCH   6  11
HETATM   11  N   UNL     1      -9.559   7.584  69.944  1.00  0.00    -0.161 N  
HETATM   12  C   UNL     1      -9.231   7.040  68.715  1.00  0.00    -0.132 C  
HETATM   13  C   UNL     1      -8.608   7.206  66.316  1.00  0.00    -0.139 C  
HETATM   14  C   UNL     1      -9.002   7.786  67.623  1.00  0.00    -0.128 C  
HETATM   15  C   UNL     1      -9.117   9.243  67.749  1.00  0.00    -0.126 C  
HETATM   16  O   UNL     1      -8.866  10.024  66.841  1.00  0.00    -0.131 OA 
HETATM   17  N   UNL     1      -9.517   9.705  68.975  1.00  0.00    -0.162 N  
HETATM   18  F   UNL     1      -8.299   8.089  65.338  1.00  0.00    -0.126 F  
HETATM   19  F   UNL     1      -7.519   6.399  66.452  1.00  0.00    -0.078 F  
HETATM   20  F   UNL     1      -9.597   6.414  65.818  1.00  0.00    -0.094 F  
HETATM   21  C   UNL     1      -9.693   8.957  70.107  1.00  0.00    -0.179 C  
HETATM   22  H   UNL     1      -9.702  10.705  69.051  1.00  0.00     0.000 HD 
HETATM   23  O   UNL     1      -9.939   9.506  71.180  1.00  0.00    -0.269 OA 
ENDBRANCH   6  11
ENDBRANCH   3   4
TORSDOF 2
ENDMDL
MODEL      239
REMARK 921   NORMALIZED FREE ENERGY PREDICTED BY IDOCK:   -2.76 KCAL/MOL
REMARK 922        TOTAL FREE ENERGY PREDICTED BY IDOCK:   -3.52 KCAL/MOL
REMARK 923 INTER-LIGAND FREE ENERGY PREDICTED BY IDOCK:   -3.79 KCAL/MOL
REMARK 924 INTRA-LIGAND FREE ENERGY PREDICTED BY IDOCK:    0.27 KCAL/MOL
REMARK 927      BINDING AFFINITY PREDICTED BY RF-SCORE:    0.00 PKD
ROOT
HETATM    1  O5* UNL     1     -11.387  14.968  65.848  1.00  0.00    -0.338 OA 
HETATM    2  H5* UNL     1     -11.291  15.906  65.961  1.00  0.00     0.000 HD 
HETATM    3  C5* UNL     1     -10.156  14.360  65.458  1.00  0.00    -0.356 C  
ENDROOT
BRANCH   3   4
HETATM    4  C4* UNL     1     -10.310  12.851  65.276  1.00  0.00    -0.300 C  
HETATM    5  O4* UNL     1      -9.322  12.130  66.034  1.00  0.00    -0.232 OA 
HETATM    6  C1* UNL     1      -9.843  10.799  66.173  1.00  0.00    -0.221 C  
HETATM    7  C2* UNL     1     -11.351  10.960  66.348  1.00  0.00     0.193 C  
HETATM    8  H3* UNL     1     -13.389  11.849  64.911  1.00  0.00     0.000 HD 
HETATM    9  O3* UNL     1     -12.548  12.184  64.626  1.00  0.00    -0.445 OA 
HETATM   10  C3* UNL     1     -11.663  12.311  65.735  1.00  0.00    -0.385 C  
BRANCH   6  11
HETATM   11  N   UNL     1      -9.181  10.066  67.251  1.00  0.00    -0.141 N  
HETATM   12  C   UNL     1      -9.854   9.135  68.023  1.00  0.00    -0.168 C  
HETATM   13  C   UNL     1     -10.042   7.578  69.950  1.00  0.00    -0.193 C  
HETATM   14  C   UNL     1      -9.307   8.544  69.096  1.00  0.00    -0.153 C  
HETATM   15  C   UNL     1      -7.930   8.902  69.452  1.00  0.00    -0.100 C  
HETATM   16  O   UNL     1      -7.353   8.479  70.445  1.00  0.00    -0.049 OA 
HETATM   17  N   UNL     1      -7.302   9.773  68.601  1.00  0.00    -0.073 N  
HETATM   18  F   UNL     1      -9.399   7.154  71.062  1.00  0.00    -0.156 F  
HETATM   19  F   UNL     1     -11.222   8.109  70.376  1.00  0.00    -0.259 F  
HETATM   20  F   UNL     1     -10.370   6.460  69.247  1.00  0.00    -0.179 F  
HETATM   21  C   UNL     1      -7.871  10.425  67.541  1.00  0.00    -0.106 C  
HETATM   22  H   UNL     1      -6.313   9.952  68.774  1.00  0.00     0.000 HD 
HETATM   23  O   UNL     1      -7.233  11.275  66.923  1.00  0.00    -0.126 OA 
ENDBRANCH   6  11
ENDBRANCH   3   4
TORSDOF 2
ENDMDL
MODEL      240
REMARK 921   NORMALIZED FREE ENERGY PREDICTED BY IDOCK:   -2.75 KCAL/MOL
REMARK 922        TOTAL FREE ENERGY PREDICTED BY IDOCK:   -3.50 KCAL/MOL
REMARK 923 INTER-LIGAND FREE ENERGY PREDICTED BY IDOCK:   -3.10 KCAL/MOL
REMARK 924 INTRA-LIGAND FREE ENERGY PREDICTED BY IDOCK:   -0.40 KCAL/MOL
REMARK 927      BINDING AFFINITY PREDICTED BY RF-SCORE:    0.00 PKD
ROOT
HETATM    1  O5* UNL     1     -10.072   3.897  67.313  1.00  0.00    -0.201 OA 
HETATM    2  H5* UNL     1     -10.026   3.301  68.051  1.00  0.00     0.000 HD 
HETATM    3  C5* UNL     1      -9.145   4.973  67.449  1.00  0.00    -0.115 C  
ENDROOT
BRANCH   3   4
HETATM    4  C4* UNL     1      -9.220   5.932  66.262  1.00  0.00    -0.158 C  
HETATM    5  O4* UNL     1      -9.406   7.290  66.698  1.00  0.00    -0.159 OA 
HETATM    6  C1* UNL     1      -8.989   8.106  65.594  1.00  0.00    -0.080 C  
HETATM    7  C2* UNL     1      -7.797   7.385  64.970  1.00  0.00    -0.124 C  
HETATM    8  H3* UNL     1      -7.346   5.089  63.733  1.00  0.00     0.000 HD 
HETATM    9  O3* UNL     1      -8.128   5.084  64.271  1.00  0.00    -0.104 OA 
HETATM   10  C3* UNL     1      -7.961   5.940  65.398  1.00  0.00    -0.120 C  
BRANCH   6  11
HETATM   11  N   UNL     1      -8.719   9.483  66.007  1.00  0.00    -0.142 N  
HETATM   12  C   UNL     1      -8.034   9.775  67.174  1.00  0.00    -0.102 C  
HETATM   13  C   UNL     1      -7.189  11.335  68.913  1.00  0.00    -0.112 C  
HETATM   14  C   UNL     1      -7.885  11.025  67.640  1.00  0.00    -0.114 C  
HETATM   15  C   UNL     1      -8.470  12.123  66.863  1.00  0.00    -0.173 C  
HETATM   16  O   UNL     1      -8.455  13.292  67.224  1.00  0.00    -0.192 OA 
HETATM   17  N   UNL     1      -9.067  11.766  65.683  1.00  0.00    -0.403 N  
HETATM   18  F   UNL     1      -7.218  12.628  69.310  1.00  0.00    -0.080 F  
HETATM   19  F   UNL     1      -7.715  10.613  69.941  1.00  0.00    -0.156 F  
HETATM   20  F   UNL     1      -5.876  10.984  68.846  1.00  0.00    -0.041 F  
HETATM   21  C   UNL     1      -9.276  10.491  65.231  1.00  0.00    -0.200 C  
HETATM   22  H   UNL     1      -9.387  12.525  65.082  1.00  0.00     0.000 HD 
HETATM   23  O   UNL     1      -9.932  10.296  64.210  1.00  0.00    -0.328 OA 
ENDBRANCH   6  11
ENDBRANCH   3   4
TORSDOF 2
ENDMDL
MODEL      241
REMARK 921   NORMALIZED FREE ENERGY PREDICTED BY IDOCK:   -2.73 KCAL/MOL
REMARK 922        TOTAL FREE ENERGY PREDICTED BY IDOCK:   -3.48 KCAL/MOL
REMARK 923 INTER-LIGAND FREE ENERGY PREDICTED BY IDOCK:   -3.10 KCAL/MOL
REMARK 924 INTRA-LIGAND FREE ENERGY PREDICTED BY IDOCK:   -0.38 KCAL/MOL
REMARK 927      BINDING AFFINITY PREDICTED BY RF-SCORE:    0.00 PKD
ROOT
HETATM    1  O5* UNL     1      -6.020   9.568  69.162  1.00  0.00    -0.038 OA 
HETATM    2  H5* UNL     1      -5.735  10.441  68.919  1.00  0.00     0.000 HD 
HETATM    3  C5* UNL     1      -7.285   9.250  68.581  1.00  0.00    -0.075 C  
ENDROOT
BRANCH   3   4
HETATM    4  C4* UNL     1      -7.744   7.847  68.973  1.00  0.00    -0.101 C  
HETATM    5  O4* UNL     1      -8.649   7.302  67.996  1.00  0.00    -0.125 OA 
HETATM    6  C1* UNL     1      -8.623   5.881  68.203  1.00  0.00    -0.113 C  
HETATM    7  C2* UNL     1      -7.180   5.540  68.565  1.00  0.00    -0.074 C  
HETATM    8  H3* UNL     1      -5.490   6.081  70.529  1.00  0.00     0.000 HD 
HETATM    9  O3* UNL     1      -6.199   6.708  70.454  1.00  0.00    -0.030 OA 
HETATM   10  C3* UNL     1      -6.603   6.839  69.094  1.00  0.00    -0.048 C  
BRANCH   6  11
HETATM   11  N   UNL     1      -9.148   5.155  67.048  1.00  0.00    -0.112 N  
HETATM   12  C   UNL     1      -8.337   4.370  66.247  1.00  0.00    -0.112 C  
HETATM   13  C   UNL     1      -7.885   2.992  64.230  1.00  0.00    -0.078 C  
HETATM   14  C   UNL     1      -8.766   3.798  65.111  1.00  0.00    -0.116 C  
HETATM   15  C   UNL     1     -10.162   4.013  64.717  1.00  0.00    -0.212 C  
HETATM   16  O   UNL     1     -10.643   3.597  63.671  1.00  0.00    -0.244 OA 
HETATM   17  N   UNL     1     -10.924   4.737  65.595  1.00  0.00    -0.875 N  
HETATM   18  F   UNL     1      -8.428   2.576  63.062  1.00  0.00    -0.077 F  
HETATM   19  F   UNL     1      -6.764   3.690  63.896  1.00  0.00    -0.037 F  
HETATM   20  F   UNL     1      -7.449   1.873  64.870  1.00  0.00    -0.056 F  
HETATM   21  C   UNL     1     -10.480   5.374  66.722  1.00  0.00    -0.289 C  
HETATM   22  H   UNL     1     -11.920   4.809  65.388  1.00  0.00     0.000 HD 
HETATM   23  O   UNL     1     -11.241   6.094  67.366  1.00  0.00    -0.288 OA 
ENDBRANCH   6  11
ENDBRANCH   3   4
TORSDOF 2
ENDMDL
MODEL      242
REMARK 921   NORMALIZED FREE ENERGY PREDICTED BY IDOCK:   -2.69 KCAL/MOL
REMARK 922        TOTAL FREE ENERGY PREDICTED BY IDOCK:   -3.43 KCAL/MOL
REMARK 923 INTER-LIGAND FREE ENERGY PREDICTED BY IDOCK:   -3.83 KCAL/MOL
REMARK 924 INTRA-LIGAND FREE ENERGY PREDICTED BY IDOCK:    0.39 KCAL/MOL
REMARK 927      BINDING AFFINITY PREDICTED BY RF-SCORE:    0.00 PKD
ROOT
HETATM    1  O5* UNL     1     -11.600  13.997  69.790  1.00  0.00    -0.272 OA 
HETATM    2  H5* UNL     1     -11.504  14.881  70.126  1.00  0.00     0.000 HD 
HETATM    3  C5* UNL     1     -11.303  13.932  68.396  1.00  0.00    -0.285 C  
ENDROOT
BRANCH   3   4
HETATM    4  C4* UNL     1     -11.458  12.511  67.856  1.00  0.00    -0.315 C  
HETATM    5  O4* UNL     1     -10.904  12.392  66.534  1.00  0.00    -0.239 OA 
HETATM    6  C1* UNL     1     -10.674  10.988  66.342  1.00  0.00    -0.227 C  
HETATM    7  C2* UNL     1     -10.216  10.453  67.696  1.00  0.00    -0.240 C  
HETATM    8  H3* UNL     1     -11.237  10.181  70.123  1.00  0.00     0.000 HD 
HETATM    9  O3* UNL     1     -11.675  10.840  69.598  1.00  0.00    -0.274 OA 
HETATM   10  C3* UNL     1     -10.753  11.453  68.701  1.00  0.00    -0.206 C  
BRANCH   6  11
HETATM   11  N   UNL     1      -9.743  10.735  65.242  1.00  0.00    -0.235 N  
HETATM   12  C   UNL     1      -9.000   9.570  65.166  1.00  0.00    -0.209 C  
HETATM   13  C   UNL     1      -7.223   8.139  64.185  1.00  0.00    -0.086 C  
HETATM   14  C   UNL     1      -8.049   9.369  64.241  1.00  0.00    -0.140 C  
HETATM   15  C   UNL     1      -7.802  10.437  63.265  1.00  0.00    -0.102 C  
HETATM   16  O   UNL     1      -6.918  10.392  62.421  1.00  0.00    -0.134 OA 
HETATM   17  N   UNL     1      -8.625  11.528  63.356  1.00  0.00    -0.250 N  
HETATM   18  F   UNL     1      -6.227   8.128  63.268  1.00  0.00    -0.069 F  
HETATM   19  F   UNL     1      -6.630   7.898  65.387  1.00  0.00    -0.044 F  
HETATM   20  F   UNL     1      -7.993   7.047  63.925  1.00  0.00    -0.118 F  
HETATM   21  C   UNL     1      -9.554  11.766  64.331  1.00  0.00    -0.061 C  
HETATM   22  H   UNL     1      -8.536  12.232  62.623  1.00  0.00     0.000 HD 
HETATM   23  O   UNL     1     -10.149  12.842  64.370  1.00  0.00    -0.320 OA 
ENDBRANCH   6  11
ENDBRANCH   3   4
TORSDOF 2
ENDMDL
MODEL      243
REMARK 921   NORMALIZED FREE ENERGY PREDICTED BY IDOCK:   -2.57 KCAL/MOL
REMARK 922        TOTAL FREE ENERGY PREDICTED BY IDOCK:   -3.30 KCAL/MOL
REMARK 923 INTER-LIGAND FREE ENERGY PREDICTED BY IDOCK:   -2.92 KCAL/MOL
REMARK 924 INTRA-LIGAND FREE ENERGY PREDICTED BY IDOCK:   -0.38 KCAL/MOL
REMARK 927      BINDING AFFINITY PREDICTED BY RF-SCORE:    0.00 PKD
ROOT
HETATM    1  O5* UNL     1      -9.688   9.807  69.795  1.00  0.00    -0.202 OA 
HETATM    2  H5* UNL     1      -9.651   9.521  70.700  1.00  0.00     0.000 HD 
HETATM    3  C5* UNL     1     -10.032  11.189  69.697  1.00  0.00     0.367 C  
ENDROOT
BRANCH   3   4
HETATM    4  C4* UNL     1     -10.092  11.649  68.242  1.00  0.00    -0.202 C  
HETATM    5  O4* UNL     1      -9.274  10.819  67.398  1.00  0.00    -0.146 OA 
HETATM    6  C1* UNL     1      -9.768  11.025  66.066  1.00  0.00    -0.224 C  
HETATM    7  C2* UNL     1     -11.282  11.171  66.202  1.00  0.00    -0.059 C  
HETATM    8  H3* UNL     1     -12.976  12.862  67.332  1.00  0.00     0.000 HD 
HETATM    9  O3* UNL     1     -12.104  12.890  67.707  1.00  0.00    -0.312 OA 
HETATM   10  C3* UNL     1     -11.494  11.604  67.639  1.00  0.00    -0.303 C  
BRANCH   6  11
HETATM   11  N   UNL     1      -9.339   9.963  65.157  1.00  0.00    -0.238 N  
HETATM   12  C   UNL     1      -8.982   8.707  65.617  1.00  0.00    -0.182 C  
HETATM   13  C   UNL     1      -8.042   6.427  65.321  1.00  0.00    -0.133 C  
HETATM   14  C   UNL     1      -8.465   7.758  64.822  1.00  0.00     0.015 C  
HETATM   15  C   UNL     1      -8.283   8.075  63.401  1.00  0.00    -0.039 C  
HETATM   16  O   UNL     1      -7.760   7.313  62.598  1.00  0.00    -0.108 OA 
HETATM   17  N   UNL     1      -8.727   9.308  63.004  1.00  0.00    -0.311 N  
HETATM   18  F   UNL     1      -7.432   5.617  64.425  1.00  0.00    -0.060 F  
HETATM   19  F   UNL     1      -7.175   6.554  66.364  1.00  0.00    -0.066 F  
HETATM   20  F   UNL     1      -9.105   5.729  65.806  1.00  0.00    -0.156 F  
HETATM   21  C   UNL     1      -9.199  10.302  63.818  1.00  0.00    -0.275 C  
HETATM   22  H   UNL     1      -8.703   9.505  62.003  1.00  0.00     0.000 HD 
HETATM   23  O   UNL     1      -9.455  11.412  63.354  1.00  0.00    -0.281 OA 
ENDBRANCH   6  11
ENDBRANCH   3   4
TORSDOF 2
ENDMDL
MODEL      244
REMARK 921   NORMALIZED FREE ENERGY PREDICTED BY IDOCK:   -2.55 KCAL/MOL
REMARK 922        TOTAL FREE ENERGY PREDICTED BY IDOCK:   -3.28 KCAL/MOL
REMARK 923 INTER-LIGAND FREE ENERGY PREDICTED BY IDOCK:   -3.61 KCAL/MOL
REMARK 924 INTRA-LIGAND FREE ENERGY PREDICTED BY IDOCK:    0.33 KCAL/MOL
REMARK 927      BINDING AFFINITY PREDICTED BY RF-SCORE:    0.00 PKD
ROOT
HETATM    1  O5* UNL     1      -6.614  13.995  70.532  1.00  0.00    -0.405 OA 
HETATM    2  H5* UNL     1      -6.400  14.335  71.393  1.00  0.00     0.000 HD 
HETATM    3  C5* UNL     1      -6.979  15.041  69.632  1.00  0.00    -0.191 C  
ENDROOT
BRANCH   3   4
HETATM    4  C4* UNL     1      -7.323  14.493  68.248  1.00  0.00    -0.120 C  
HETATM    5  O4* UNL     1      -7.481  13.063  68.277  1.00  0.00    -0.109 OA 
HETATM    6  C1* UNL     1      -8.243  12.739  67.104  1.00  0.00    -0.146 C  
HETATM    7  C2* UNL     1      -9.247  13.877  66.933  1.00  0.00    -0.269 C  
HETATM    8  H3* UNL     1      -9.170  16.477  66.439  1.00  0.00     0.000 HD 
HETATM    9  O3* UNL     1      -8.359  16.133  66.795  1.00  0.00    -0.208 OA 
HETATM   10  C3* UNL     1      -8.627  15.045  67.675  1.00  0.00    -0.171 C  
BRANCH   6  11
HETATM   11  N   UNL     1      -8.843  11.409  67.196  1.00  0.00    -0.153 N  
HETATM   12  C   UNL     1      -8.404  10.354  66.414  1.00  0.00    -0.139 C  
HETATM   13  C   UNL     1      -8.574   8.044  65.517  1.00  0.00    -0.135 C  
HETATM   14  C   UNL     1      -9.018   9.161  66.386  1.00  0.00    -0.182 C  
HETATM   15  C   UNL     1     -10.201   8.976  67.234  1.00  0.00    -0.256 C  
HETATM   16  O   UNL     1     -10.878   7.957  67.240  1.00  0.00    -0.272 OA 
HETATM   17  N   UNL     1     -10.531  10.037  68.034  1.00  0.00    -0.203 N  
HETATM   18  F   UNL     1      -9.360   6.942  65.511  1.00  0.00    -0.017 F  
HETATM   19  F   UNL     1      -8.482   8.447  64.219  1.00  0.00    -0.167 F  
HETATM   20  F   UNL     1      -7.327   7.623  65.865  1.00  0.00    -0.067 F  
HETATM   21  C   UNL     1      -9.949  11.275  68.025  1.00  0.00    -0.179 C  
HETATM   22  H   UNL     1     -11.287   9.889  68.704  1.00  0.00     0.000 HD 
HETATM   23  O   UNL     1     -10.415  12.184  68.709  1.00  0.00    -0.224 OA 
ENDBRANCH   6  11
ENDBRANCH   3   4
TORSDOF 2
ENDMDL
MODEL      245
REMARK 921   NORMALIZED FREE ENERGY PREDICTED BY IDOCK:   -2.53 KCAL/MOL
REMARK 922        TOTAL FREE ENERGY PREDICTED BY IDOCK:   -3.26 KCAL/MOL
REMARK 923 INTER-LIGAND FREE ENERGY PREDICTED BY IDOCK:   -3.18 KCAL/MOL
REMARK 924 INTRA-LIGAND FREE ENERGY PREDICTED BY IDOCK:   -0.08 KCAL/MOL
REMARK 927      BINDING AFFINITY PREDICTED BY RF-SCORE:    0.00 PKD
ROOT
HETATM    1  O5* UNL     1      -7.013   5.382  67.515  1.00  0.00    -0.062 OA 
HETATM    2  H5* UNL     1      -7.177   4.660  66.921  1.00  0.00     0.000 HD 
HETATM    3  C5* UNL     1      -7.316   6.638  66.908  1.00  0.00    -0.082 C  
ENDROOT
BRANCH   3   4
HETATM    4  C4* UNL     1      -7.052   7.800  67.864  1.00  0.00    -0.086 C  
HETATM    5  O4* UNL     1      -7.498   9.048  67.304  1.00  0.00    -0.084 OA 
HETATM    6  C1* UNL     1      -7.645   9.937  68.422  1.00  0.00    -0.083 C  
HETATM    7  C2* UNL     1      -8.177   9.080  69.568  1.00  0.00    -0.114 C  
HETATM    8  H3* UNL     1      -7.330   7.034  71.019  1.00  0.00     0.000 HD 
HETATM    9  O3* UNL     1      -6.886   7.118  70.184  1.00  0.00    -0.056 OA 
HETATM   10  C3* UNL     1      -7.766   7.665  69.207  1.00  0.00    -0.104 C  
BRANCH   6  11
HETATM   11  N   UNL     1      -8.476  11.093  68.091  1.00  0.00    -0.132 N  
HETATM   12  C   UNL     1      -9.555  11.466  68.874  1.00  0.00    -0.073 C  
HETATM   13  C   UNL     1     -11.589  12.813  69.342  1.00  0.00    -0.298 C  
HETATM   14  C   UNL     1     -10.408  12.442  68.525  1.00  0.00    -0.232 C  
HETATM   15  C   UNL     1     -10.169  13.144  67.259  1.00  0.00    -0.243 C  
HETATM   16  O   UNL     1     -10.917  14.002  66.808  1.00  0.00    -0.292 OA 
HETATM   17  N   UNL     1      -9.043  12.772  66.575  1.00  0.00    -0.376 N  
HETATM   18  F   UNL     1     -12.421  13.737  68.805  1.00  0.00    -0.373 F  
HETATM   19  F   UNL     1     -12.359  11.721  69.605  1.00  0.00    -0.310 F  
HETATM   20  F   UNL     1     -11.208  13.300  70.554  1.00  0.00     0.007 F  
HETATM   21  C   UNL     1      -8.203  11.739  66.893  1.00  0.00    -0.166 C  
HETATM   22  H   UNL     1      -8.806  13.320  65.747  1.00  0.00     0.000 HD 
HETATM   23  O   UNL     1      -7.289  11.429  66.131  1.00  0.00    -0.020 OA 
ENDBRANCH   6  11
ENDBRANCH   3   4
TORSDOF 2
ENDMDL
MODEL      246
REMARK 921   NORMALIZED FREE ENERGY PREDICTED BY IDOCK:   -2.52 KCAL/MOL
REMARK 922        TOTAL FREE ENERGY PREDICTED BY IDOCK:   -3.25 KCAL/MOL
REMARK 923 INTER-LIGAND FREE ENERGY PREDICTED BY IDOCK:   -4.12 KCAL/MOL
REMARK 924 INTRA-LIGAND FREE ENERGY PREDICTED BY IDOCK:    0.87 KCAL/MOL
REMARK 927      BINDING AFFINITY PREDICTED BY RF-SCORE:    0.00 PKD
ROOT
HETATM    1  O5* UNL     1      -6.198   8.799  71.105  1.00  0.00    -0.040 OA 
HETATM    2  H5* UNL     1      -5.359   9.016  71.494  1.00  0.00     0.000 HD 
HETATM    3  C5* UNL     1      -6.190   9.011  69.694  1.00  0.00    -0.039 C  
ENDROOT
BRANCH   3   4
HETATM    4  C4* UNL     1      -7.539   8.662  69.068  1.00  0.00    -0.090 C  
HETATM    5  O4* UNL     1      -8.307   9.846  68.788  1.00  0.00    -0.107 OA 
HETATM    6  C1* UNL     1      -9.279   9.449  67.809  1.00  0.00    -0.128 C  
HETATM    7  C2* UNL     1      -8.569   8.450  66.899  1.00  0.00    -0.129 C  
HETATM    8  H3* UNL     1      -7.485   6.045  67.127  1.00  0.00     0.000 HD 
HETATM    9  O3* UNL     1      -7.554   6.510  67.952  1.00  0.00    -0.099 OA 
HETATM   10  C3* UNL     1      -7.427   7.914  67.742  1.00  0.00    -0.097 C  
BRANCH   6  11
HETATM   11  N   UNL     1      -9.854  10.600  67.115  1.00  0.00    -0.171 N  
HETATM   12  C   UNL     1     -10.272  11.730  67.797  1.00  0.00    -0.191 C  
HETATM   13  C   UNL     1     -11.404  13.937  67.939  1.00  0.00    -0.292 C  
HETATM   14  C   UNL     1     -10.918  12.745  67.202  1.00  0.00    -0.295 C  
HETATM   15  C   UNL     1     -11.178  12.644  65.762  1.00  0.00    -0.312 C  
HETATM   16  O   UNL     1     -11.816  13.475  65.128  1.00  0.00    -0.319 OA 
HETATM   17  N   UNL     1     -10.671  11.534  65.141  1.00  0.00    -0.294 N  
HETATM   18  F   UNL     1     -12.138  14.822  67.226  1.00  0.00    -0.396 F  
HETATM   19  F   UNL     1     -12.180  13.570  68.996  1.00  0.00    -0.365 F  
HETATM   20  F   UNL     1     -10.364  14.639  68.467  1.00  0.00    -0.214 F  
HETATM   21  C   UNL     1     -10.066  10.468  65.749  1.00  0.00    -0.265 C  
HETATM   22  H   UNL     1     -10.753  11.498  64.124  1.00  0.00     0.000 HD 
HETATM   23  O   UNL     1      -9.759   9.473  65.094  1.00  0.00    -0.277 OA 
ENDBRANCH   6  11
ENDBRANCH   3   4
TORSDOF 2
ENDMDL
MODEL      247
REMARK 921   NORMALIZED FREE ENERGY PREDICTED BY IDOCK:   -2.51 KCAL/MOL
REMARK 922        TOTAL FREE ENERGY PREDICTED BY IDOCK:   -3.23 KCAL/MOL
REMARK 923 INTER-LIGAND FREE ENERGY PREDICTED BY IDOCK:   -3.03 KCAL/MOL
REMARK 924 INTRA-LIGAND FREE ENERGY PREDICTED BY IDOCK:   -0.20 KCAL/MOL
REMARK 927      BINDING AFFINITY PREDICTED BY RF-SCORE:    0.00 PKD
ROOT
HETATM    1  O5* UNL     1      -7.375   1.541  68.783  1.00  0.00    -0.042 OA 
HETATM    2  H5* UNL     1      -7.718   0.761  68.363  1.00  0.00     0.000 HD 
HETATM    3  C5* UNL     1      -7.791   2.727  68.107  1.00  0.00    -0.055 C  
ENDROOT
BRANCH   3   4
HETATM    4  C4* UNL     1      -7.237   3.980  68.784  1.00  0.00    -0.055 C  
HETATM    5  O4* UNL     1      -7.834   5.172  68.242  1.00  0.00    -0.086 OA 
HETATM    6  C1* UNL     1      -7.621   6.189  69.233  1.00  0.00    -0.098 C  
HETATM    7  C2* UNL     1      -7.768   5.493  70.583  1.00  0.00    -0.090 C  
HETATM    8  H3* UNL     1      -6.512   3.596  71.937  1.00  0.00     0.000 HD 
HETATM    9  O3* UNL     1      -6.352   3.565  71.002  1.00  0.00    -0.018 OA 
HETATM   10  C3* UNL     1      -7.494   4.031  70.288  1.00  0.00    -0.045 C  
BRANCH   6  11
HETATM   11  N   UNL     1      -8.512   7.332  69.038  1.00  0.00    -0.129 N  
HETATM   12  C   UNL     1      -9.382   7.758  70.027  1.00  0.00    -0.157 C  
HETATM   13  C   UNL     1     -11.259   9.146  70.876  1.00  0.00    -0.295 C  
HETATM   14  C   UNL     1     -10.297   8.720  69.830  1.00  0.00    -0.212 C  
HETATM   15  C   UNL     1     -10.361   9.347  68.506  1.00  0.00    -0.209 C  
HETATM   16  O   UNL     1     -11.197  10.185  68.193  1.00  0.00    -0.258 OA 
HETATM   17  N   UNL     1      -9.422   8.928  67.602  1.00  0.00    -0.136 N  
HETATM   18  F   UNL     1     -12.196  10.045  70.495  1.00  0.00    -0.310 F  
HETATM   19  F   UNL     1     -11.941   8.077  71.372  1.00  0.00    -0.277 F  
HETATM   20  F   UNL     1     -10.609   9.697  71.938  1.00  0.00    -0.330 F  
HETATM   21  C   UNL     1      -8.527   7.908  67.774  1.00  0.00    -0.125 C  
HETATM   22  H   UNL     1      -9.386   9.426  66.712  1.00  0.00     0.000 HD 
HETATM   23  O   UNL     1      -7.812   7.547  66.841  1.00  0.00    -0.107 OA 
ENDBRANCH   6  11
ENDBRANCH   3   4
TORSDOF 2
ENDMDL
MODEL      248
REMARK 921   NORMALIZED FREE ENERGY PREDICTED BY IDOCK:   -2.51 KCAL/MOL
REMARK 922        TOTAL FREE ENERGY PREDICTED BY IDOCK:   -3.23 KCAL/MOL
REMARK 923 INTER-LIGAND FREE ENERGY PREDICTED BY IDOCK:   -3.53 KCAL/MOL
REMARK 924 INTRA-LIGAND FREE ENERGY PREDICTED BY IDOCK:    0.30 KCAL/MOL
REMARK 927      BINDING AFFINITY PREDICTED BY RF-SCORE:    0.00 PKD
ROOT
HETATM    1  O5* UNL     1      -5.899   8.576  71.209  1.00  0.00    -0.034 OA 
HETATM    2  H5* UNL     1      -5.088   8.440  71.684  1.00  0.00     0.000 HD 
HETATM    3  C5* UNL     1      -5.655   8.939  69.850  1.00  0.00    -0.028 C  
ENDROOT
BRANCH   3   4
HETATM    4  C4* UNL     1      -6.960   9.158  69.087  1.00  0.00    -0.058 C  
HETATM    5  O4* UNL     1      -7.413  10.518  69.208  1.00  0.00    -0.097 OA 
HETATM    6  C1* UNL     1      -8.320  10.717  68.112  1.00  0.00    -0.120 C  
HETATM    7  C2* UNL     1      -7.734   9.933  66.940  1.00  0.00    -0.098 C  
HETATM    8  H3* UNL     1      -7.231   7.401  66.356  1.00  0.00     0.000 HD 
HETATM    9  O3* UNL     1      -7.300   7.569  67.288  1.00  0.00    -0.093 OA 
HETATM   10  C3* UNL     1      -6.848   8.887  67.588  1.00  0.00    -0.070 C  
BRANCH   6  11
HETATM   11  N   UNL     1      -8.543  12.137  67.843  1.00  0.00    -0.158 N  
HETATM   12  C   UNL     1      -9.776  12.734  68.041  1.00  0.00    -0.220 C  
HETATM   13  C   UNL     1     -11.374  14.627  67.855  1.00  0.00    -0.315 C  
HETATM   14  C   UNL     1     -10.041  14.000  67.682  1.00  0.00    -0.241 C  
HETATM   15  C   UNL     1      -8.964  14.778  67.061  1.00  0.00    -0.238 C  
HETATM   16  O   UNL     1      -9.109  15.916  66.634  1.00  0.00    -0.215 OA 
HETATM   17  N   UNL     1      -7.752  14.147  66.965  1.00  0.00    -0.340 N  
HETATM   18  F   UNL     1     -11.521  15.870  67.341  1.00  0.00    -0.257 F  
HETATM   19  F   UNL     1     -12.346  13.864  67.281  1.00  0.00    -0.427 F  
HETATM   20  F   UNL     1     -11.702  14.716  69.173  1.00  0.00    -0.272 F  
HETATM   21  C   UNL     1      -7.490  12.840  67.272  1.00  0.00    -0.097 C  
HETATM   22  H   UNL     1      -6.967  14.708  66.631  1.00  0.00     0.000 HD 
HETATM   23  O   UNL     1      -6.386  12.356  67.029  1.00  0.00    -0.149 OA 
ENDBRANCH   6  11
ENDBRANCH   3   4
TORSDOF 2
ENDMDL
MODEL      249
REMARK 921   NORMALIZED FREE ENERGY PREDICTED BY IDOCK:   -2.49 KCAL/MOL
REMARK 922        TOTAL FREE ENERGY PREDICTED BY IDOCK:   -3.22 KCAL/MOL
REMARK 923 INTER-LIGAND FREE ENERGY PREDICTED BY IDOCK:   -2.78 KCAL/MOL
REMARK 924 INTRA-LIGAND FREE ENERGY PREDICTED BY IDOCK:   -0.43 KCAL/MOL
REMARK 927      BINDING AFFINITY PREDICTED BY RF-SCORE:    0.00 PKD
ROOT
HETATM    1  O5* UNL     1     -10.393  15.349  64.920  1.00  0.00    -0.396 OA 
HETATM    2  H5* UNL     1     -10.687  15.697  64.087  1.00  0.00     0.000 HD 
HETATM    3  C5* UNL     1     -10.261  13.929  64.878  1.00  0.00    -0.351 C  
ENDROOT
BRANCH   3   4
HETATM    4  C4* UNL     1      -9.787  13.370  66.219  1.00  0.00    -0.290 C  
HETATM    5  O4* UNL     1      -9.292  12.027  66.079  1.00  0.00    -0.233 OA 
HETATM    6  C1* UNL     1      -8.467  11.802  67.232  1.00  0.00    -0.160 C  
HETATM    7  C2* UNL     1      -7.764  13.129  67.506  1.00  0.00    -0.168 C  
HETATM    8  H3* UNL     1      -8.459  15.587  68.204  1.00  0.00     0.000 HD 
HETATM    9  O3* UNL     1      -9.166  15.089  67.811  1.00  0.00    -0.179 OA 
HETATM   10  C3* UNL     1      -8.651  14.171  66.851  1.00  0.00    -0.133 C  
BRANCH   6  11
HETATM   11  N   UNL     1      -7.567  10.665  67.043  1.00  0.00    -0.106 N  
HETATM   12  C   UNL     1      -7.323  10.126  65.792  1.00  0.00    -0.128 C  
HETATM   13  C   UNL     1      -6.379   8.404  64.270  1.00  0.00    -0.067 C  
HETATM   14  C   UNL     1      -6.605   9.008  65.606  1.00  0.00    -0.068 C  
HETATM   15  C   UNL     1      -6.050   8.342  66.790  1.00  0.00    -0.054 C  
HETATM   16  O   UNL     1      -5.438   7.282  66.747  1.00  0.00    -0.022 OA 
HETATM   17  N   UNL     1      -6.269   8.972  67.985  1.00  0.00    -0.051 N  
HETATM   18  F   UNL     1      -5.734   7.215  64.251  1.00  0.00    -0.031 F  
HETATM   19  F   UNL     1      -7.561   8.201  63.624  1.00  0.00    -0.102 F  
HETATM   20  F   UNL     1      -5.661   9.243  63.473  1.00  0.00    -0.077 F  
HETATM   21  C   UNL     1      -7.050  10.078  68.190  1.00  0.00    -0.080 C  
HETATM   22  H   UNL     1      -5.804   8.580  68.804  1.00  0.00     0.000 HD 
HETATM   23  O   UNL     1      -7.264  10.481  69.332  1.00  0.00    -0.089 OA 
ENDBRANCH   6  11
ENDBRANCH   3   4
TORSDOF 2
ENDMDL
MODEL      250
REMARK 921   NORMALIZED FREE ENERGY PREDICTED BY IDOCK:   -2.34 KCAL/MOL
REMARK 922        TOTAL FREE ENERGY PREDICTED BY IDOCK:   -3.04 KCAL/MOL
REMARK 923 INTER-LIGAND FREE ENERGY PREDICTED BY IDOCK:   -3.55 KCAL/MOL
REMARK 924 INTRA-LIGAND FREE ENERGY PREDICTED BY IDOCK:    0.51 KCAL/MOL
REMARK 927      BINDING AFFINITY PREDICTED BY RF-SCORE:    0.00 PKD
ROOT
HETATM    1  O5* UNL     1      -9.466   2.685  70.734  1.00  0.00    -0.140 OA 
HETATM    2  H5* UNL     1      -8.949   2.151  71.326  1.00  0.00     0.000 HD 
HETATM    3  C5* UNL     1      -8.674   3.699  70.117  1.00  0.00    -0.069 C  
ENDROOT
BRANCH   3   4
HETATM    4  C4* UNL     1      -9.506   4.558  69.166  1.00  0.00    -0.164 C  
HETATM    5  O4* UNL     1      -9.529   5.933  69.589  1.00  0.00    -0.140 OA 
HETATM    6  C1* UNL     1      -9.900   6.684  68.423  1.00  0.00    -0.138 C  
HETATM    7  C2* UNL     1      -9.225   5.986  67.246  1.00  0.00    -0.114 C  
HETATM    8  H3* UNL     1      -9.363   3.630  66.046  1.00  0.00     0.000 HD 
HETATM    9  O3* UNL     1      -9.689   3.622  66.938  1.00  0.00    -0.196 OA 
HETATM   10  C3* UNL     1      -8.982   4.571  67.732  1.00  0.00    -0.116 C  
BRANCH   6  11
HETATM   11  N   UNL     1      -9.568   8.102  68.562  1.00  0.00    -0.147 N  
HETATM   12  C   UNL     1     -10.520   9.046  68.906  1.00  0.00    -0.210 C  
HETATM   13  C   UNL     1     -11.302  11.379  69.242  1.00  0.00    -0.289 C  
HETATM   14  C   UNL     1     -10.271  10.364  68.915  1.00  0.00    -0.220 C  
HETATM   15  C   UNL     1      -8.922  10.812  68.551  1.00  0.00    -0.160 C  
HETATM   16  O   UNL     1      -8.600  11.990  68.459  1.00  0.00    -0.157 OA 
HETATM   17  N   UNL     1      -8.014   9.820  68.294  1.00  0.00    -0.096 N  
HETATM   18  F   UNL     1     -10.934  12.674  69.097  1.00  0.00    -0.262 F  
HETATM   19  F   UNL     1     -12.409  11.213  68.465  1.00  0.00    -0.334 F  
HETATM   20  F   UNL     1     -11.727  11.243  70.528  1.00  0.00    -0.378 F  
HETATM   21  C   UNL     1      -8.275   8.478  68.224  1.00  0.00    -0.123 C  
HETATM   22  H   UNL     1      -7.048  10.109  68.141  1.00  0.00     0.000 HD 
HETATM   23  O   UNL     1      -7.396   7.695  67.868  1.00  0.00    -0.096 OA 
ENDBRANCH   6  11
ENDBRANCH   3   4
TORSDOF 2
ENDMDL
MODEL      251
REMARK 921   NORMALIZED FREE ENERGY PREDICTED BY IDOCK:   -2.29 KCAL/MOL
REMARK 922        TOTAL FREE ENERGY PREDICTED BY IDOCK:   -2.99 KCAL/MOL
REMARK 923 INTER-LIGAND FREE ENERGY PREDICTED BY IDOCK:   -2.63 KCAL/MOL
REMARK 924 INTRA-LIGAND FREE ENERGY PREDICTED BY IDOCK:   -0.35 KCAL/MOL
REMARK 927      BINDING AFFINITY PREDICTED BY RF-SCORE:    0.00 PKD
ROOT
HETATM    1  O5* UNL     1      -8.678   6.711  69.602  1.00  0.00    -0.137 OA 
HETATM    2  H5* UNL     1      -8.732   5.861  69.184  1.00  0.00     0.000 HD 
HETATM    3  C5* UNL     1      -9.569   7.649  68.999  1.00  0.00    -0.151 C  
ENDROOT
BRANCH   3   4
HETATM    4  C4* UNL     1      -9.483   9.017  69.672  1.00  0.00    -0.171 C  
HETATM    5  O4* UNL     1      -8.956  10.009  68.773  1.00  0.00    -0.132 OA 
HETATM    6  C1* UNL     1      -9.362  11.274  69.319  1.00  0.00     0.225 C  
HETATM    7  C2* UNL     1     -10.758  11.050  69.892  1.00  0.00    -0.055 C  
HETATM    8  H3* UNL     1     -11.858   9.610  71.822  1.00  0.00     0.000 HD 
HETATM    9  O3* UNL     1     -11.020   9.274  71.528  1.00  0.00    -0.336 OA 
HETATM   10  C3* UNL     1     -10.831   9.556  70.144  1.00  0.00    -0.258 C  
BRANCH   6  11
HETATM   11  N   UNL     1      -9.275  12.346  68.329  1.00  0.00    -0.202 N  
HETATM   12  C   UNL     1     -10.378  12.759  67.600  1.00  0.00    -0.221 C  
HETATM   13  C   UNL     1     -11.473  14.059  65.789  1.00  0.00    -0.318 C  
HETATM   14  C   UNL     1     -10.300  13.649  66.599  1.00  0.00    -0.275 C  
HETATM   15  C   UNL     1      -8.983  14.209  66.278  1.00  0.00     0.060 C  
HETATM   16  O   UNL     1      -8.781  14.976  65.345  1.00  0.00     1.036 OA 
HETATM   17  N   UNL     1      -7.953  13.811  67.088  1.00  0.00    -0.357 N  
HETATM   18  F   UNL     1     -11.219  14.876  64.740  1.00  0.00    -0.349 F  
HETATM   19  F   UNL     1     -12.110  12.972  65.273  1.00  0.00    -0.371 F  
HETATM   20  F   UNL     1     -12.395  14.700  66.559  1.00  0.00    -0.382 F  
HETATM   21  C   UNL     1      -8.012  12.860  68.070  1.00  0.00    -0.158 C  
HETATM   22  H   UNL     1      -7.052  14.269  66.944  1.00  0.00     0.000 HD 
HETATM   23  O   UNL     1      -6.988  12.505  68.650  1.00  0.00    -0.081 OA 
ENDBRANCH   6  11
ENDBRANCH   3   4
TORSDOF 2
ENDMDL
MODEL      252
REMARK 921   NORMALIZED FREE ENERGY PREDICTED BY IDOCK:   -2.22 KCAL/MOL
REMARK 922        TOTAL FREE ENERGY PREDICTED BY IDOCK:   -2.91 KCAL/MOL
REMARK 923 INTER-LIGAND FREE ENERGY PREDICTED BY IDOCK:   -3.32 KCAL/MOL
REMARK 924 INTRA-LIGAND FREE ENERGY PREDICTED BY IDOCK:    0.41 KCAL/MOL
REMARK 927      BINDING AFFINITY PREDICTED BY RF-SCORE:    0.00 PKD
ROOT
HETATM    1  O5* UNL     1      -8.198   4.297  74.529  1.00  0.00    -0.089 OA 
HETATM    2  H5* UNL     1      -7.963   4.655  75.377  1.00  0.00     0.000 HD 
HETATM    3  C5* UNL     1      -9.504   4.712  74.130  1.00  0.00    -0.118 C  
ENDROOT
BRANCH   3   4
HETATM    4  C4* UNL     1      -9.882   4.136  72.766  1.00  0.00    -0.145 C  
HETATM    5  O4* UNL     1     -10.385   5.159  71.889  1.00  0.00    -0.203 OA 
HETATM    6  C1* UNL     1     -10.246   4.626  70.562  1.00  0.00    -0.141 C  
HETATM    7  C2* UNL     1      -8.944   3.830  70.568  1.00  0.00    -0.158 C  
HETATM    8  H3* UNL     1      -7.988   1.676  71.775  1.00  0.00     0.000 HD 
HETATM    9  O3* UNL     1      -8.715   2.079  72.235  1.00  0.00    -0.063 OA 
HETATM   10  C3* UNL     1      -8.713   3.488  72.027  1.00  0.00    -0.090 C  
BRANCH   6  11
HETATM   11  N   UNL     1     -10.314   5.674  69.545  1.00  0.00    -0.248 N  
HETATM   12  C   UNL     1      -9.744   5.517  68.294  1.00  0.00    -0.132 C  
HETATM   13  C   UNL     1      -9.033   6.352  66.065  1.00  0.00    -0.130 C  
HETATM   14  C   UNL     1      -9.681   6.507  67.390  1.00  0.00    -0.150 C  
HETATM   15  C   UNL     1     -10.254   7.807  67.754  1.00  0.00    -0.212 C  
HETATM   16  O   UNL     1     -10.194   8.799  67.038  1.00  0.00    -0.234 OA 
HETATM   17  N   UNL     1     -10.865   7.868  68.978  1.00  0.00    -0.417 N  
HETATM   18  F   UNL     1      -8.945   7.470  65.308  1.00  0.00    -0.091 F  
HETATM   19  F   UNL     1      -7.760   5.887  66.200  1.00  0.00    -0.093 F  
HETATM   20  F   UNL     1      -9.687   5.428  65.309  1.00  0.00    -0.083 F  
HETATM   21  C   UNL     1     -10.881   6.883  69.928  1.00  0.00    -0.257 C  
HETATM   22  H   UNL     1     -11.358   8.732  69.203  1.00  0.00     0.000 HD 
HETATM   23  O   UNL     1     -11.363   7.101  71.038  1.00  0.00    -0.259 OA 
ENDBRANCH   6  11
ENDBRANCH   3   4
TORSDOF 2
ENDMDL
MODEL      253
REMARK 921   NORMALIZED FREE ENERGY PREDICTED BY IDOCK:   -2.22 KCAL/MOL
REMARK 922        TOTAL FREE ENERGY PREDICTED BY IDOCK:   -2.91 KCAL/MOL
REMARK 923 INTER-LIGAND FREE ENERGY PREDICTED BY IDOCK:   -3.08 KCAL/MOL
REMARK 924 INTRA-LIGAND FREE ENERGY PREDICTED BY IDOCK:    0.18 KCAL/MOL
REMARK 927      BINDING AFFINITY PREDICTED BY RF-SCORE:    0.00 PKD
ROOT
HETATM    1  O5* UNL     1      -9.966   3.822  71.574  1.00  0.00    -0.179 OA 
HETATM    2  H5* UNL     1      -9.844   2.889  71.441  1.00  0.00     0.000 HD 
HETATM    3  C5* UNL     1      -9.615   4.567  70.409  1.00  0.00    -0.200 C  
ENDROOT
BRANCH   3   4
HETATM    4  C4* UNL     1      -9.812   6.067  70.623  1.00  0.00    -0.181 C  
HETATM    5  O4* UNL     1      -8.847   6.831  69.877  1.00  0.00    -0.140 OA 
HETATM    6  C1* UNL     1      -9.406   8.149  69.768  1.00  0.00    -0.159 C  
HETATM    7  C2* UNL     1     -10.910   7.950  69.595  1.00  0.00    -0.177 C  
HETATM    8  H3* UNL     1     -12.916   6.973  71.019  1.00  0.00     0.000 HD 
HETATM    9  O3* UNL     1     -12.065   6.655  71.295  1.00  0.00    -0.348 OA 
HETATM   10  C3* UNL     1     -11.181   6.577  70.180  1.00  0.00    -0.377 C  
BRANCH   6  11
HETATM   11  N   UNL     1      -8.769   8.923  68.704  1.00  0.00    -0.133 N  
HETATM   12  C   UNL     1      -8.276  10.198  68.922  1.00  0.00    -0.124 C  
HETATM   13  C   UNL     1      -7.314  12.359  68.163  1.00  0.00    -0.111 C  
HETATM   14  C   UNL     1      -7.803  10.977  67.936  1.00  0.00    -0.110 C  
HETATM   15  C   UNL     1      -7.808  10.438  66.572  1.00  0.00    -0.124 C  
HETATM   16  O   UNL     1      -7.464  11.080  65.588  1.00  0.00    -0.025 OA 
HETATM   17  N   UNL     1      -8.241   9.145  66.443  1.00  0.00    -0.113 N  
HETATM   18  F   UNL     1      -6.977  13.062  67.057  1.00  0.00    -0.129 F  
HETATM   19  F   UNL     1      -8.251  13.104  68.812  1.00  0.00    -0.129 F  
HETATM   20  F   UNL     1      -6.216  12.360  68.967  1.00  0.00    -0.062 F  
HETATM   21  C   UNL     1      -8.779   8.366  67.432  1.00  0.00    -0.135 C  
HETATM   22  H   UNL     1      -8.153   8.721  65.520  1.00  0.00     0.000 HD 
HETATM   23  O   UNL     1      -9.243   7.259  67.164  1.00  0.00    -0.128 OA 
ENDBRANCH   6  11
ENDBRANCH   3   4
TORSDOF 2
ENDMDL
MODEL      254
REMARK 921   NORMALIZED FREE ENERGY PREDICTED BY IDOCK:   -2.15 KCAL/MOL
REMARK 922        TOTAL FREE ENERGY PREDICTED BY IDOCK:   -2.83 KCAL/MOL
REMARK 923 INTER-LIGAND FREE ENERGY PREDICTED BY IDOCK:   -3.06 KCAL/MOL
REMARK 924 INTRA-LIGAND FREE ENERGY PREDICTED BY IDOCK:    0.23 KCAL/MOL
REMARK 927      BINDING AFFINITY PREDICTED BY RF-SCORE:    0.00 PKD
ROOT
HETATM    1  O5* UNL     1      -8.178   9.206  69.906  1.00  0.00    -0.112 OA 
HETATM    2  H5* UNL     1      -7.753   9.615  70.650  1.00  0.00     0.000 HD 
HETATM    3  C5* UNL     1      -7.914   9.918  68.697  1.00  0.00    -0.087 C  
ENDROOT
BRANCH   3   4
HETATM    4  C4* UNL     1      -8.598   9.261  67.499  1.00  0.00    -0.116 C  
HETATM    5  O4* UNL     1      -8.112   7.923  67.291  1.00  0.00    -0.115 OA 
HETATM    6  C1* UNL     1      -9.118   7.271  66.500  1.00  0.00    -0.155 C  
HETATM    7  C2* UNL     1     -10.455   7.808  67.003  1.00  0.00    -0.419 C  
HETATM    8  H3* UNL     1     -11.707  10.140  67.077  1.00  0.00     0.000 HD 
HETATM    9  O3* UNL     1     -10.765  10.217  66.985  1.00  0.00    -0.253 OA 
HETATM   10  C3* UNL     1     -10.112   9.138  67.648  1.00  0.00    -0.220 C  
BRANCH   6  11
HETATM   11  N   UNL     1      -8.990   5.815  66.551  1.00  0.00    -0.125 N  
HETATM   12  C   UNL     1      -9.329   5.013  65.475  1.00  0.00    -0.140 C  
HETATM   13  C   UNL     1      -9.747   2.814  64.399  1.00  0.00    -0.124 C  
HETATM   14  C   UNL     1      -9.342   3.673  65.539  1.00  0.00    -0.160 C  
HETATM   15  C   UNL     1      -8.970   3.041  66.809  1.00  0.00    -0.159 C  
HETATM   16  O   UNL     1      -9.011   1.833  67.003  1.00  0.00    -0.123 OA 
HETATM   17  N   UNL     1      -8.576   3.893  67.805  1.00  0.00    -0.095 N  
HETATM   18  F   UNL     1      -9.822   1.486  64.649  1.00  0.00    -0.117 F  
HETATM   19  F   UNL     1     -10.973   3.178  63.929  1.00  0.00    -0.239 F  
HETATM   20  F   UNL     1      -8.890   2.959  63.352  1.00  0.00    -0.091 F  
HETATM   21  C   UNL     1      -8.617   5.261  67.768  1.00  0.00    -0.104 C  
HETATM   22  H   UNL     1      -8.215   3.467  68.659  1.00  0.00     0.000 HD 
HETATM   23  O   UNL     1      -8.347   5.916  68.774  1.00  0.00    -0.105 OA 
ENDBRANCH   6  11
ENDBRANCH   3   4
TORSDOF 2
ENDMDL
MODEL      255
REMARK 921   NORMALIZED FREE ENERGY PREDICTED BY IDOCK:   -2.13 KCAL/MOL
REMARK 922        TOTAL FREE ENERGY PREDICTED BY IDOCK:   -2.81 KCAL/MOL
REMARK 923 INTER-LIGAND FREE ENERGY PREDICTED BY IDOCK:   -3.02 KCAL/MOL
REMARK 924 INTRA-LIGAND FREE ENERGY PREDICTED BY IDOCK:    0.21 KCAL/MOL
REMARK 927      BINDING AFFINITY PREDICTED BY RF-SCORE:    0.00 PKD
ROOT
HETATM    1  O5* UNL     1      -9.500   5.473  74.292  1.00  0.00    -0.132 OA 
HETATM    2  H5* UNL     1      -9.820   5.204  75.145  1.00  0.00     0.000 HD 
HETATM    3  C5* UNL     1      -9.150   4.348  73.486  1.00  0.00    -0.105 C  
ENDROOT
BRANCH   3   4
HETATM    4  C4* UNL     1      -8.637   4.782  72.114  1.00  0.00    -0.120 C  
HETATM    5  O4* UNL     1      -9.490   5.781  71.529  1.00  0.00    -0.149 OA 
HETATM    6  C1* UNL     1      -8.688   6.431  70.531  1.00  0.00    -0.144 C  
HETATM    7  C2* UNL     1      -7.278   6.500  71.110  1.00  0.00    -0.078 C  
HETATM    8  H3* UNL     1      -5.390   4.791  71.835  1.00  0.00     0.000 HD 
HETATM    9  O3* UNL     1      -6.260   4.411  71.816  1.00  0.00    -0.016 OA 
HETATM   10  C3* UNL     1      -7.238   5.393  72.146  1.00  0.00    -0.088 C  
BRANCH   6  11
HETATM   11  N   UNL     1      -9.249   7.724  70.140  1.00  0.00    -0.153 N  
HETATM   12  C   UNL     1      -9.057   8.252  68.875  1.00  0.00    -0.147 C  
HETATM   13  C   UNL     1      -9.207  10.071  67.190  1.00  0.00    -0.141 C  
HETATM   14  C   UNL     1      -9.451   9.488  68.532  1.00  0.00    -0.146 C  
HETATM   15  C   UNL     1     -10.121  10.303  69.550  1.00  0.00    -0.235 C  
HETATM   16  O   UNL     1     -10.463  11.466  69.372  1.00  0.00    -0.138 OA 
HETATM   17  N   UNL     1     -10.343   9.690  70.754  1.00  0.00    -0.300 N  
HETATM   18  F   UNL     1      -9.558  11.368  67.028  1.00  0.00    -0.174 F  
HETATM   19  F   UNL     1      -7.888   9.994  66.860  1.00  0.00    -0.102 F  
HETATM   20  F   UNL     1      -9.872   9.372  66.229  1.00  0.00    -0.254 F  
HETATM   21  C   UNL     1      -9.892   8.453  71.131  1.00  0.00    -0.192 C  
HETATM   22  H   UNL     1     -10.899  10.205  71.438  1.00  0.00     0.000 HD 
HETATM   23  O   UNL     1     -10.055   8.061  72.285  1.00  0.00    -0.204 OA 
ENDBRANCH   6  11
ENDBRANCH   3   4
TORSDOF 2
ENDMDL
MODEL      256
REMARK 921   NORMALIZED FREE ENERGY PREDICTED BY IDOCK:   -2.08 KCAL/MOL
REMARK 922        TOTAL FREE ENERGY PREDICTED BY IDOCK:   -2.76 KCAL/MOL
REMARK 923 INTER-LIGAND FREE ENERGY PREDICTED BY IDOCK:   -2.78 KCAL/MOL
REMARK 924 INTRA-LIGAND FREE ENERGY PREDICTED BY IDOCK:    0.02 KCAL/MOL
REMARK 927      BINDING AFFINITY PREDICTED BY RF-SCORE:    0.00 PKD
ROOT
HETATM    1  O5* UNL     1      -5.828  12.013  68.275  1.00  0.00    -0.049 OA 
HETATM    2  H5* UNL     1      -5.443  12.832  68.562  1.00  0.00     0.000 HD 
HETATM    3  C5* UNL     1      -5.794  11.028  69.308  1.00  0.00    -0.043 C  
ENDROOT
BRANCH   3   4
HETATM    4  C4* UNL     1      -6.414   9.711  68.847  1.00  0.00    -0.046 C  
HETATM    5  O4* UNL     1      -6.814   8.902  69.967  1.00  0.00    -0.040 OA 
HETATM    6  C1* UNL     1      -7.774   7.971  69.443  1.00  0.00    -0.104 C  
HETATM    7  C2* UNL     1      -8.576   8.745  68.399  1.00  0.00    -0.134 C  
HETATM    8  H3* UNL     1      -8.112   9.922  66.074  1.00  0.00     0.000 HD 
HETATM    9  O3* UNL     1      -7.333   9.813  66.607  1.00  0.00    -0.092 OA 
HETATM   10  C3* UNL     1      -7.665   9.887  67.990  1.00  0.00    -0.086 C  
BRANCH   6  11
HETATM   11  N   UNL     1      -8.579   7.366  70.502  1.00  0.00    -0.137 N  
HETATM   12  C   UNL     1      -8.737   5.995  70.608  1.00  0.00    -0.138 C  
HETATM   13  C   UNL     1      -9.773   3.954  71.574  1.00  0.00    -0.177 C  
HETATM   14  C   UNL     1      -9.571   5.421  71.490  1.00  0.00    -0.195 C  
HETATM   15  C   UNL     1     -10.336   6.298  72.383  1.00  0.00    -0.191 C  
HETATM   16  O   UNL     1     -11.173   5.891  73.178  1.00  0.00    -0.251 OA 
HETATM   17  N   UNL     1     -10.073   7.637  72.272  1.00  0.00    -0.196 N  
HETATM   18  F   UNL     1     -10.730   3.531  72.433  1.00  0.00    -0.203 F  
HETATM   19  F   UNL     1     -10.105   3.440  70.358  1.00  0.00    -0.189 F  
HETATM   20  F   UNL     1      -8.623   3.326  71.942  1.00  0.00    -0.075 F  
HETATM   21  C   UNL     1      -9.272   8.233  71.337  1.00  0.00    -0.169 C  
HETATM   22  H   UNL     1     -10.519   8.251  72.954  1.00  0.00     0.000 HD 
HETATM   23  O   UNL     1      -9.210   9.459  71.266  1.00  0.00    -0.262 OA 
ENDBRANCH   6  11
ENDBRANCH   3   4
TORSDOF 2
ENDMDL
MODEL      257
REMARK 921   NORMALIZED FREE ENERGY PREDICTED BY IDOCK:   -2.07 KCAL/MOL
REMARK 922        TOTAL FREE ENERGY PREDICTED BY IDOCK:   -2.74 KCAL/MOL
REMARK 923 INTER-LIGAND FREE ENERGY PREDICTED BY IDOCK:   -2.94 KCAL/MOL
REMARK 924 INTRA-LIGAND FREE ENERGY PREDICTED BY IDOCK:    0.20 KCAL/MOL
REMARK 927      BINDING AFFINITY PREDICTED BY RF-SCORE:    0.00 PKD
ROOT
HETATM    1  O5* UNL     1     -12.599   8.224  72.684  1.00  0.00    -0.582 OA 
HETATM    2  H5* UNL     1     -13.377   8.769  72.691  1.00  0.00     0.000 HD 
HETATM    3  C5* UNL     1     -11.660   8.663  71.703  1.00  0.00    -0.310 C  
ENDROOT
BRANCH   3   4
HETATM    4  C4* UNL     1     -10.410   7.785  71.692  1.00  0.00    -0.197 C  
HETATM    5  O4* UNL     1      -9.873   7.660  70.363  1.00  0.00    -0.183 OA 
HETATM    6  C1* UNL     1      -8.508   7.252  70.541  1.00  0.00    -0.138 C  
HETATM    7  C2* UNL     1      -8.011   7.990  71.781  1.00  0.00    -0.133 C  
HETATM    8  H3* UNL     1      -8.568   8.035  74.369  1.00  0.00     0.000 HD 
HETATM    9  O3* UNL     1      -9.277   7.699  73.833  1.00  0.00    -0.262 OA 
HETATM   10  C3* UNL     1      -9.271   8.326  72.554  1.00  0.00    -0.269 C  
BRANCH   6  11
HETATM   11  N   UNL     1      -7.711   7.481  69.337  1.00  0.00    -0.109 N  
HETATM   12  C   UNL     1      -8.296   7.789  68.121  1.00  0.00    -0.124 C  
HETATM   13  C   UNL     1      -8.232   8.167  65.666  1.00  0.00    -0.133 C  
HETATM   14  C   UNL     1      -7.599   7.879  66.977  1.00  0.00    -0.100 C  
HETATM   15  C   UNL     1      -6.152   7.647  67.033  1.00  0.00    -0.051 C  
HETATM   16  O   UNL     1      -5.428   7.636  66.046  1.00  0.00    -0.028 OA 
HETATM   17  N   UNL     1      -5.633   7.420  68.280  1.00  0.00    -0.025 N  
HETATM   18  F   UNL     1      -7.419   8.112  64.585  1.00  0.00    -0.078 F  
HETATM   19  F   UNL     1      -9.249   7.296  65.417  1.00  0.00    -0.015 F  
HETATM   20  F   UNL     1      -8.794   9.407  65.660  1.00  0.00    -0.146 F  
HETATM   21  C   UNL     1      -6.343   7.268  69.440  1.00  0.00    -0.035 C  
HETATM   22  H   UNL     1      -4.617   7.359  68.350  1.00  0.00     0.000 HD 
HETATM   23  O   UNL     1      -5.768   6.948  70.479  1.00  0.00    -0.023 OA 
ENDBRANCH   6  11
ENDBRANCH   3   4
TORSDOF 2
ENDMDL
MODEL      258
REMARK 921   NORMALIZED FREE ENERGY PREDICTED BY IDOCK:   -2.02 KCAL/MOL
REMARK 922        TOTAL FREE ENERGY PREDICTED BY IDOCK:   -2.69 KCAL/MOL
REMARK 923 INTER-LIGAND FREE ENERGY PREDICTED BY IDOCK:   -2.77 KCAL/MOL
REMARK 924 INTRA-LIGAND FREE ENERGY PREDICTED BY IDOCK:    0.08 KCAL/MOL
REMARK 927      BINDING AFFINITY PREDICTED BY RF-SCORE:    0.00 PKD
ROOT
HETATM    1  O5* UNL     1     -10.831  11.366  69.398  1.00  0.00    -0.335 OA 
HETATM    2  H5* UNL     1     -11.512  11.345  70.060  1.00  0.00     0.000 HD 
HETATM    3  C5* UNL     1      -9.803  10.415  69.674  1.00  0.00    -0.144 C  
ENDROOT
BRANCH   3   4
HETATM    4  C4* UNL     1      -8.708  10.450  68.609  1.00  0.00    -0.138 C  
HETATM    5  O4* UNL     1      -8.551   9.165  67.981  1.00  0.00    -0.124 OA 
HETATM    6  C1* UNL     1      -7.886   9.428  66.736  1.00  0.00    -0.105 C  
HETATM    7  C2* UNL     1      -8.454  10.752  66.232  1.00  0.00    -0.161 C  
HETATM    8  H3* UNL     1      -8.472  13.281  67.015  1.00  0.00     0.000 HD 
HETATM    9  O3* UNL     1      -8.302  12.667  67.719  1.00  0.00    -0.148 OA 
HETATM   10  C3* UNL     1      -8.981  11.438  67.478  1.00  0.00    -0.150 C  
BRANCH   6  11
HETATM   11  N   UNL     1      -8.023   8.313  65.800  1.00  0.00    -0.094 N  
HETATM   12  C   UNL     1      -8.505   7.078  66.199  1.00  0.00    -0.135 C  
HETATM   13  C   UNL     1      -8.997   4.671  65.834  1.00  0.00    -0.127 C  
HETATM   14  C   UNL     1      -8.521   6.005  65.394  1.00  0.00    -0.145 C  
HETATM   15  C   UNL     1      -8.009   6.163  64.028  1.00  0.00    -0.110 C  
HETATM   16  O   UNL     1      -7.913   5.240  63.230  1.00  0.00    -0.083 OA 
HETATM   17  N   UNL     1      -7.618   7.428  63.681  1.00  0.00    -0.115 N  
HETATM   18  F   UNL     1      -8.845   3.659  64.948  1.00  0.00    -0.112 F  
HETATM   19  F   UNL     1      -8.355   4.277  66.969  1.00  0.00    -0.100 F  
HETATM   20  F   UNL     1     -10.321   4.708  66.150  1.00  0.00    -0.225 F  
HETATM   21  C   UNL     1      -7.543   8.512  64.512  1.00  0.00    -0.115 C  
HETATM   22  H   UNL     1      -7.358   7.577  62.705  1.00  0.00     0.000 HD 
HETATM   23  O   UNL     1      -7.061   9.570  64.109  1.00  0.00    -0.103 OA 
ENDBRANCH   6  11
ENDBRANCH   3   4
TORSDOF 2
ENDMDL
MODEL      259
REMARK 921   NORMALIZED FREE ENERGY PREDICTED BY IDOCK:   -1.95 KCAL/MOL
REMARK 922        TOTAL FREE ENERGY PREDICTED BY IDOCK:   -2.60 KCAL/MOL
REMARK 923 INTER-LIGAND FREE ENERGY PREDICTED BY IDOCK:   -3.59 KCAL/MOL
REMARK 924 INTRA-LIGAND FREE ENERGY PREDICTED BY IDOCK:    0.98 KCAL/MOL
REMARK 927      BINDING AFFINITY PREDICTED BY RF-SCORE:    0.00 PKD
ROOT
HETATM    1  O5* UNL     1      -9.791   4.808  67.215  1.00  0.00    -0.169 OA 
HETATM    2  H5* UNL     1      -9.625   4.052  67.765  1.00  0.00     0.000 HD 
HETATM    3  C5* UNL     1      -8.637   5.169  66.458  1.00  0.00    -0.111 C  
ENDROOT
BRANCH   3   4
HETATM    4  C4* UNL     1      -8.906   6.385  65.573  1.00  0.00    -0.012 C  
HETATM    5  O4* UNL     1      -9.205   7.549  66.363  1.00  0.00    -0.166 OA 
HETATM    6  C1* UNL     1      -8.964   8.670  65.499  1.00  0.00    -0.158 C  
HETATM    7  C2* UNL     1      -7.751   8.290  64.654  1.00  0.00    -0.117 C  
HETATM    8  H3* UNL     1      -7.147   6.467  62.831  1.00  0.00     0.000 HD 
HETATM    9  O3* UNL     1      -7.882   6.225  63.382  1.00  0.00    -0.103 OA 
HETATM   10  C3* UNL     1      -7.724   6.774  64.687  1.00  0.00    -0.112 C  
BRANCH   6  11
HETATM   11  N   UNL     1      -8.815   9.915  66.251  1.00  0.00    -0.141 N  
HETATM   12  C   UNL     1      -9.816  10.394  67.078  1.00  0.00    -0.191 C  
HETATM   13  C   UNL     1     -10.848  12.125  68.531  1.00  0.00    -0.236 C  
HETATM   14  C   UNL     1      -9.756  11.592  67.678  1.00  0.00    -0.186 C  
HETATM   15  C   UNL     1      -8.567  12.420  67.446  1.00  0.00    -0.181 C  
HETATM   16  O   UNL     1      -8.434  13.555  67.885  1.00  0.00    -0.154 OA 
HETATM   17  N   UNL     1      -7.587  11.851  66.677  1.00  0.00    -0.367 N  
HETATM   18  F   UNL     1     -10.695  13.395  68.973  1.00  0.00    -0.237 F  
HETATM   19  F   UNL     1     -12.037  12.097  67.868  1.00  0.00    -0.401 F  
HETATM   20  F   UNL     1     -11.021  11.352  69.637  1.00  0.00    -0.269 F  
HETATM   21  C   UNL     1      -7.665  10.657  66.014  1.00  0.00    -0.151 C  
HETATM   22  H   UNL     1      -6.712  12.369  66.591  1.00  0.00     0.000 HD 
HETATM   23  O   UNL     1      -6.760  10.309  65.257  1.00  0.00    -0.124 OA 
ENDBRANCH   6  11
ENDBRANCH   3   4
TORSDOF 2
ENDMDL
MODEL      260
REMARK 921   NORMALIZED FREE ENERGY PREDICTED BY IDOCK:   -1.88 KCAL/MOL
REMARK 922        TOTAL FREE ENERGY PREDICTED BY IDOCK:   -2.53 KCAL/MOL
REMARK 923 INTER-LIGAND FREE ENERGY PREDICTED BY IDOCK:   -2.24 KCAL/MOL
REMARK 924 INTRA-LIGAND FREE ENERGY PREDICTED BY IDOCK:   -0.29 KCAL/MOL
REMARK 927      BINDING AFFINITY PREDICTED BY RF-SCORE:    0.00 PKD
ROOT
HETATM    1  O5* UNL     1      -7.506  10.121  64.126  1.00  0.00    -0.137 OA 
HETATM    2  H5* UNL     1      -7.406   9.831  63.228  1.00  0.00     0.000 HD 
HETATM    3  C5* UNL     1      -7.450   9.026  65.040  1.00  0.00    -0.097 C  
ENDROOT
BRANCH   3   4
HETATM    4  C4* UNL     1      -7.610   9.493  66.485  1.00  0.00    -0.094 C  
HETATM    5  O4* UNL     1      -8.198   8.467  67.303  1.00  0.00    -0.111 OA 
HETATM    6  C1* UNL     1      -7.862   8.816  68.655  1.00  0.00    -0.103 C  
HETATM    7  C2* UNL     1      -6.451   9.396  68.596  1.00  0.00    -0.052 C  
HETATM    8  H3* UNL     1      -5.259  11.499  67.518  1.00  0.00     0.000 HD 
HETATM    9  O3* UNL     1      -6.079  11.270  67.097  1.00  0.00    -0.069 OA 
HETATM   10  C3* UNL     1      -6.292   9.863  67.162  1.00  0.00    -0.068 C  
BRANCH   6  11
HETATM   11  N   UNL     1      -8.015   7.681  69.564  1.00  0.00    -0.122 N  
HETATM   12  C   UNL     1      -8.113   6.381  69.100  1.00  0.00    -0.111 C  
HETATM   13  C   UNL     1      -8.529   3.950  69.398  1.00  0.00    -0.064 C  
HETATM   14  C   UNL     1      -8.381   5.338  69.901  1.00  0.00    -0.094 C  
HETATM   15  C   UNL     1      -8.568   5.600  71.332  1.00  0.00    -0.132 C  
HETATM   16  O   UNL     1      -8.881   4.738  72.144  1.00  0.00    -0.122 OA 
HETATM   17  N   UNL     1      -8.383   6.897  71.729  1.00  0.00    -0.109 N  
HETATM   18  F   UNL     1      -8.913   3.023  70.306  1.00  0.00    -0.111 F  
HETATM   19  F   UNL     1      -9.445   3.894  68.392  1.00  0.00    -0.179 F  
HETATM   20  F   UNL     1      -7.361   3.500  68.862  1.00  0.00    -0.048 F  
HETATM   21  C   UNL     1      -8.169   7.974  70.912  1.00  0.00    -0.103 C  
HETATM   22  H   UNL     1      -8.407   7.078  72.733  1.00  0.00     0.000 HD 
HETATM   23  O   UNL     1      -8.138   9.110  71.382  1.00  0.00    -0.318 OA 
ENDBRANCH   6  11
ENDBRANCH   3   4
TORSDOF 2
ENDMDL
MODEL      261
REMARK 921   NORMALIZED FREE ENERGY PREDICTED BY IDOCK:   -1.72 KCAL/MOL
REMARK 922        TOTAL FREE ENERGY PREDICTED BY IDOCK:   -2.36 KCAL/MOL
REMARK 923 INTER-LIGAND FREE ENERGY PREDICTED BY IDOCK:   -2.92 KCAL/MOL
REMARK 924 INTRA-LIGAND FREE ENERGY PREDICTED BY IDOCK:    0.57 KCAL/MOL
REMARK 927      BINDING AFFINITY PREDICTED BY RF-SCORE:    0.00 PKD
ROOT
HETATM    1  O5* UNL     1     -10.042  10.583  70.151  1.00  0.00    -0.426 OA 
HETATM    2  H5* UNL     1     -10.731  11.196  69.927  1.00  0.00     0.000 HD 
HETATM    3  C5* UNL     1     -10.536   9.508  70.950  1.00  0.00    -0.325 C  
ENDROOT
BRANCH   3   4
HETATM    4  C4* UNL     1      -9.427   8.521  71.310  1.00  0.00    -0.205 C  
HETATM    5  O4* UNL     1      -9.729   7.199  70.829  1.00  0.00    -0.172 OA 
HETATM    6  C1* UNL     1      -8.470   6.510  70.791  1.00  0.00    -0.134 C  
HETATM    7  C2* UNL     1      -7.440   7.549  70.354  1.00  0.00    -0.081 C  
HETATM    8  H3* UNL     1      -6.432   9.804  71.305  1.00  0.00     0.000 HD 
HETATM    9  O3* UNL     1      -7.278   9.581  71.674  1.00  0.00    -0.307 OA 
HETATM   10  C3* UNL     1      -8.067   8.881  70.716  1.00  0.00    -0.156 C  
BRANCH   6  11
HETATM   11  N   UNL     1      -8.528   5.318  69.946  1.00  0.00    -0.097 N  
HETATM   12  C   UNL     1      -7.390   4.604  69.611  1.00  0.00    -0.051 C  
HETATM   13  C   UNL     1      -6.174   2.847  68.344  1.00  0.00    -0.029 C  
HETATM   14  C   UNL     1      -7.399   3.585  68.737  1.00  0.00    -0.050 C  
HETATM   15  C   UNL     1      -8.679   3.217  68.123  1.00  0.00    -0.107 C  
HETATM   16  O   UNL     1      -8.795   2.351  67.265  1.00  0.00    -0.114 OA 
HETATM   17  N   UNL     1      -9.772   3.918  68.558  1.00  0.00    -0.101 N  
HETATM   18  F   UNL     1      -6.320   1.922  67.367  1.00  0.00    -0.023 F  
HETATM   19  F   UNL     1      -5.210   3.705  67.909  1.00  0.00    -0.009 F  
HETATM   20  F   UNL     1      -5.636   2.195  69.412  1.00  0.00    -0.014 F  
HETATM   21  C   UNL     1      -9.763   4.995  69.402  1.00  0.00    -0.184 C  
HETATM   22  H   UNL     1     -10.683   3.606  68.219  1.00  0.00     0.000 HD 
HETATM   23  O   UNL     1     -10.802   5.616  69.624  1.00  0.00    -0.337 OA 
ENDBRANCH   6  11
ENDBRANCH   3   4
TORSDOF 2
ENDMDL
MODEL      262
REMARK 921   NORMALIZED FREE ENERGY PREDICTED BY IDOCK:   -1.69 KCAL/MOL
REMARK 922        TOTAL FREE ENERGY PREDICTED BY IDOCK:   -2.31 KCAL/MOL
REMARK 923 INTER-LIGAND FREE ENERGY PREDICTED BY IDOCK:   -1.94 KCAL/MOL
REMARK 924 INTRA-LIGAND FREE ENERGY PREDICTED BY IDOCK:   -0.37 KCAL/MOL
REMARK 927      BINDING AFFINITY PREDICTED BY RF-SCORE:    0.00 PKD
ROOT
HETATM    1  O5* UNL     1      -6.762   4.220  71.192  1.00  0.00    -0.029 OA 
HETATM    2  H5* UNL     1      -6.572   3.290  71.194  1.00  0.00     0.000 HD 
HETATM    3  C5* UNL     1      -7.672   4.567  70.149  1.00  0.00    -0.053 C  
ENDROOT
BRANCH   3   4
HETATM    4  C4* UNL     1      -7.976   6.064  70.146  1.00  0.00    -0.106 C  
HETATM    5  O4* UNL     1      -7.488   6.693  68.948  1.00  0.00    -0.091 OA 
HETATM    6  C1* UNL     1      -8.223   7.922  68.835  1.00  0.00    -0.126 C  
HETATM    7  C2* UNL     1      -9.634   7.609  69.325  1.00  0.00    -0.159 C  
HETATM    8  H3* UNL     1     -10.783   6.868  71.592  1.00  0.00     0.000 HD 
HETATM    9  O3* UNL     1      -9.856   6.666  71.552  1.00  0.00    -0.172 OA 
HETATM   10  C3* UNL     1      -9.467   6.388  70.210  1.00  0.00    -0.161 C  
BRANCH   6  11
HETATM   11  N   UNL     1      -8.157   8.472  67.482  1.00  0.00    -0.106 N  
HETATM   12  C   UNL     1      -8.021   7.661  66.369  1.00  0.00    -0.107 C  
HETATM   13  C   UNL     1      -7.643   7.276  63.944  1.00  0.00    -0.110 C  
HETATM   14  C   UNL     1      -7.831   8.145  65.131  1.00  0.00    -0.118 C  
HETATM   15  C   UNL     1      -7.776   9.601  64.963  1.00  0.00    -0.119 C  
HETATM   16  O   UNL     1      -7.541  10.152  63.896  1.00  0.00    -0.144 OA 
HETATM   17  N   UNL     1      -7.992  10.340  66.096  1.00  0.00    -0.126 N  
HETATM   18  F   UNL     1      -7.346   7.905  62.783  1.00  0.00    -0.086 F  
HETATM   19  F   UNL     1      -6.638   6.380  64.153  1.00  0.00    -0.031 F  
HETATM   20  F   UNL     1      -8.758   6.533  63.703  1.00  0.00     0.129 F  
HETATM   21  C   UNL     1      -8.126   9.856  67.369  1.00  0.00    -0.113 C  
HETATM   22  H   UNL     1      -8.059  11.351  65.979  1.00  0.00     0.000 HD 
HETATM   23  O   UNL     1      -8.197  10.630  68.321  1.00  0.00    -0.111 OA 
ENDBRANCH   6  11
ENDBRANCH   3   4
TORSDOF 2
ENDMDL
MODEL      263
REMARK 921   NORMALIZED FREE ENERGY PREDICTED BY IDOCK:   -1.26 KCAL/MOL
REMARK 922        TOTAL FREE ENERGY PREDICTED BY IDOCK:   -1.83 KCAL/MOL
REMARK 923 INTER-LIGAND FREE ENERGY PREDICTED BY IDOCK:   -1.91 KCAL/MOL
REMARK 924 INTRA-LIGAND FREE ENERGY PREDICTED BY IDOCK:    0.08 KCAL/MOL
REMARK 927      BINDING AFFINITY PREDICTED BY RF-SCORE:    0.00 PKD
ROOT
HETATM    1  O5* UNL     1      -8.726   9.444  72.703  1.00  0.00     0.589 OA 
HETATM    2  H5* UNL     1      -8.489   9.123  73.565  1.00  0.00     0.000 HD 
HETATM    3  C5* UNL     1      -8.092   8.690  71.671  1.00  0.00    -0.132 C  
ENDROOT
BRANCH   3   4
HETATM    4  C4* UNL     1      -8.474   9.205  70.285  1.00  0.00    -0.191 C  
HETATM    5  O4* UNL     1      -7.930   8.368  69.248  1.00  0.00    -0.108 OA 
HETATM    6  C1* UNL     1      -8.718   8.646  68.081  1.00  0.00    -0.142 C  
HETATM    7  C2* UNL     1     -10.144   8.859  68.582  1.00  0.00    -0.206 C  
HETATM    8  H3* UNL     1     -11.421  10.586  70.129  1.00  0.00     0.000 HD 
HETATM    9  O3* UNL     1     -10.484  10.559  70.283  1.00  0.00    -0.160 OA 
HETATM   10  C3* UNL     1      -9.980   9.249  70.039  1.00  0.00    -0.209 C  
BRANCH   6  11
HETATM   11  N   UNL     1      -8.579   7.598  67.070  1.00  0.00    -0.120 N  
HETATM   12  C   UNL     1      -8.096   7.866  65.801  1.00  0.00    -0.123 C  
HETATM   13  C   UNL     1      -7.601   7.251  63.446  1.00  0.00    -0.117 C  
HETATM   14  C   UNL     1      -8.078   6.953  64.818  1.00  0.00    -0.095 C  
HETATM   15  C   UNL     1      -8.589   5.611  65.117  1.00  0.00    -0.130 C  
HETATM   16  O   UNL     1      -8.684   4.719  64.283  1.00  0.00    -0.141 OA 
HETATM   17  N   UNL     1      -8.981   5.398  66.412  1.00  0.00    -0.127 N  
HETATM   18  F   UNL     1      -7.751   6.264  62.532  1.00  0.00    -0.061 F  
HETATM   19  F   UNL     1      -8.243   8.338  62.934  1.00  0.00    -0.158 F  
HETATM   20  F   UNL     1      -6.277   7.570  63.451  1.00  0.00    -0.050 F  
HETATM   21  C   UNL     1      -9.059   6.338  67.403  1.00  0.00    -0.111 C  
HETATM   22  H   UNL     1      -9.241   4.443  66.663  1.00  0.00     0.000 HD 
HETATM   23  O   UNL     1      -9.541   6.048  68.496  1.00  0.00    -0.119 OA 
ENDBRANCH   6  11
ENDBRANCH   3   4
TORSDOF 2
ENDMDL
MODEL      264
REMARK 921   NORMALIZED FREE ENERGY PREDICTED BY IDOCK:   -1.05 KCAL/MOL
REMARK 922        TOTAL FREE ENERGY PREDICTED BY IDOCK:   -1.60 KCAL/MOL
REMARK 923 INTER-LIGAND FREE ENERGY PREDICTED BY IDOCK:   -1.88 KCAL/MOL
REMARK 924 INTRA-LIGAND FREE ENERGY PREDICTED BY IDOCK:    0.28 KCAL/MOL
REMARK 927      BINDING AFFINITY PREDICTED BY RF-SCORE:    0.00 PKD
ROOT
HETATM    1  O5* UNL     1     -12.695  15.082  64.937  1.00  0.00    -0.184 OA 
HETATM    2  H5* UNL     1     -12.956  15.568  64.164  1.00  0.00     0.000 HD 
HETATM    3  C5* UNL     1     -12.117  15.938  65.922  1.00  0.00     1.266 C  
ENDROOT
BRANCH   3   4
HETATM    4  C4* UNL     1     -11.695  15.156  67.166  1.00  0.00    -0.130 C  
HETATM    5  O4* UNL     1     -11.221  13.842  66.820  1.00  0.00    -0.305 OA 
HETATM    6  C1* UNL     1     -10.437  13.412  67.943  1.00  0.00    -0.240 C  
HETATM    7  C2* UNL     1      -9.719  14.659  68.452  1.00  0.00    -0.217 C  
HETATM    8  H3* UNL     1     -10.390  16.985  69.525  1.00  0.00     0.000 HD 
HETATM    9  O3* UNL     1     -11.093  16.575  69.036  1.00  0.00    -0.319 OA 
HETATM   10  C3* UNL     1     -10.565  15.815  67.952  1.00  0.00    -0.282 C  
BRANCH   6  11
HETATM   11  N   UNL     1      -9.552  12.301  67.595  1.00  0.00    -0.186 N  
HETATM   12  C   UNL     1      -8.252  12.228  68.063  1.00  0.00    -0.163 C  
HETATM   13  C   UNL     1      -5.975  11.236  68.126  1.00  0.00    -0.045 C  
HETATM   14  C   UNL     1      -7.382  11.290  67.658  1.00  0.00    -0.100 C  
HETATM   15  C   UNL     1      -7.845  10.298  66.681  1.00  0.00    -0.116 C  
HETATM   16  O   UNL     1      -7.122   9.440  66.191  1.00  0.00    -0.089 OA 
HETATM   17  N   UNL     1      -9.162  10.388  66.320  1.00  0.00    -0.163 N  
HETATM   18  F   UNL     1      -5.186  10.304  67.542  1.00  0.00    -0.040 F  
HETATM   19  F   UNL     1      -5.353  12.431  67.931  1.00  0.00    -0.054 F  
HETATM   20  F   UNL     1      -5.918  11.001  69.466  1.00  0.00    -0.046 F  
HETATM   21  C   UNL     1     -10.038  11.375  66.681  1.00  0.00    -0.212 C  
HETATM   22  H   UNL     1      -9.527   9.645  65.723  1.00  0.00     0.000 HD 
HETATM   23  O   UNL     1     -11.167  11.410  66.194  1.00  0.00    -0.254 OA 
ENDBRANCH   6  11
ENDBRANCH   3   4
TORSDOF 2
ENDMDL
MODEL      265
REMARK 921   NORMALIZED FREE ENERGY PREDICTED BY IDOCK:   -0.98 KCAL/MOL
REMARK 922        TOTAL FREE ENERGY PREDICTED BY IDOCK:   -1.52 KCAL/MOL
REMARK 923 INTER-LIGAND FREE ENERGY PREDICTED BY IDOCK:   -2.31 KCAL/MOL
REMARK 924 INTRA-LIGAND FREE ENERGY PREDICTED BY IDOCK:    0.79 KCAL/MOL
REMARK 927      BINDING AFFINITY PREDICTED BY RF-SCORE:    0.00 PKD
ROOT
HETATM    1  O5* UNL     1      -9.037   9.178  72.121  1.00  0.00    -0.312 OA 
HETATM    2  H5* UNL     1      -9.835   9.072  72.624  1.00  0.00     0.000 HD 
HETATM    3  C5* UNL     1      -8.829   8.080  71.233  1.00  0.00    -0.139 C  
ENDROOT
BRANCH   3   4
HETATM    4  C4* UNL     1      -7.545   8.251  70.423  1.00  0.00    -0.075 C  
HETATM    5  O4* UNL     1      -7.802   8.152  69.011  1.00  0.00    -0.104 OA 
HETATM    6  C1* UNL     1      -6.682   8.785  68.374  1.00  0.00    -0.064 C  
HETATM    7  C2* UNL     1      -6.307   9.965  69.266  1.00  0.00    -0.044 C  
HETATM    8  H3* UNL     1      -5.399  10.329  71.726  1.00  0.00     0.000 HD 
HETATM    9  O3* UNL     1      -5.824   9.489  71.598  1.00  0.00    -0.104 OA 
HETATM   10  C3* UNL     1      -6.863   9.602  70.630  1.00  0.00    -0.116 C  
BRANCH   6  11
HETATM   11  N   UNL     1      -6.976   9.141  66.986  1.00  0.00    -0.080 N  
HETATM   12  C   UNL     1      -7.003   8.193  65.978  1.00  0.00    -0.058 C  
HETATM   13  C   UNL     1      -7.131   7.498  63.597  1.00  0.00    -0.070 C  
HETATM   14  C   UNL     1      -7.144   8.509  64.681  1.00  0.00    -0.080 C  
HETATM   15  C   UNL     1      -7.282   9.927  64.331  1.00  0.00    -0.134 C  
HETATM   16  O   UNL     1      -7.349  10.337  63.179  1.00  0.00    -0.140 OA 
HETATM   17  N   UNL     1      -7.320  10.800  65.384  1.00  0.00    -0.351 N  
HETATM   18  F   UNL     1      -7.167   7.977  62.332  1.00  0.00    -0.085 F  
HETATM   19  F   UNL     1      -6.015   6.720  63.673  1.00  0.00    -0.032 F  
HETATM   20  F   UNL     1      -8.186   6.646  63.714  1.00  0.00    -0.111 F  
HETATM   21  C   UNL     1      -7.118  10.493  66.702  1.00  0.00    -0.118 C  
HETATM   22  H   UNL     1      -7.519  11.777  65.165  1.00  0.00     0.000 HD 
HETATM   23  O   UNL     1      -7.058  11.387  67.545  1.00  0.00    -0.093 OA 
ENDBRANCH   6  11
ENDBRANCH   3   4
TORSDOF 2
ENDMDL
MODEL      266
REMARK 921   NORMALIZED FREE ENERGY PREDICTED BY IDOCK:   -0.78 KCAL/MOL
REMARK 922        TOTAL FREE ENERGY PREDICTED BY IDOCK:   -1.30 KCAL/MOL
REMARK 923 INTER-LIGAND FREE ENERGY PREDICTED BY IDOCK:   -0.75 KCAL/MOL
REMARK 924 INTRA-LIGAND FREE ENERGY PREDICTED BY IDOCK:   -0.55 KCAL/MOL
REMARK 927      BINDING AFFINITY PREDICTED BY RF-SCORE:    0.00 PKD
ROOT
HETATM    1  O5* UNL     1      -8.715   9.497  72.725  1.00  0.00     1.225 OA 
HETATM    2  H5* UNL     1      -8.526   9.147  73.587  1.00  0.00     0.000 HD 
HETATM    3  C5* UNL     1      -8.034   8.769  71.704  1.00  0.00    -0.085 C  
ENDROOT
BRANCH   3   4
HETATM    4  C4* UNL     1      -8.340   9.332  70.317  1.00  0.00    -0.186 C  
HETATM    5  O4* UNL     1      -7.759   8.516  69.283  1.00  0.00    -0.089 OA 
HETATM    6  C1* UNL     1      -8.485   8.842  68.088  1.00  0.00    -0.129 C  
HETATM    7  C2* UNL     1      -9.930   9.066  68.526  1.00  0.00    -0.193 C  
HETATM    8  H3* UNL     1     -11.253  10.769  70.060  1.00  0.00     0.000 HD 
HETATM    9  O3* UNL     1     -10.325  10.721  70.258  1.00  0.00     0.121 OA 
HETATM   10  C3* UNL     1      -9.831   9.410  69.999  1.00  0.00    -0.221 C  
BRANCH   6  11
HETATM   11  N   UNL     1      -8.314   7.823  67.053  1.00  0.00    -0.116 N  
HETATM   12  C   UNL     1      -8.381   6.470  67.342  1.00  0.00    -0.120 C  
HETATM   13  C   UNL     1      -8.131   4.068  66.760  1.00  0.00    -0.097 C  
HETATM   14  C   UNL     1      -8.102   5.517  66.440  1.00  0.00    -0.105 C  
HETATM   15  C   UNL     1      -7.719   5.939  65.088  1.00  0.00    -0.093 C  
HETATM   16  O   UNL     1      -7.379   5.162  64.206  1.00  0.00    -0.053 OA 
HETATM   17  N   UNL     1      -7.747   7.288  64.856  1.00  0.00    -0.109 N  
HETATM   18  F   UNL     1      -7.715   3.231  65.781  1.00  0.00    -0.077 F  
HETATM   19  F   UNL     1      -7.354   3.796  67.844  1.00  0.00    -0.059 F  
HETATM   20  F   UNL     1      -9.389   3.670  67.095  1.00  0.00    -0.160 F  
HETATM   21  C   UNL     1      -7.971   8.268  65.784  1.00  0.00    -0.099 C  
HETATM   22  H   UNL     1      -7.584   7.592  63.895  1.00  0.00     0.000 HD 
HETATM   23  O   UNL     1      -7.851   9.453  65.475  1.00  0.00    -0.100 OA 
ENDBRANCH   6  11
ENDBRANCH   3   4
TORSDOF 2
ENDMDL
MODEL      267
REMARK 921   NORMALIZED FREE ENERGY PREDICTED BY IDOCK:   -0.78 KCAL/MOL
REMARK 922        TOTAL FREE ENERGY PREDICTED BY IDOCK:   -1.30 KCAL/MOL
REMARK 923 INTER-LIGAND FREE ENERGY PREDICTED BY IDOCK:   -1.50 KCAL/MOL
REMARK 924 INTRA-LIGAND FREE ENERGY PREDICTED BY IDOCK:    0.20 KCAL/MOL
REMARK 927      BINDING AFFINITY PREDICTED BY RF-SCORE:    0.00 PKD
ROOT
HETATM    1  O5* UNL     1     -13.945   9.313  73.269  1.00  0.00    -1.015 OA 
HETATM    2  H5* UNL     1     -14.305   9.322  74.148  1.00  0.00     0.000 HD 
HETATM    3  C5* UNL     1     -12.942   8.309  73.123  1.00  0.00     0.925 C  
ENDROOT
BRANCH   3   4
HETATM    4  C4* UNL     1     -12.364   8.296  71.709  1.00  0.00    -0.328 C  
HETATM    5  O4* UNL     1     -11.297   9.251  71.573  1.00  0.00    -0.334 OA 
HETATM    6  C1* UNL     1     -10.548   8.825  70.424  1.00  0.00    -0.221 C  
HETATM    7  C2* UNL     1     -10.559   7.300  70.462  1.00  0.00    -0.237 C  
HETATM    8  H3* UNL     1     -12.357   5.364  70.287  1.00  0.00     0.000 HD 
HETATM    9  O3* UNL     1     -12.724   6.202  70.543  1.00  0.00     0.758 OA 
HETATM   10  C3* UNL     1     -11.774   6.949  71.299  1.00  0.00    -0.328 C  
BRANCH   6  11
HETATM   11  N   UNL     1      -9.214   9.424  70.392  1.00  0.00    -0.242 N  
HETATM   12  C   UNL     1      -8.711  10.028  69.252  1.00  0.00    -0.177 C  
HETATM   13  C   UNL     1      -6.895  11.079  67.923  1.00  0.00    -0.068 C  
HETATM   14  C   UNL     1      -7.448  10.470  69.157  1.00  0.00    -0.114 C  
HETATM   15  C   UNL     1      -6.573  10.307  70.323  1.00  0.00    -0.142 C  
HETATM   16  O   UNL     1      -5.387  10.610  70.329  1.00  0.00    -0.048 OA 
HETATM   17  N   UNL     1      -7.159   9.769  71.438  1.00  0.00     0.370 N  
HETATM   18  F   UNL     1      -5.574  11.370  67.939  1.00  0.00    -0.043 F  
HETATM   19  F   UNL     1      -7.086  10.260  66.851  1.00  0.00    -0.084 F  
HETATM   20  F   UNL     1      -7.540  12.240  67.623  1.00  0.00    -0.106 F  
HETATM   21  C   UNL     1      -8.427   9.262  71.524  1.00  0.00     0.287 C  
HETATM   22  H   UNL     1      -6.595   9.744  72.288  1.00  0.00     0.000 HD 
HETATM   23  O   UNL     1      -8.799   8.695  72.550  1.00  0.00    -0.356 OA 
ENDBRANCH   6  11
ENDBRANCH   3   4
TORSDOF 2
ENDMDL
MODEL      268
REMARK 921   NORMALIZED FREE ENERGY PREDICTED BY IDOCK:    1.19 KCAL/MOL
REMARK 922        TOTAL FREE ENERGY PREDICTED BY IDOCK:    0.90 KCAL/MOL
REMARK 923 INTER-LIGAND FREE ENERGY PREDICTED BY IDOCK:    1.30 KCAL/MOL
REMARK 924 INTRA-LIGAND FREE ENERGY PREDICTED BY IDOCK:   -0.40 KCAL/MOL
REMARK 927      BINDING AFFINITY PREDICTED BY RF-SCORE:    0.00 PKD
ROOT
HETATM    1  O5* UNL     1      -7.201  15.306  72.166  1.00  0.00     2.636 OA 
HETATM    2  H5* UNL     1      -7.099  14.727  72.912  1.00  0.00     0.000 HD 
HETATM    3  C5* UNL     1      -5.989  15.416  71.421  1.00  0.00     0.565 C  
ENDROOT
BRANCH   3   4
HETATM    4  C4* UNL     1      -6.152  16.348  70.221  1.00  0.00     0.005 C  
HETATM    5  O4* UNL     1      -6.912  15.720  69.173  1.00  0.00    -0.148 OA 
HETATM    6  C1* UNL     1      -7.396  16.797  68.355  1.00  0.00    -0.198 C  
HETATM    7  C2* UNL     1      -7.724  17.935  69.317  1.00  0.00     0.101 C  
HETATM    8  H3* UNL     1      -6.404  19.503  70.993  1.00  0.00     0.000 HD 
HETATM    9  O3* UNL     1      -5.949  18.694  70.790  1.00  0.00    -0.049 OA 
HETATM   10  C3* UNL     1      -6.884  17.647  70.547  1.00  0.00     1.799 C  
BRANCH   6  11
HETATM   11  N   UNL     1      -8.511  16.377  67.507  1.00  0.00    -0.167 N  
HETATM   12  C   UNL     1      -9.317  15.302  67.839  1.00  0.00    -0.189 C  
HETATM   13  C   UNL     1     -11.099  13.639  67.356  1.00  0.00    -0.282 C  
HETATM   14  C   UNL     1     -10.263  14.818  67.020  1.00  0.00    -0.253 C  
HETATM   15  C   UNL     1     -10.447  15.473  65.720  1.00  0.00    -0.361 C  
HETATM   16  O   UNL     1     -11.231  15.077  64.866  1.00  0.00    -0.387 OA 
HETATM   17  N   UNL     1      -9.666  16.574  65.491  1.00  0.00    -0.070 N  
HETATM   18  F   UNL     1     -11.930  13.198  66.384  1.00  0.00    -0.378 F  
HETATM   19  F   UNL     1     -10.320  12.575  67.697  1.00  0.00    -0.208 F  
HETATM   20  F   UNL     1     -11.880  13.892  68.442  1.00  0.00    -0.330 F  
HETATM   21  C   UNL     1      -8.659  17.036  66.294  1.00  0.00    -0.262 C  
HETATM   22  H   UNL     1      -9.853  17.101  64.638  1.00  0.00     0.000 HD 
HETATM   23  O   UNL     1      -7.948  17.968  65.921  1.00  0.00    -0.521 OA 
ENDBRANCH   6  11
ENDBRANCH   3   4
TORSDOF 2
ENDMDL
MODEL      269
REMARK 921   NORMALIZED FREE ENERGY PREDICTED BY IDOCK:    1.33 KCAL/MOL
REMARK 922        TOTAL FREE ENERGY PREDICTED BY IDOCK:    1.06 KCAL/MOL
REMARK 923 INTER-LIGAND FREE ENERGY PREDICTED BY IDOCK:    1.11 KCAL/MOL
REMARK 924 INTRA-LIGAND FREE ENERGY PREDICTED BY IDOCK:   -0.05 KCAL/MOL
REMARK 927      BINDING AFFINITY PREDICTED BY RF-SCORE:    0.00 PKD
ROOT
HETATM    1  O5* UNL     1     -10.375  15.267  64.930  1.00  0.00    -0.392 OA 
HETATM    2  H5* UNL     1     -10.353  15.499  64.009  1.00  0.00     0.000 HD 
HETATM    3  C5* UNL     1     -10.498  13.857  65.111  1.00  0.00    -0.393 C  
ENDROOT
BRANCH   3   4
HETATM    4  C4* UNL     1     -10.533  13.483  66.592  1.00  0.00    -0.274 C  
HETATM    5  O4* UNL     1     -10.147  14.595  67.420  1.00  0.00    -0.231 OA 
HETATM    6  C1* UNL     1     -10.665  14.296  68.725  1.00  0.00    -0.254 C  
HETATM    7  C2* UNL     1     -12.008  13.611  68.493  1.00  0.00    -0.396 C  
HETATM    8  H3* UNL     1     -12.879  11.367  67.389  1.00  0.00     0.000 HD 
HETATM    9  O3* UNL     1     -12.021  11.634  67.082  1.00  0.00    -0.614 OA 
HETATM   10  C3* UNL     1     -11.913  13.054  67.085  1.00  0.00    -0.329 C  
BRANCH   6  11
HETATM   11  N   UNL     1     -10.728  15.488  69.570  1.00  0.00    -0.250 N  
HETATM   12  C   UNL     1     -10.303  16.726  69.121  1.00  0.00    -0.326 C  
HETATM   13  C   UNL     1      -9.734  19.123  69.445  1.00  0.00    -0.072 C  
HETATM   14  C   UNL     1     -10.231  17.806  69.914  1.00  0.00     0.644 C  
HETATM   15  C   UNL     1     -10.634  17.657  71.317  1.00  0.00     2.590 C  
HETATM   16  O   UNL     1     -10.548  18.553  72.146  1.00  0.00     2.292 OA 
HETATM   17  N   UNL     1     -11.114  16.424  71.671  1.00  0.00     0.217 N  
HETATM   18  F   UNL     1      -9.611  20.086  70.387  1.00  0.00     0.043 F  
HETATM   19  F   UNL     1      -8.506  19.000  68.870  1.00  0.00    -0.367 F  
HETATM   20  F   UNL     1     -10.547  19.633  68.480  1.00  0.00    -0.489 F  
HETATM   21  C   UNL     1     -11.133  15.303  70.885  1.00  0.00    -0.301 C  
HETATM   22  H   UNL     1     -11.494  16.332  72.613  1.00  0.00     0.000 HD 
HETATM   23  O   UNL     1     -11.480  14.222  71.358  1.00  0.00     0.010 OA 
ENDBRANCH   6  11
ENDBRANCH   3   4
TORSDOF 2
ENDMDL
MODEL      270
REMARK 921   NORMALIZED FREE ENERGY PREDICTED BY IDOCK:    5.32 KCAL/MOL
REMARK 922        TOTAL FREE ENERGY PREDICTED BY IDOCK:    5.52 KCAL/MOL
REMARK 923 INTER-LIGAND FREE ENERGY PREDICTED BY IDOCK:    5.59 KCAL/MOL
REMARK 924 INTRA-LIGAND FREE ENERGY PREDICTED BY IDOCK:   -0.08 KCAL/MOL
REMARK 927      BINDING AFFINITY PREDICTED BY RF-SCORE:    0.00 PKD
ROOT
HETATM    1  O5* UNL     1     -13.137  15.967  65.165  1.00  0.00     1.619 OA 
HETATM    2  H5* UNL     1     -13.978  16.006  64.726  1.00  0.00     0.000 HD 
HETATM    3  C5* UNL     1     -12.337  14.893  64.670  1.00  0.00    -0.278 C  
ENDROOT
BRANCH   3   4
HETATM    4  C4* UNL     1     -10.984  14.830  65.376  1.00  0.00    -0.359 C  
HETATM    5  O4* UNL     1     -10.349  16.121  65.403  1.00  0.00    -0.461 OA 
HETATM    6  C1* UNL     1      -9.379  16.047  66.460  1.00  0.00    -0.268 C  
HETATM    7  C2* UNL     1     -10.020  15.198  67.554  1.00  0.00    -0.225 C  
HETATM    8  H3* UNL     1     -10.852  12.701  67.839  1.00  0.00     0.000 HD 
HETATM    9  O3* UNL     1     -10.797  12.983  66.934  1.00  0.00    -0.260 OA 
HETATM   10  C3* UNL     1     -11.071  14.377  66.832  1.00  0.00    -0.323 C  
BRANCH   6  11
HETATM   11  N   UNL     1      -8.947  17.375  66.894  1.00  0.00    -0.238 N  
HETATM   12  C   UNL     1      -9.085  17.795  68.206  1.00  0.00    -0.281 C  
HETATM   13  C   UNL     1      -9.004  19.512  70.000  1.00  0.00     1.003 C  
HETATM   14  C   UNL     1      -8.815  19.048  68.603  1.00  0.00    -0.388 C  
HETATM   15  C   UNL     1      -8.346  20.004  67.594  1.00  0.00    -0.319 C  
HETATM   16  O   UNL     1      -8.135  21.187  67.827  1.00  0.00    -0.015 OA 
HETATM   17  N   UNL     1      -8.163  19.498  66.335  1.00  0.00    -0.319 N  
HETATM   18  F   UNL     1      -8.801  20.831  70.225  1.00  0.00     1.061 F  
HETATM   19  F   UNL     1     -10.267  19.246  70.432  1.00  0.00     0.191 F  
HETATM   20  F   UNL     1      -8.173  18.846  70.849  1.00  0.00     2.474 F  
HETATM   21  C   UNL     1      -8.492  18.240  65.908  1.00  0.00     0.170 C  
HETATM   22  H   UNL     1      -7.740  20.121  65.646  1.00  0.00     0.000 HD 
HETATM   23  O   UNL     1      -8.389  17.943  64.720  1.00  0.00     2.805 OA 
ENDBRANCH   6  11
ENDBRANCH   3   4
TORSDOF 2
ENDMDL
MODEL      271
REMARK 921   NORMALIZED FREE ENERGY PREDICTED BY IDOCK:   10.32 KCAL/MOL
REMARK 922        TOTAL FREE ENERGY PREDICTED BY IDOCK:   11.09 KCAL/MOL
REMARK 923 INTER-LIGAND FREE ENERGY PREDICTED BY IDOCK:   10.51 KCAL/MOL
REMARK 924 INTRA-LIGAND FREE ENERGY PREDICTED BY IDOCK:    0.58 KCAL/MOL
REMARK 927      BINDING AFFINITY PREDICTED BY RF-SCORE:    0.00 PKD
ROOT
HETATM    1  O5* UNL     1      -8.953  14.180  65.178  1.00  0.00     0.586 OA 
HETATM    2  H5* UNL     1      -8.276  13.936  64.559  1.00  0.00     0.000 HD 
HETATM    3  C5* UNL     1      -8.452  15.063  66.181  1.00  0.00     0.442 C  
ENDROOT
BRANCH   3   4
HETATM    4  C4* UNL     1      -9.543  15.455  67.177  1.00  0.00    -0.212 C  
HETATM    5  O4* UNL     1     -10.190  14.294  67.727  1.00  0.00    -0.231 OA 
HETATM    6  C1* UNL     1     -10.813  14.743  68.940  1.00  0.00    -0.254 C  
HETATM    7  C2* UNL     1      -9.854  15.765  69.546  1.00  0.00    -0.283 C  
HETATM    8  H3* UNL     1      -8.887  18.143  68.899  1.00  0.00     0.000 HD 
HETATM    9  O3* UNL     1      -9.208  17.648  68.155  1.00  0.00    -0.266 OA 
HETATM   10  C3* UNL     1      -9.026  16.251  68.372  1.00  0.00    -0.203 C  
BRANCH   6  11
HETATM   11  N   UNL     1     -11.150  13.627  69.823  1.00  0.00    -0.024 N  
HETATM   12  C   UNL     1     -11.955  13.794  70.936  1.00  0.00    -0.192 C  
HETATM   13  C   UNL     1     -13.004  13.007  73.047  1.00  0.00     1.246 C  
HETATM   14  C   UNL     1     -12.175  12.818  71.831  1.00  0.00     0.719 C  
HETATM   15  C   UNL     1     -11.534  11.518  71.603  1.00  0.00     2.666 C  
HETATM   16  O   UNL     1     -11.609  10.579  72.384  1.00  0.00     1.807 OA 
HETATM   17  N   UNL     1     -10.813  11.405  70.444  1.00  0.00     0.048 N  
HETATM   18  F   UNL     1     -13.040  11.969  73.914  1.00  0.00     5.090 F  
HETATM   19  F   UNL     1     -12.573  14.082  73.764  1.00  0.00    -0.233 F  
HETATM   20  F   UNL     1     -14.297  13.276  72.716  1.00  0.00    -0.540 F  
HETATM   21  C   UNL     1     -10.534  12.411  69.559  1.00  0.00     0.524 C  
HETATM   22  H   UNL     1     -10.447  10.480  70.219  1.00  0.00     0.000 HD 
HETATM   23  O   UNL     1      -9.773  12.211  68.614  1.00  0.00    -0.178 OA 
ENDBRANCH   6  11
ENDBRANCH   3   4
TORSDOF 2
ENDMDL
MODEL      272
REMARK 921   NORMALIZED FREE ENERGY PREDICTED BY IDOCK:   17.61 KCAL/MOL
REMARK 922        TOTAL FREE ENERGY PREDICTED BY IDOCK:   19.24 KCAL/MOL
REMARK 923 INTER-LIGAND FREE ENERGY PREDICTED BY IDOCK:   18.86 KCAL/MOL
REMARK 924 INTRA-LIGAND FREE ENERGY PREDICTED BY IDOCK:    0.38 KCAL/MOL
REMARK 927      BINDING AFFINITY PREDICTED BY RF-SCORE:    0.00 PKD
ROOT
HETATM    1  O5* UNL     1      -8.456  16.241  72.348  1.00  0.00    10.870 OA 
HETATM    2  H5* UNL     1      -8.798  16.465  73.205  1.00  0.00     0.000 HD 
HETATM    3  C5* UNL     1      -7.091  16.638  72.209  1.00  0.00     8.362 C  
ENDROOT
BRANCH   3   4
HETATM    4  C4* UNL     1      -6.541  16.277  70.830  1.00  0.00     1.602 C  
HETATM    5  O4* UNL     1      -7.237  15.150  70.269  1.00  0.00    -0.015 OA 
HETATM    6  C1* UNL     1      -6.987  15.212  68.856  1.00  0.00    -0.124 C  
HETATM    7  C2* UNL     1      -6.985  16.696  68.499  1.00  0.00    -0.161 C  
HETATM    8  H3* UNL     1      -5.530  18.831  69.077  1.00  0.00     0.000 HD 
HETATM    9  O3* UNL     1      -5.450  18.132  69.716  1.00  0.00    -0.195 OA 
HETATM   10  C3* UNL     1      -6.669  17.401  69.804  1.00  0.00     0.104 C  
BRANCH   6  11
HETATM   11  N   UNL     1      -7.943  14.406  68.099  1.00  0.00    -0.126 N  
HETATM   12  C   UNL     1      -7.590  13.193  67.532  1.00  0.00    -0.163 C  
HETATM   13  C   UNL     1      -8.015  11.219  66.086  1.00  0.00    -0.038 C  
HETATM   14  C   UNL     1      -8.408  12.497  66.728  1.00  0.00    -0.034 C  
HETATM   15  C   UNL     1      -9.737  13.053  66.452  1.00  0.00    -0.268 C  
HETATM   16  O   UNL     1     -10.540  12.541  65.682  1.00  0.00    -0.258 OA 
HETATM   17  N   UNL     1     -10.044  14.217  67.105  1.00  0.00    -0.255 N  
HETATM   18  F   UNL     1      -8.903  10.692  65.210  1.00  0.00    -0.168 F  
HETATM   19  F   UNL     1      -6.848  11.361  65.399  1.00  0.00     0.215 F  
HETATM   20  F   UNL     1      -7.782  10.257  67.020  1.00  0.00    -0.096 F  
HETATM   21  C   UNL     1      -9.196  14.963  67.878  1.00  0.00    -0.183 C  
HETATM   22  H   UNL     1     -10.999  14.561  67.006  1.00  0.00     0.000 HD 
HETATM   23  O   UNL     1      -9.555  16.054  68.314  1.00  0.00    -0.206 OA 
ENDBRANCH   6  11
ENDBRANCH   3   4
TORSDOF 2
ENDMDL
MODEL      273
REMARK 921   NORMALIZED FREE ENERGY PREDICTED BY IDOCK:   17.68 KCAL/MOL
REMARK 922        TOTAL FREE ENERGY PREDICTED BY IDOCK:   19.32 KCAL/MOL
REMARK 923 INTER-LIGAND FREE ENERGY PREDICTED BY IDOCK:   18.98 KCAL/MOL
REMARK 924 INTRA-LIGAND FREE ENERGY PREDICTED BY IDOCK:    0.34 KCAL/MOL
REMARK 927      BINDING AFFINITY PREDICTED BY RF-SCORE:    0.00 PKD
ROOT
HETATM    1  O5* UNL     1     -10.527   8.114  67.948  1.00  0.00    -0.253 OA 
HETATM    2  H5* UNL     1     -10.257   7.204  67.909  1.00  0.00     0.000 HD 
HETATM    3  C5* UNL     1     -11.506   8.413  66.954  1.00  0.00     2.244 C  
ENDROOT
BRANCH   3   4
HETATM    4  C4* UNL     1     -11.939   9.877  67.017  1.00  0.00     3.610 C  
HETATM    5  O4* UNL     1     -10.908  10.701  67.589  1.00  0.00    -0.248 OA 
HETATM    6  C1* UNL     1     -11.212  12.040  67.165  1.00  0.00    -0.316 C  
HETATM    7  C2* UNL     1     -11.751  11.913  65.743  1.00  0.00    -0.210 C  
HETATM    8  H3* UNL     1     -13.848  10.821  64.551  1.00  0.00     0.000 HD 
HETATM    9  O3* UNL     1     -13.653  10.443  65.400  1.00  0.00    10.205 OA 
HETATM   10  C3* UNL     1     -12.252  10.485  65.652  1.00  0.00     4.523 C  
BRANCH   6  11
HETATM   11  N   UNL     1     -10.058  12.927  67.301  1.00  0.00    -0.229 N  
HETATM   12  C   UNL     1      -8.987  12.615  68.122  1.00  0.00    -0.199 C  
HETATM   13  C   UNL     1      -6.853  13.150  69.275  1.00  0.00    -0.024 C  
HETATM   14  C   UNL     1      -7.979  13.467  68.362  1.00  0.00    -0.139 C  
HETATM   15  C   UNL     1      -8.019  14.782  67.713  1.00  0.00    -0.157 C  
HETATM   16  O   UNL     1      -7.191  15.662  67.911  1.00  0.00    -0.118 OA 
HETATM   17  N   UNL     1      -9.068  14.992  66.859  1.00  0.00    -0.231 N  
HETATM   18  F   UNL     1      -5.972  14.150  69.508  1.00  0.00    -0.089 F  
HETATM   19  F   UNL     1      -7.314  12.762  70.497  1.00  0.00     1.262 F  
HETATM   20  F   UNL     1      -6.125  12.101  68.803  1.00  0.00    -0.058 F  
HETATM   21  C   UNL     1     -10.131  14.154  66.654  1.00  0.00    -0.275 C  
HETATM   22  H   UNL     1      -9.057  15.859  66.321  1.00  0.00     0.000 HD 
HETATM   23  O   UNL     1     -11.073  14.510  65.949  1.00  0.00    -0.315 OA 
ENDBRANCH   6  11
ENDBRANCH   3   4
TORSDOF 2
ENDMDL
MODEL      274
REMARK 921   NORMALIZED FREE ENERGY PREDICTED BY IDOCK:   20.80 KCAL/MOL
REMARK 922        TOTAL FREE ENERGY PREDICTED BY IDOCK:   22.81 KCAL/MOL
REMARK 923 INTER-LIGAND FREE ENERGY PREDICTED BY IDOCK:   22.86 KCAL/MOL
REMARK 924 INTRA-LIGAND FREE ENERGY PREDICTED BY IDOCK:   -0.05 KCAL/MOL
REMARK 927      BINDING AFFINITY PREDICTED BY RF-SCORE:    0.00 PKD
ROOT
HETATM    1  O5* UNL     1      -9.188  17.421  64.121  1.00  0.00     6.209 OA 
HETATM    2  H5* UNL     1      -8.681  17.706  63.371  1.00  0.00     0.000 HD 
HETATM    3  C5* UNL     1      -9.143  16.003  64.276  1.00  0.00     6.800 C  
ENDROOT
BRANCH   3   4
HETATM    4  C4* UNL     1      -9.959  15.544  65.483  1.00  0.00    -0.341 C  
HETATM    5  O4* UNL     1      -9.572  16.253  66.674  1.00  0.00    -0.224 OA 
HETATM    6  C1* UNL     1     -10.675  16.105  67.581  1.00  0.00    -0.318 C  
HETATM    7  C2* UNL     1     -11.933  16.163  66.719  1.00  0.00     1.280 C  
HETATM    8  H3* UNL     1     -13.035  14.720  64.792  1.00  0.00     0.000 HD 
HETATM    9  O3* UNL     1     -12.100  14.579  64.886  1.00  0.00    -0.402 OA 
HETATM   10  C3* UNL     1     -11.461  15.771  65.331  1.00  0.00     0.086 C  
BRANCH   6  11
HETATM   11  N   UNL     1     -10.630  17.095  68.657  1.00  0.00    -0.359 N  
HETATM   12  C   UNL     1      -9.602  18.017  68.759  1.00  0.00    -0.301 C  
HETATM   13  C   UNL     1      -8.345  19.807  69.935  1.00  0.00     0.828 C  
HETATM   14  C   UNL     1      -9.469  18.849  69.804  1.00  0.00     0.605 C  
HETATM   15  C   UNL     1     -10.470  18.774  70.874  1.00  0.00     2.486 C  
HETATM   16  O   UNL     1     -10.412  19.435  71.903  1.00  0.00     2.269 OA 
HETATM   17  N   UNL     1     -11.497  17.892  70.669  1.00  0.00     2.402 N  
HETATM   18  F   UNL     1      -8.281  20.498  71.097  1.00  0.00     0.571 F  
HETATM   19  F   UNL     1      -7.148  19.170  69.811  1.00  0.00    -0.258 F  
HETATM   20  F   UNL     1      -8.377  20.734  68.939  1.00  0.00     0.510 F  
HETATM   21  C   UNL     1     -11.607  16.999  69.638  1.00  0.00     1.095 C  
HETATM   22  H   UNL     1     -12.254  17.902  71.353  1.00  0.00     0.000 HD 
HETATM   23  O   UNL     1     -12.519  16.174  69.629  1.00  0.00    -0.083 OA 
ENDBRANCH   6  11
ENDBRANCH   3   4
TORSDOF 2
ENDMDL
MODEL      275
REMARK 921   NORMALIZED FREE ENERGY PREDICTED BY IDOCK:   31.98 KCAL/MOL
REMARK 922        TOTAL FREE ENERGY PREDICTED BY IDOCK:   35.29 KCAL/MOL
REMARK 923 INTER-LIGAND FREE ENERGY PREDICTED BY IDOCK:   34.82 KCAL/MOL
REMARK 924 INTRA-LIGAND FREE ENERGY PREDICTED BY IDOCK:    0.47 KCAL/MOL
REMARK 927      BINDING AFFINITY PREDICTED BY RF-SCORE:    0.00 PKD
ROOT
HETATM    1  O5* UNL     1      -8.773  13.740  65.608  1.00  0.00     0.340 OA 
HETATM    2  H5* UNL     1      -8.115  13.499  64.967  1.00  0.00     0.000 HD 
HETATM    3  C5* UNL     1      -8.246  14.630  66.591  1.00  0.00     0.187 C  
ENDROOT
BRANCH   3   4
HETATM    4  C4* UNL     1      -9.305  15.018  67.621  1.00  0.00    -0.194 C  
HETATM    5  O4* UNL     1      -8.739  15.815  68.677  1.00  0.00    -0.175 OA 
HETATM    6  C1* UNL     1      -9.851  16.494  69.280  1.00  0.00    -0.218 C  
HETATM    7  C2* UNL     1     -10.801  16.836  68.135  1.00  0.00    -0.353 C  
HETATM    8  H3* UNL     1     -12.273  15.518  66.373  1.00  0.00     0.000 HD 
HETATM    9  O3* UNL     1     -11.560  15.004  66.733  1.00  0.00    -0.312 OA 
HETATM   10  C3* UNL     1     -10.451  15.844  67.042  1.00  0.00    -0.306 C  
BRANCH   6  11
HETATM   11  N   UNL     1      -9.420  17.642  70.076  1.00  0.00     1.276 N  
HETATM   12  C   UNL     1     -10.285  18.309  70.926  1.00  0.00     2.817 C  
HETATM   13  C   UNL     1     -10.892  20.178  72.446  1.00  0.00     6.737 C  
HETATM   14  C   UNL     1      -9.952  19.439  71.568  1.00  0.00     3.035 C  
HETATM   15  C   UNL     1      -8.603  19.977  71.359  1.00  0.00     2.407 C  
HETATM   16  O   UNL     1      -8.212  21.033  71.838  1.00  0.00     1.484 OA 
HETATM   17  N   UNL     1      -7.779  19.225  70.565  1.00  0.00     1.367 N  
HETATM   18  F   UNL     1     -10.452  21.361  72.933  1.00  0.00     4.710 F  
HETATM   19  F   UNL     1     -12.054  20.451  71.790  1.00  0.00     9.237 F  
HETATM   20  F   UNL     1     -11.243  19.426  73.525  1.00  0.00     1.515 F  
HETATM   21  C   UNL     1      -8.129  18.106  69.859  1.00  0.00     1.488 C  
HETATM   22  H   UNL     1      -6.807  19.529  70.492  1.00  0.00     0.000 HD 
HETATM   23  O   UNL     1      -7.328  17.586  69.085  1.00  0.00    -0.224 OA 
ENDBRANCH   6  11
ENDBRANCH   3   4
TORSDOF 2
ENDMDL
MODEL      276
REMARK 921   NORMALIZED FREE ENERGY PREDICTED BY IDOCK:   49.30 KCAL/MOL
REMARK 922        TOTAL FREE ENERGY PREDICTED BY IDOCK:   54.63 KCAL/MOL
REMARK 923 INTER-LIGAND FREE ENERGY PREDICTED BY IDOCK:   55.07 KCAL/MOL
REMARK 924 INTRA-LIGAND FREE ENERGY PREDICTED BY IDOCK:   -0.44 KCAL/MOL
REMARK 927      BINDING AFFINITY PREDICTED BY RF-SCORE:    0.00 PKD
ROOT
HETATM    1  O5* UNL     1      -8.859  17.542  63.800  1.00  0.00    10.403 OA 
HETATM    2  H5* UNL     1      -8.600  18.103  63.079  1.00  0.00     0.000 HD 
HETATM    3  C5* UNL     1      -8.294  16.237  63.678  1.00  0.00    17.461 C  
ENDROOT
BRANCH   3   4
HETATM    4  C4* UNL     1      -8.712  15.335  64.838  1.00  0.00     4.066 C  
HETATM    5  O4* UNL     1      -8.275  15.872  66.099  1.00  0.00    -0.232 OA 
HETATM    6  C1* UNL     1      -9.102  15.241  67.089  1.00  0.00    -0.210 C  
HETATM    7  C2* UNL     1     -10.484  15.111  66.455  1.00  0.00    -0.292 C  
HETATM    8  H3* UNL     1     -11.570  13.830  64.408  1.00  0.00     0.000 HD 
HETATM    9  O3* UNL     1     -10.630  13.943  64.331  1.00  0.00    -0.400 OA 
HETATM   10  C3* UNL     1     -10.223  15.154  64.962  1.00  0.00    -0.297 C  
BRANCH   6  11
HETATM   11  N   UNL     1      -9.081  15.967  68.358  1.00  0.00    -0.187 N  
HETATM   12  C   UNL     1     -10.005  16.956  68.650  1.00  0.00    -0.279 C  
HETATM   13  C   UNL     1     -10.897  18.810  70.041  1.00  0.00     2.261 C  
HETATM   14  C   UNL     1      -9.932  17.723  69.749  1.00  0.00     0.516 C  
HETATM   15  C   UNL     1      -8.822  17.487  70.679  1.00  0.00     4.812 C  
HETATM   16  O   UNL     1      -8.616  18.168  71.675  1.00  0.00     9.528 OA 
HETATM   17  N   UNL     1      -7.990  16.446  70.363  1.00  0.00     1.948 N  
HETATM   18  F   UNL     1     -10.628  19.573  71.126  1.00  0.00     0.753 F  
HETATM   19  F   UNL     1     -10.990  19.671  68.990  1.00  0.00     0.142 F  
HETATM   20  F   UNL     1     -12.150  18.312  70.225  1.00  0.00     5.423 F  
HETATM   21  C   UNL     1      -8.023  15.700  69.216  1.00  0.00    -0.237 C  
HETATM   22  H   UNL     1      -7.276  16.203  71.050  1.00  0.00     0.000 HD 
HETATM   23  O   UNL     1      -7.145  14.867  68.995  1.00  0.00    -0.111 OA 
ENDBRANCH   6  11
ENDBRANCH   3   4
TORSDOF 2
ENDMDL
