MODEL        1
REMARK 921   NORMALIZED FREE ENERGY PREDICTED BY IDOCK:   -8.49 KCAL/MOL
REMARK 922        TOTAL FREE ENERGY PREDICTED BY IDOCK:  -13.43 KCAL/MOL
REMARK 923 INTER-LIGAND FREE ENERGY PREDICTED BY IDOCK:  -11.96 KCAL/MOL
REMARK 924 INTRA-LIGAND FREE ENERGY PREDICTED BY IDOCK:   -1.47 KCAL/MOL
REMARK 927      BINDING AFFINITY PREDICTED BY RF-SCORE:    0.00 PKD
ROOT
HETATM    1  C   UNL     1     -12.478  14.305  65.481  1.00  0.00    -0.434 C  
HETATM    2  C   UNL     1     -11.204  15.154  65.686  1.00  0.00    -0.296 C  
HETATM    3  C   UNL     1      -9.970  14.315  65.219  1.00  0.00    -0.313 C  
HETATM    4  C   UNL     1     -11.161  16.333  64.679  1.00  0.00    -0.264 C  
ENDROOT
BRANCH   2   5
HETATM    5  C   UNL     1     -11.054  15.526  67.194  1.00  0.00    -0.256 A  
HETATM    6  C   UNL     1     -11.675  14.626  68.125  1.00  0.00    -0.360 A  
HETATM    7  C   UNL     1     -11.343  14.521  69.487  1.00  0.00    -0.313 A  
HETATM    8  C   UNL     1     -10.290  15.342  69.872  1.00  0.00    -0.258 A  
HETATM    9  C   UNL     1     -10.300  16.596  67.719  1.00  0.00    -0.306 A  
HETATM   10  C   UNL     1      -9.845  16.401  69.042  1.00  0.00    -0.266 A  
BRANCH   7  11
HETATM   11  C   UNL     1     -12.069  13.575  70.418  1.00  0.00    -0.415 A  
HETATM   12  C   UNL     1     -11.681  12.194  70.413  1.00  0.00    -0.150 A  
HETATM   13  C   UNL     1     -12.318  11.167  71.155  1.00  0.00    -0.451 A  
HETATM   14  C   UNL     1     -13.175  13.897  71.241  1.00  0.00    -0.282 A  
HETATM   15  C   UNL     1     -13.324  11.575  72.034  1.00  0.00    -0.397 A  
HETATM   16  C   UNL     1     -13.738  12.913  72.081  1.00  0.00    -0.505 A  
BRANCH  13  17
HETATM   17  C   UNL     1     -11.999   9.720  70.945  1.00  0.00    -0.413 A  
HETATM   18  C   UNL     1     -12.573   8.695  71.723  1.00  0.00    -0.396 A  
HETATM   19  C   UNL     1     -11.194   6.993  70.669  1.00  0.00    -0.327 A  
HETATM   20  C   UNL     1     -11.044   9.316  69.985  1.00  0.00    -0.228 A  
HETATM   21  C   UNL     1     -12.181   7.351  71.592  1.00  0.00    -0.361 A  
HETATM   22  O   UNL     1     -10.345   5.133  69.450  1.00  0.00    -0.234 OA 
HETATM   23  C   UNL     1     -10.650   7.977  69.844  1.00  0.00    -0.242 A  
HETATM   24  C   UNL     1     -10.714   5.596  70.516  1.00  0.00    -0.274 C  
HETATM   25  O   UNL     1     -10.668   4.906  71.676  1.00  0.00    -0.127 OA 
ENDBRANCH  13  17
BRANCH  14  26
HETATM   26  O   UNL     1     -13.804  15.114  71.409  1.00  0.00    -0.445 OA 
BRANCH  26  27
HETATM   27  C   UNL     1     -13.866  15.642  72.734  1.00  0.00    -0.545 C  
BRANCH  27  28
HETATM   28  C   UNL     1     -12.473  15.968  73.266  1.00  0.00    -0.535 C  
HETATM   29  O   UNL     1     -12.233  15.325  74.515  1.00  0.00    -0.711 OA 
HETATM   30  H   UNL     1     -11.366  15.527  74.846  1.00  0.00     0.000 HD 
ENDBRANCH  27  28
ENDBRANCH  26  27
ENDBRANCH  14  26
ENDBRANCH   7  11
BRANCH   9  31
HETATM   31  N   UNL     1      -9.979  17.747  67.012  1.00  0.00    -0.309 NA 
HETATM   32  C   UNL     1     -10.783  18.971  67.153  1.00  0.00    -0.456 C  
HETATM   33  C   UNL     1      -8.762  19.502  65.981  1.00  0.00    -0.227 C  
HETATM   34  C   UNL     1     -10.254  19.817  65.996  1.00  0.00    -0.600 C  
HETATM   35  C   UNL     1      -8.602  18.235  66.842  1.00  0.00    -0.263 C  
ENDBRANCH   9  31
ENDBRANCH   2   5
TORSDOF 7
ENDMDL
MODEL        2
REMARK 921   NORMALIZED FREE ENERGY PREDICTED BY IDOCK:   -7.96 KCAL/MOL
REMARK 922        TOTAL FREE ENERGY PREDICTED BY IDOCK:  -12.68 KCAL/MOL
REMARK 923 INTER-LIGAND FREE ENERGY PREDICTED BY IDOCK:  -10.91 KCAL/MOL
REMARK 924 INTRA-LIGAND FREE ENERGY PREDICTED BY IDOCK:   -1.77 KCAL/MOL
REMARK 927      BINDING AFFINITY PREDICTED BY RF-SCORE:    0.00 PKD
ROOT
HETATM    1  C   UNL     1      -6.792  17.056  66.430  1.00  0.00    -0.248 C  
HETATM    2  C   UNL     1      -7.273  16.190  67.617  1.00  0.00    -0.169 C  
HETATM    3  C   UNL     1      -6.332  14.946  67.733  1.00  0.00    -0.174 C  
HETATM    4  C   UNL     1      -6.993  16.903  68.966  1.00  0.00    -0.224 C  
ENDROOT
BRANCH   2   5
HETATM    5  C   UNL     1      -8.742  15.726  67.371  1.00  0.00    -0.199 A  
HETATM    6  C   UNL     1      -8.927  14.317  67.167  1.00  0.00    -0.237 A  
HETATM    7  C   UNL     1     -10.143  13.631  67.333  1.00  0.00    -0.241 A  
HETATM    8  C   UNL     1     -11.183  14.436  67.783  1.00  0.00    -0.316 A  
HETATM    9  C   UNL     1      -9.894  16.537  67.424  1.00  0.00    -0.253 A  
HETATM   10  C   UNL     1     -11.084  15.849  67.745  1.00  0.00    -0.288 A  
BRANCH   7  11
HETATM   11  C   UNL     1     -10.271  12.148  67.061  1.00  0.00    -0.225 A  
HETATM   12  C   UNL     1     -10.483  11.273  68.178  1.00  0.00    -0.215 A  
HETATM   13  C   UNL     1     -10.534   9.858  68.104  1.00  0.00    -0.256 A  
HETATM   14  C   UNL     1     -10.108  11.512  65.806  1.00  0.00    -0.237 A  
HETATM   15  C   UNL     1     -10.482   9.305  66.823  1.00  0.00    -0.263 A  
HETATM   16  C   UNL     1     -10.282  10.116  65.698  1.00  0.00    -0.288 A  
BRANCH  13  17
HETATM   17  C   UNL     1     -10.547   8.999  69.329  1.00  0.00    -0.226 A  
HETATM   18  C   UNL     1     -10.535   7.592  69.270  1.00  0.00    -0.216 A  
HETATM   19  C   UNL     1     -10.807   7.393  71.677  1.00  0.00    -0.246 A  
HETATM   20  C   UNL     1     -10.641   9.570  70.618  1.00  0.00    -0.374 A  
HETATM   21  C   UNL     1     -10.661   6.795  70.422  1.00  0.00    -0.281 A  
HETATM   22  O   UNL     1     -10.555   6.962  74.005  1.00  0.00    -0.349 OA 
HETATM   23  C   UNL     1     -10.763   8.783  71.774  1.00  0.00    -0.413 A  
HETATM   24  C   UNL     1     -10.983   6.602  72.923  1.00  0.00    -0.253 C  
HETATM   25  O   UNL     1     -11.712   5.478  72.754  1.00  0.00    -0.297 OA 
ENDBRANCH  13  17
BRANCH  14  26
HETATM   26  O   UNL     1      -9.840  12.078  64.576  1.00  0.00    -0.234 OA 
BRANCH  26  27
HETATM   27  C   UNL     1     -10.928  12.202  63.661  1.00  0.00    -0.461 C  
BRANCH  27  28
HETATM   28  C   UNL     1     -11.899  13.293  64.103  1.00  0.00    -0.443 C  
HETATM   29  O   UNL     1     -12.524  13.913  62.982  1.00  0.00    -1.099 OA 
HETATM   30  H   UNL     1     -13.129  14.593  63.257  1.00  0.00     0.000 HD 
ENDBRANCH  27  28
ENDBRANCH  26  27
ENDBRANCH  14  26
ENDBRANCH   7  11
BRANCH   9  31
HETATM   31  N   UNL     1      -9.892  17.911  67.218  1.00  0.00    -0.298 NA 
HETATM   32  C   UNL     1     -10.443  18.493  65.985  1.00  0.00    -0.400 C  
HETATM   33  C   UNL     1     -10.066  20.250  67.568  1.00  0.00    -0.519 C  
HETATM   34  C   UNL     1      -9.948  19.935  66.080  1.00  0.00    -0.593 C  
HETATM   35  C   UNL     1     -10.235  18.887  68.264  1.00  0.00    -0.380 C  
ENDBRANCH   9  31
ENDBRANCH   2   5
TORSDOF 7
ENDMDL
MODEL        3
REMARK 921   NORMALIZED FREE ENERGY PREDICTED BY IDOCK:   -7.86 KCAL/MOL
REMARK 922        TOTAL FREE ENERGY PREDICTED BY IDOCK:  -12.55 KCAL/MOL
REMARK 923 INTER-LIGAND FREE ENERGY PREDICTED BY IDOCK:  -10.98 KCAL/MOL
REMARK 924 INTRA-LIGAND FREE ENERGY PREDICTED BY IDOCK:   -1.57 KCAL/MOL
REMARK 927      BINDING AFFINITY PREDICTED BY RF-SCORE:    0.00 PKD
ROOT
HETATM    1  C   UNL     1      -9.804   8.676  66.133  1.00  0.00    -0.269 C  
HETATM    2  C   UNL     1      -9.832   8.580  67.675  1.00  0.00    -0.222 C  
HETATM    3  C   UNL     1     -10.718   7.355  68.078  1.00  0.00    -0.191 C  
HETATM    4  C   UNL     1      -8.449   8.142  68.224  1.00  0.00    -0.130 C  
ENDROOT
BRANCH   2   5
HETATM    5  C   UNL     1     -10.431   9.890  68.275  1.00  0.00    -0.246 A  
HETATM    6  C   UNL     1     -10.457  11.025  67.396  1.00  0.00    -0.255 A  
HETATM    7  C   UNL     1     -11.288  12.149  67.555  1.00  0.00    -0.392 A  
HETATM    8  C   UNL     1     -12.158  12.053  68.635  1.00  0.00    -0.145 A  
HETATM    9  C   UNL     1     -11.022  10.032  69.547  1.00  0.00    -0.253 A  
HETATM   10  C   UNL     1     -11.970  11.074  69.642  1.00  0.00    -0.424 A  
BRANCH   7  11
HETATM   11  C   UNL     1     -11.233  13.327  66.607  1.00  0.00    -0.332 A  
HETATM   12  C   UNL     1     -10.415  14.448  66.972  1.00  0.00    -0.268 A  
HETATM   13  C   UNL     1     -10.326  15.661  66.242  1.00  0.00    -0.316 A  
HETATM   14  C   UNL     1     -11.991  13.481  65.422  1.00  0.00    -0.379 A  
HETATM   15  C   UNL     1     -11.007  15.699  65.024  1.00  0.00    -0.445 A  
HETATM   16  C   UNL     1     -11.817  14.629  64.619  1.00  0.00    -0.459 A  
BRANCH  13  17
HETATM   17  C   UNL     1      -9.620  16.863  66.785  1.00  0.00    -0.273 A  
HETATM   18  C   UNL     1     -10.024  18.179  66.487  1.00  0.00    -0.374 A  
HETATM   19  C   UNL     1      -8.114  19.132  67.650  1.00  0.00    -0.299 A  
HETATM   20  C   UNL     1      -8.460  16.731  67.580  1.00  0.00    -0.197 A  
HETATM   21  C   UNL     1      -9.288  19.300  66.910  1.00  0.00    -0.371 A  
HETATM   22  O   UNL     1      -6.645  20.277  69.132  1.00  0.00    -0.295 OA 
HETATM   23  C   UNL     1      -7.721  17.843  68.011  1.00  0.00    -0.245 A  
HETATM   24  C   UNL     1      -7.276  20.276  68.089  1.00  0.00    -0.231 C  
HETATM   25  O   UNL     1      -7.231  21.291  67.199  1.00  0.00    -0.475 OA 
ENDBRANCH  13  17
BRANCH  14  26
HETATM   26  O   UNL     1     -12.898  12.609  64.853  1.00  0.00    -0.763 OA 
BRANCH  26  27
HETATM   27  C   UNL     1     -12.531  11.996  63.618  1.00  0.00    -0.525 C  
BRANCH  27  28
HETATM   28  C   UNL     1     -11.192  11.273  63.736  1.00  0.00    -0.149 C  
HETATM   29  O   UNL     1     -10.235  11.804  62.824  1.00  0.00    -0.595 OA 
HETATM   30  H   UNL     1      -9.402  11.354  62.897  1.00  0.00     0.000 HD 
ENDBRANCH  27  28
ENDBRANCH  26  27
ENDBRANCH  14  26
ENDBRANCH   7  11
BRANCH   9  31
HETATM   31  N   UNL     1     -10.746   9.211  70.633  1.00  0.00    -0.234 NA 
HETATM   32  C   UNL     1      -9.452   9.284  71.328  1.00  0.00    -0.175 C  
HETATM   33  C   UNL     1     -10.963   7.970  72.642  1.00  0.00    -0.448 C  
HETATM   34  C   UNL     1      -9.504   8.032  72.201  1.00  0.00    -0.264 C  
HETATM   35  C   UNL     1     -11.716   8.929  71.702  1.00  0.00    -0.341 C  
ENDBRANCH   9  31
ENDBRANCH   2   5
TORSDOF 7
ENDMDL
MODEL        4
REMARK 921   NORMALIZED FREE ENERGY PREDICTED BY IDOCK:   -7.84 KCAL/MOL
REMARK 922        TOTAL FREE ENERGY PREDICTED BY IDOCK:  -12.52 KCAL/MOL
REMARK 923 INTER-LIGAND FREE ENERGY PREDICTED BY IDOCK:  -10.90 KCAL/MOL
REMARK 924 INTRA-LIGAND FREE ENERGY PREDICTED BY IDOCK:   -1.62 KCAL/MOL
REMARK 927      BINDING AFFINITY PREDICTED BY RF-SCORE:    0.00 PKD
ROOT
HETATM    1  C   UNL     1      -8.479   8.596  68.260  1.00  0.00    -0.131 C  
HETATM    2  C   UNL     1      -9.918   8.934  67.807  1.00  0.00    -0.241 C  
HETATM    3  C   UNL     1      -9.907   9.165  66.261  1.00  0.00    -0.359 C  
HETATM    4  C   UNL     1     -10.835   7.688  67.917  1.00  0.00    -0.105 C  
ENDROOT
BRANCH   2   5
HETATM    5  C   UNL     1     -10.412  10.223  68.535  1.00  0.00    -0.217 A  
HETATM    6  C   UNL     1     -10.222  11.455  67.823  1.00  0.00    -0.202 A  
HETATM    7  C   UNL     1     -10.926  12.647  68.072  1.00  0.00    -0.266 A  
HETATM    8  C   UNL     1     -11.899  12.527  69.057  1.00  0.00    -0.344 A  
HETATM    9  C   UNL     1     -11.101  10.276  69.764  1.00  0.00    -0.287 A  
HETATM   10  C   UNL     1     -11.925  11.410  69.929  1.00  0.00    -0.434 A  
BRANCH   7  11
HETATM   11  C   UNL     1     -10.643  13.920  67.305  1.00  0.00    -0.276 A  
HETATM   12  C   UNL     1      -9.615  14.790  67.798  1.00  0.00    -0.209 A  
HETATM   13  C   UNL     1      -9.290  16.057  67.251  1.00  0.00    -0.218 A  
HETATM   14  C   UNL     1     -11.363  14.397  66.183  1.00  0.00    -0.350 A  
HETATM   15  C   UNL     1      -9.958  16.412  66.077  1.00  0.00    -0.369 A  
HETATM   16  C   UNL     1     -10.968  15.595  65.551  1.00  0.00    -0.307 A  
BRANCH  13  17
HETATM   17  C   UNL     1      -8.354  17.002  67.936  1.00  0.00    -0.201 A  
HETATM   18  C   UNL     1      -7.229  16.564  68.662  1.00  0.00    -0.186 A  
HETATM   19  C   UNL     1      -6.722  18.816  69.423  1.00  0.00    -0.246 A  
HETATM   20  C   UNL     1      -8.596  18.394  67.941  1.00  0.00    -0.285 A  
HETATM   21  C   UNL     1      -6.421  17.451  69.396  1.00  0.00    -0.233 A  
HETATM   22  O   UNL     1      -5.753  20.946  69.858  1.00  0.00    -0.468 OA 
HETATM   23  C   UNL     1      -7.794  19.288  68.666  1.00  0.00    -0.396 A  
HETATM   24  C   UNL     1      -5.928  19.793  70.211  1.00  0.00    -0.302 C  
HETATM   25  O   UNL     1      -5.467  19.301  71.382  1.00  0.00    -0.276 OA 
ENDBRANCH  13  17
BRANCH  14  26
HETATM   26  O   UNL     1     -12.430  13.816  65.528  1.00  0.00    -0.454 OA 
BRANCH  26  27
HETATM   27  C   UNL     1     -12.211  12.543  64.919  1.00  0.00    -0.470 C  
BRANCH  27  28
HETATM   28  C   UNL     1     -12.014  12.678  63.412  1.00  0.00    -0.528 C  
HETATM   29  O   UNL     1     -12.575  13.894  62.924  1.00  0.00    -0.966 OA 
HETATM   30  H   UNL     1     -12.453  13.978  61.986  1.00  0.00     0.000 HD 
ENDBRANCH  27  28
ENDBRANCH  26  27
ENDBRANCH  14  26
ENDBRANCH   7  11
BRANCH   9  31
HETATM   31  N   UNL     1     -11.028   9.293  70.744  1.00  0.00    -0.260 NA 
HETATM   32  C   UNL     1      -9.819   9.131  71.566  1.00  0.00    -0.265 C  
HETATM   33  C   UNL     1     -11.586   7.828  72.523  1.00  0.00    -0.422 C  
HETATM   34  C   UNL     1     -10.088   7.788  72.242  1.00  0.00    -0.277 C  
HETATM   35  C   UNL     1     -12.135   8.980  71.660  1.00  0.00    -0.352 C  
ENDBRANCH   9  31
ENDBRANCH   2   5
TORSDOF 7
ENDMDL
MODEL        5
REMARK 921   NORMALIZED FREE ENERGY PREDICTED BY IDOCK:   -7.71 KCAL/MOL
REMARK 922        TOTAL FREE ENERGY PREDICTED BY IDOCK:  -12.34 KCAL/MOL
REMARK 923 INTER-LIGAND FREE ENERGY PREDICTED BY IDOCK:  -10.66 KCAL/MOL
REMARK 924 INTRA-LIGAND FREE ENERGY PREDICTED BY IDOCK:   -1.68 KCAL/MOL
REMARK 927      BINDING AFFINITY PREDICTED BY RF-SCORE:    0.00 PKD
ROOT
HETATM    1  C   UNL     1      -9.907  19.647  68.802  1.00  0.00    -0.519 C  
HETATM    2  C   UNL     1      -9.570  18.886  67.499  1.00  0.00    -0.347 C  
HETATM    3  C   UNL     1     -10.909  18.549  66.764  1.00  0.00    -0.168 C  
HETATM    4  C   UNL     1      -8.896  19.831  66.470  1.00  0.00    -0.420 C  
ENDROOT
BRANCH   2   5
HETATM    5  C   UNL     1      -8.803  17.571  67.837  1.00  0.00    -0.247 A  
HETATM    6  C   UNL     1      -9.536  16.352  67.645  1.00  0.00    -0.227 A  
HETATM    7  C   UNL     1      -8.958  15.079  67.489  1.00  0.00    -0.189 A  
HETATM    8  C   UNL     1      -7.568  15.094  67.476  1.00  0.00    -0.216 A  
HETATM    9  C   UNL     1      -7.449  17.469  68.219  1.00  0.00    -0.237 A  
HETATM   10  C   UNL     1      -6.844  16.231  67.912  1.00  0.00    -0.152 A  
BRANCH   7  11
HETATM   11  C   UNL     1      -9.798  13.831  67.330  1.00  0.00    -0.241 A  
HETATM   12  C   UNL     1      -9.910  12.945  68.452  1.00  0.00    -0.197 A  
HETATM   13  C   UNL     1     -10.581  11.696  68.439  1.00  0.00    -0.235 A  
HETATM   14  C   UNL     1     -10.421  13.391  66.137  1.00  0.00    -0.295 A  
HETATM   15  C   UNL     1     -11.271  11.380  67.266  1.00  0.00    -0.370 A  
HETATM   16  C   UNL     1     -11.198  12.213  66.143  1.00  0.00    -0.386 A  
BRANCH  13  17
HETATM   17  C   UNL     1     -10.483  10.730  69.576  1.00  0.00    -0.205 A  
HETATM   18  C   UNL     1      -9.316   9.988  69.844  1.00  0.00    -0.207 A  
HETATM   19  C   UNL     1     -10.406   8.727  71.613  1.00  0.00    -0.391 A  
HETATM   20  C   UNL     1     -11.595  10.466  70.407  1.00  0.00    -0.423 A  
HETATM   21  C   UNL     1      -9.271   9.001  70.845  1.00  0.00    -0.320 A  
HETATM   22  O   UNL     1     -11.091   7.756  73.675  1.00  0.00    -0.197 OA 
HETATM   23  C   UNL     1     -11.558   9.486  71.412  1.00  0.00    -0.466 A  
HETATM   24  C   UNL     1     -10.428   7.670  72.657  1.00  0.00    -0.287 C  
HETATM   25  O   UNL     1      -9.692   6.582  72.344  1.00  0.00    -0.154 OA 
ENDBRANCH  13  17
BRANCH  14  26
HETATM   26  O   UNL     1     -10.437  13.993  64.895  1.00  0.00    -0.393 OA 
BRANCH  26  27
HETATM   27  C   UNL     1     -11.696  14.083  64.228  1.00  0.00    -0.367 C  
BRANCH  27  28
HETATM   28  C   UNL     1     -12.340  15.449  64.446  1.00  0.00    -0.077 C  
HETATM   29  O   UNL     1     -11.521  16.495  63.931  1.00  0.00    -1.608 OA 
HETATM   30  H   UNL     1     -11.922  17.346  64.067  1.00  0.00     0.000 HD 
ENDBRANCH  27  28
ENDBRANCH  26  27
ENDBRANCH  14  26
ENDBRANCH   7  11
BRANCH   9  31
HETATM   31  N   UNL     1      -6.726  18.493  68.817  1.00  0.00    -0.257 NA 
HETATM   32  C   UNL     1      -6.049  18.289  70.107  1.00  0.00    -0.051 C  
HETATM   33  C   UNL     1      -5.291  20.351  69.152  1.00  0.00    -0.299 C  
HETATM   34  C   UNL     1      -5.679  19.722  70.486  1.00  0.00    -0.307 C  
HETATM   35  C   UNL     1      -5.830  19.392  68.075  1.00  0.00    -0.206 C  
ENDBRANCH   9  31
ENDBRANCH   2   5
TORSDOF 7
ENDMDL
MODEL        6
REMARK 921   NORMALIZED FREE ENERGY PREDICTED BY IDOCK:   -7.54 KCAL/MOL
REMARK 922        TOTAL FREE ENERGY PREDICTED BY IDOCK:  -12.09 KCAL/MOL
REMARK 923 INTER-LIGAND FREE ENERGY PREDICTED BY IDOCK:  -10.49 KCAL/MOL
REMARK 924 INTRA-LIGAND FREE ENERGY PREDICTED BY IDOCK:   -1.60 KCAL/MOL
REMARK 927      BINDING AFFINITY PREDICTED BY RF-SCORE:    0.00 PKD
ROOT
HETATM    1  C   UNL     1      -8.580   6.853  69.911  1.00  0.00    -0.141 C  
HETATM    2  C   UNL     1     -10.022   7.288  69.563  1.00  0.00    -0.170 C  
HETATM    3  C   UNL     1     -10.945   6.027  69.619  1.00  0.00    -0.470 C  
HETATM    4  C   UNL     1     -10.625   8.151  70.702  1.00  0.00    -0.229 C  
ENDROOT
BRANCH   2   5
HETATM    5  C   UNL     1     -10.055   7.909  68.132  1.00  0.00    -0.228 A  
HETATM    6  C   UNL     1     -10.574   9.245  68.042  1.00  0.00    -0.262 A  
HETATM    7  C   UNL     1     -10.333  10.133  66.979  1.00  0.00    -0.303 A  
HETATM    8  C   UNL     1      -9.474   9.627  66.011  1.00  0.00    -0.284 A  
HETATM    9  C   UNL     1      -9.544   7.324  66.955  1.00  0.00    -0.166 A  
HETATM   10  C   UNL     1      -9.164   8.246  65.957  1.00  0.00    -0.226 A  
BRANCH   7  11
HETATM   11  C   UNL     1     -10.947  11.515  66.935  1.00  0.00    -0.350 A  
HETATM   12  C   UNL     1     -10.998  12.270  68.154  1.00  0.00    -0.269 A  
HETATM   13  C   UNL     1     -11.619  13.537  68.300  1.00  0.00    -0.381 A  
HETATM   14  C   UNL     1     -11.573  12.116  65.816  1.00  0.00    -0.355 A  
HETATM   15  C   UNL     1     -12.112  14.121  67.132  1.00  0.00    -0.432 A  
HETATM   16  C   UNL     1     -12.082  13.428  65.914  1.00  0.00    -0.486 A  
BRANCH  13  17
HETATM   17  C   UNL     1     -11.820  14.172  69.640  1.00  0.00    -0.379 A  
HETATM   18  C   UNL     1     -12.685  13.635  70.614  1.00  0.00    -0.303 A  
HETATM   19  C   UNL     1     -12.353  15.534  72.095  1.00  0.00    -0.476 A  
HETATM   20  C   UNL     1     -11.190  15.393  69.969  1.00  0.00    -0.314 A  
HETATM   21  C   UNL     1     -12.951  14.300  71.824  1.00  0.00    -0.430 A  
HETATM   22  O   UNL     1     -11.794  17.000  73.884  1.00  0.00    -0.221 OA 
HETATM   23  C   UNL     1     -11.446  16.062  71.176  1.00  0.00    -0.470 A  
HETATM   24  C   UNL     1     -12.627  16.299  73.338  1.00  0.00    -0.486 C  
HETATM   25  O   UNL     1     -13.901  16.191  73.772  1.00  0.00    -0.280 OA 
ENDBRANCH  13  17
BRANCH  14  26
HETATM   26  O   UNL     1     -11.731  11.614  64.539  1.00  0.00    -0.234 OA 
BRANCH  26  27
HETATM   27  C   UNL     1     -11.043  12.283  63.483  1.00  0.00    -0.464 C  
BRANCH  27  28
HETATM   28  C   UNL     1      -9.759  11.549  63.108  1.00  0.00    -0.390 C  
HETATM   29  O   UNL     1     -10.039  10.357  62.378  1.00  0.00    -0.743 OA 
HETATM   30  H   UNL     1      -9.240   9.900  62.145  1.00  0.00     0.000 HD 
ENDBRANCH  27  28
ENDBRANCH  26  27
ENDBRANCH  14  26
ENDBRANCH   7  11
BRANCH   9  31
HETATM   31  N   UNL     1      -9.380   5.957  66.770  1.00  0.00    -0.131 NA 
HETATM   32  C   UNL     1     -10.436   5.145  66.145  1.00  0.00    -0.250 C  
HETATM   33  C   UNL     1      -8.433   3.839  66.280  1.00  0.00    -0.110 C  
HETATM   34  C   UNL     1      -9.946   3.729  66.438  1.00  0.00     0.044 C  
HETATM   35  C   UNL     1      -8.128   5.348  66.298  1.00  0.00    -0.105 C  
ENDBRANCH   9  31
ENDBRANCH   2   5
TORSDOF 7
ENDMDL
MODEL        7
REMARK 921   NORMALIZED FREE ENERGY PREDICTED BY IDOCK:   -7.13 KCAL/MOL
REMARK 922        TOTAL FREE ENERGY PREDICTED BY IDOCK:  -11.52 KCAL/MOL
REMARK 923 INTER-LIGAND FREE ENERGY PREDICTED BY IDOCK:  -10.22 KCAL/MOL
REMARK 924 INTRA-LIGAND FREE ENERGY PREDICTED BY IDOCK:   -1.31 KCAL/MOL
REMARK 927      BINDING AFFINITY PREDICTED BY RF-SCORE:    0.00 PKD
ROOT
HETATM    1  C   UNL     1      -7.384   6.201  68.751  1.00  0.00    -0.086 C  
HETATM    2  C   UNL     1      -8.673   6.716  69.432  1.00  0.00    -0.135 C  
HETATM    3  C   UNL     1      -9.538   5.481  69.848  1.00  0.00    -0.217 C  
HETATM    4  C   UNL     1      -8.352   7.336  70.817  1.00  0.00    -0.124 C  
ENDROOT
BRANCH   2   5
HETATM    5  C   UNL     1      -9.472   7.616  68.440  1.00  0.00    -0.150 A  
HETATM    6  C   UNL     1     -10.061   8.798  69.003  1.00  0.00    -0.206 A  
HETATM    7  C   UNL     1     -10.457   9.930  68.268  1.00  0.00    -0.246 A  
HETATM    8  C   UNL     1     -10.174   9.842  66.910  1.00  0.00    -0.302 A  
HETATM    9  C   UNL     1      -9.588   7.425  67.047  1.00  0.00    -0.172 A  
HETATM   10  C   UNL     1      -9.834   8.604  66.311  1.00  0.00    -0.320 A  
BRANCH   7  11
HETATM   11  C   UNL     1     -11.108  11.126  68.927  1.00  0.00    -0.293 A  
HETATM   12  C   UNL     1     -10.972  12.404  68.290  1.00  0.00    -0.269 A  
HETATM   13  C   UNL     1     -11.442  13.632  68.822  1.00  0.00    -0.346 A  
HETATM   14  C   UNL     1     -11.770  11.132  70.178  1.00  0.00    -0.353 A  
HETATM   15  C   UNL     1     -12.187  13.549  70.000  1.00  0.00    -0.381 A  
HETATM   16  C   UNL     1     -12.354  12.324  70.659  1.00  0.00    -0.375 A  
BRANCH  13  17
HETATM   17  C   UNL     1     -11.084  14.950  68.211  1.00  0.00    -0.290 A  
HETATM   18  C   UNL     1     -10.627  15.074  66.884  1.00  0.00    -0.297 A  
HETATM   19  C   UNL     1     -10.193  17.450  67.152  1.00  0.00    -0.323 A  
HETATM   20  C   UNL     1     -11.128  16.141  68.970  1.00  0.00    -0.336 A  
HETATM   21  C   UNL     1     -10.188  16.301  66.357  1.00  0.00    -0.322 A  
HETATM   22  O   UNL     1     -10.179  19.827  67.023  1.00  0.00    -0.393 OA 
HETATM   23  C   UNL     1     -10.696  17.372  68.451  1.00  0.00    -0.301 A  
HETATM   24  C   UNL     1      -9.705  18.764  66.661  1.00  0.00    -0.344 C  
HETATM   25  O   UNL     1      -8.650  18.673  65.823  1.00  0.00    -0.430 OA 
ENDBRANCH  13  17
BRANCH  14  26
HETATM   26  O   UNL     1     -12.001  10.080  71.042  1.00  0.00    -0.317 OA 
BRANCH  26  27
HETATM   27  C   UNL     1     -13.101  10.203  71.944  1.00  0.00    -0.466 C  
BRANCH  27  28
HETATM   28  C   UNL     1     -13.804   8.864  72.143  1.00  0.00    -0.473 C  
HETATM   29  O   UNL     1     -14.352   8.758  73.455  1.00  0.00    -1.155 OA 
HETATM   30  H   UNL     1     -14.789   7.924  73.579  1.00  0.00     0.000 HD 
ENDBRANCH  27  28
ENDBRANCH  26  27
ENDBRANCH  14  26
ENDBRANCH   7  11
BRANCH   9  31
HETATM   31  N   UNL     1      -9.442   6.199  66.411  1.00  0.00    -0.158 NA 
HETATM   32  C   UNL     1     -10.591   5.299  66.229  1.00  0.00    -0.248 C  
HETATM   33  C   UNL     1      -8.765   4.502  64.899  1.00  0.00    -0.140 C  
HETATM   34  C   UNL     1      -9.901   4.009  65.789  1.00  0.00    -0.181 C  
HETATM   35  C   UNL     1      -8.635   6.007  65.197  1.00  0.00    -0.069 C  
ENDBRANCH   9  31
ENDBRANCH   2   5
TORSDOF 7
ENDMDL
MODEL        8
REMARK 921   NORMALIZED FREE ENERGY PREDICTED BY IDOCK:   -7.11 KCAL/MOL
REMARK 922        TOTAL FREE ENERGY PREDICTED BY IDOCK:  -11.49 KCAL/MOL
REMARK 923 INTER-LIGAND FREE ENERGY PREDICTED BY IDOCK:  -10.09 KCAL/MOL
REMARK 924 INTRA-LIGAND FREE ENERGY PREDICTED BY IDOCK:   -1.40 KCAL/MOL
REMARK 927      BINDING AFFINITY PREDICTED BY RF-SCORE:    0.00 PKD
ROOT
HETATM    1  C   UNL     1     -11.009  11.063  64.567  1.00  0.00    -0.158 C  
HETATM    2  C   UNL     1     -10.188  10.973  65.874  1.00  0.00    -0.309 C  
HETATM    3  C   UNL     1      -9.972   9.463  66.218  1.00  0.00    -0.353 C  
HETATM    4  C   UNL     1      -8.727  11.438  65.638  1.00  0.00    -0.016 C  
ENDROOT
BRANCH   2   5
HETATM    5  C   UNL     1     -10.960  11.678  67.032  1.00  0.00    -0.338 A  
HETATM    6  C   UNL     1     -11.286  10.852  68.160  1.00  0.00    -0.383 A  
HETATM    7  C   UNL     1     -11.595  11.329  69.447  1.00  0.00    -0.390 A  
HETATM    8  C   UNL     1     -11.501  12.710  69.568  1.00  0.00    -0.294 A  
HETATM    9  C   UNL     1     -11.277  13.050  67.111  1.00  0.00    -0.286 A  
HETATM   10  C   UNL     1     -11.432  13.543  68.424  1.00  0.00    -0.346 A  
BRANCH   7  11
HETATM   11  C   UNL     1     -11.968  10.397  70.579  1.00  0.00    -0.427 A  
HETATM   12  C   UNL     1     -11.337   9.110  70.629  1.00  0.00    -0.323 A  
HETATM   13  C   UNL     1     -11.640   8.092  71.568  1.00  0.00    -0.313 A  
HETATM   14  C   UNL     1     -12.961  10.632  71.560  1.00  0.00    -0.461 A  
HETATM   15  C   UNL     1     -12.544   8.432  72.577  1.00  0.00    -0.311 A  
HETATM   16  C   UNL     1     -13.185   9.678  72.577  1.00  0.00    -0.296 A  
BRANCH  13  17
HETATM   17  C   UNL     1     -11.098   6.703  71.436  1.00  0.00    -0.306 A  
HETATM   18  C   UNL     1     -10.880   5.865  72.546  1.00  0.00    -0.289 A  
HETATM   19  C   UNL     1      -9.849   4.148  71.169  1.00  0.00    -0.244 A  
HETATM   20  C   UNL     1     -10.715   6.187  70.178  1.00  0.00    -0.366 A  
HETATM   21  C   UNL     1     -10.266   4.606  72.422  1.00  0.00    -0.249 A  
HETATM   22  O   UNL     1      -9.291   2.161  69.983  1.00  0.00    -0.114 OA 
HETATM   23  C   UNL     1     -10.105   4.930  70.043  1.00  0.00    -0.337 A  
HETATM   24  C   UNL     1      -9.160   2.845  70.983  1.00  0.00    -0.115 C  
HETATM   25  O   UNL     1      -8.332   2.518  71.999  1.00  0.00    -0.057 OA 
ENDBRANCH  13  17
BRANCH  14  26
HETATM   26  O   UNL     1     -13.768  11.739  71.729  1.00  0.00    -0.024 OA 
BRANCH  26  27
HETATM   27  C   UNL     1     -13.178  12.893  72.326  1.00  0.00    -0.414 C  
BRANCH  27  28
HETATM   28  C   UNL     1     -14.115  14.096  72.247  1.00  0.00    -0.533 C  
HETATM   29  O   UNL     1     -13.765  14.953  71.164  1.00  0.00    -0.469 OA 
HETATM   30  H   UNL     1     -14.348  15.702  71.114  1.00  0.00     0.000 HD 
ENDBRANCH  27  28
ENDBRANCH  26  27
ENDBRANCH  14  26
ENDBRANCH   7  11
BRANCH   9  31
HETATM   31  N   UNL     1     -11.401  13.887  66.009  1.00  0.00    -0.318 NA 
HETATM   32  C   UNL     1     -12.723  14.250  65.478  1.00  0.00    -0.380 C  
HETATM   33  C   UNL     1     -11.071  15.659  64.468  1.00  0.00    -0.303 C  
HETATM   34  C   UNL     1     -12.350  14.894  64.144  1.00  0.00    -0.212 C  
HETATM   35  C   UNL     1     -10.589  15.099  65.819  1.00  0.00    -0.351 C  
ENDBRANCH   9  31
ENDBRANCH   2   5
TORSDOF 7
ENDMDL
MODEL        9
REMARK 921   NORMALIZED FREE ENERGY PREDICTED BY IDOCK:   -7.07 KCAL/MOL
REMARK 922        TOTAL FREE ENERGY PREDICTED BY IDOCK:  -11.43 KCAL/MOL
REMARK 923 INTER-LIGAND FREE ENERGY PREDICTED BY IDOCK:   -9.92 KCAL/MOL
REMARK 924 INTRA-LIGAND FREE ENERGY PREDICTED BY IDOCK:   -1.51 KCAL/MOL
REMARK 927      BINDING AFFINITY PREDICTED BY RF-SCORE:    0.00 PKD
ROOT
HETATM    1  C   UNL     1     -10.832  15.379  71.284  1.00  0.00    -0.102 C  
HETATM    2  C   UNL     1     -11.882  14.778  70.321  1.00  0.00    -0.357 C  
HETATM    3  C   UNL     1     -12.483  13.496  70.984  1.00  0.00    -0.451 C  
HETATM    4  C   UNL     1     -13.136  15.688  70.241  1.00  0.00     0.089 C  
ENDROOT
BRANCH   2   5
HETATM    5  C   UNL     1     -11.206  14.410  68.965  1.00  0.00    -0.288 A  
HETATM    6  C   UNL     1     -10.967  13.011  68.745  1.00  0.00    -0.295 A  
HETATM    7  C   UNL     1     -10.761  12.417  67.487  1.00  0.00    -0.256 A  
HETATM    8  C   UNL     1     -10.868  13.306  66.424  1.00  0.00    -0.296 A  
HETATM    9  C   UNL     1     -10.900  15.300  67.915  1.00  0.00    -0.288 A  
HETATM   10  C   UNL     1     -10.850  14.707  66.635  1.00  0.00    -0.312 A  
BRANCH   7  11
HETATM   11  C   UNL     1     -10.475  10.939  67.336  1.00  0.00    -0.263 A  
HETATM   12  C   UNL     1     -10.803  10.073  68.431  1.00  0.00    -0.277 A  
HETATM   13  C   UNL     1     -10.518   8.685  68.485  1.00  0.00    -0.209 A  
HETATM   14  C   UNL     1      -9.821  10.322  66.242  1.00  0.00    -0.219 A  
HETATM   15  C   UNL     1      -9.978   8.122  67.327  1.00  0.00    -0.283 A  
HETATM   16  C   UNL     1      -9.644   8.922  66.227  1.00  0.00    -0.328 A  
BRANCH  13  17
HETATM   17  C   UNL     1     -10.696   7.886  69.737  1.00  0.00    -0.233 A  
HETATM   18  C   UNL     1     -10.928   8.482  70.992  1.00  0.00    -0.296 A  
HETATM   19  C   UNL     1     -10.802   6.342  72.139  1.00  0.00    -0.272 A  
HETATM   20  C   UNL     1     -10.573   6.478  69.727  1.00  0.00    -0.284 A  
HETATM   21  C   UNL     1     -10.982   7.728  72.178  1.00  0.00    -0.318 A  
HETATM   22  O   UNL     1     -11.225   4.356  73.381  1.00  0.00    -0.282 OA 
HETATM   23  C   UNL     1     -10.630   5.717  70.905  1.00  0.00    -0.328 A  
HETATM   24  C   UNL     1     -10.810   5.501  73.364  1.00  0.00    -0.288 C  
HETATM   25  O   UNL     1     -10.261   6.104  74.441  1.00  0.00    -0.303 OA 
ENDBRANCH  13  17
BRANCH  14  26
HETATM   26  O   UNL     1      -9.339  10.898  65.084  1.00  0.00    -0.202 OA 
BRANCH  26  27
HETATM   27  C   UNL     1      -9.998  10.562  63.863  1.00  0.00    -0.282 C  
BRANCH  27  28
HETATM   28  C   UNL     1     -10.820  11.735  63.337  1.00  0.00    -0.388 C  
HETATM   29  O   UNL     1     -12.102  11.307  62.886  1.00  0.00    -0.879 OA 
HETATM   30  H   UNL     1     -12.614  12.037  62.558  1.00  0.00     0.000 HD 
ENDBRANCH  27  28
ENDBRANCH  26  27
ENDBRANCH  14  26
ENDBRANCH   7  11
BRANCH   9  31
HETATM   31  N   UNL     1     -10.693  16.664  68.083  1.00  0.00    -0.337 NA 
HETATM   32  C   UNL     1      -9.456  17.173  68.694  1.00  0.00    -0.275 C  
HETATM   33  C   UNL     1     -10.646  19.006  67.713  1.00  0.00    -0.488 C  
HETATM   34  C   UNL     1      -9.817  18.637  68.939  1.00  0.00    -0.394 C  
HETATM   35  C   UNL     1     -11.031  17.666  67.060  1.00  0.00     0.070 C  
ENDBRANCH   9  31
ENDBRANCH   2   5
TORSDOF 7
ENDMDL
MODEL       10
REMARK 921   NORMALIZED FREE ENERGY PREDICTED BY IDOCK:   -7.03 KCAL/MOL
REMARK 922        TOTAL FREE ENERGY PREDICTED BY IDOCK:  -11.38 KCAL/MOL
REMARK 923 INTER-LIGAND FREE ENERGY PREDICTED BY IDOCK:   -9.77 KCAL/MOL
REMARK 924 INTRA-LIGAND FREE ENERGY PREDICTED BY IDOCK:   -1.61 KCAL/MOL
REMARK 927      BINDING AFFINITY PREDICTED BY RF-SCORE:    0.00 PKD
ROOT
HETATM    1  C   UNL     1     -10.947   5.893  66.906  1.00  0.00    -0.304 C  
HETATM    2  C   UNL     1     -10.170   6.481  68.106  1.00  0.00    -0.194 C  
HETATM    3  C   UNL     1     -11.145   6.580  69.325  1.00  0.00    -0.393 C  
HETATM    4  C   UNL     1      -9.130   5.462  68.639  1.00  0.00    -0.130 C  
ENDROOT
BRANCH   2   5
HETATM    5  C   UNL     1      -9.627   7.897  67.741  1.00  0.00    -0.174 A  
HETATM    6  C   UNL     1     -10.370   9.007  68.269  1.00  0.00    -0.252 A  
HETATM    7  C   UNL     1      -9.869  10.312  68.422  1.00  0.00    -0.168 A  
HETATM    8  C   UNL     1      -8.532  10.444  68.066  1.00  0.00    -0.119 A  
HETATM    9  C   UNL     1      -8.442   8.180  67.031  1.00  0.00    -0.120 A  
HETATM   10  C   UNL     1      -7.872   9.439  67.317  1.00  0.00    -0.099 A  
BRANCH   7  11
HETATM   11  C   UNL     1     -10.725  11.442  68.951  1.00  0.00    -0.248 A  
HETATM   12  C   UNL     1     -10.627  12.721  68.308  1.00  0.00    -0.251 A  
HETATM   13  C   UNL     1     -11.290  13.899  68.736  1.00  0.00    -0.310 A  
HETATM   14  C   UNL     1     -11.560  11.393  70.094  1.00  0.00    -0.280 A  
HETATM   15  C   UNL     1     -12.187  13.752  69.796  1.00  0.00    -0.368 A  
HETATM   16  C   UNL     1     -12.324  12.523  70.456  1.00  0.00    -0.345 A  
BRANCH  13  17
HETATM   17  C   UNL     1     -10.982  15.240  68.149  1.00  0.00    -0.292 A  
HETATM   18  C   UNL     1     -10.639  15.416  66.794  1.00  0.00    -0.309 A  
HETATM   19  C   UNL     1     -10.177  17.781  67.118  1.00  0.00    -0.353 A  
HETATM   20  C   UNL     1     -10.958  16.401  68.955  1.00  0.00    -0.332 A  
HETATM   21  C   UNL     1     -10.243  16.664  66.280  1.00  0.00    -0.344 A  
HETATM   22  O   UNL     1     -10.167  20.161  67.081  1.00  0.00    -0.426 OA 
HETATM   23  C   UNL     1     -10.568  17.651  68.450  1.00  0.00    -0.318 A  
HETATM   24  C   UNL     1      -9.728  19.113  66.639  1.00  0.00    -0.346 C  
HETATM   25  O   UNL     1      -8.749  19.055  65.711  1.00  0.00    -0.403 OA 
ENDBRANCH  13  17
BRANCH  14  26
HETATM   26  O   UNL     1     -11.807  10.332  70.941  1.00  0.00    -0.320 OA 
BRANCH  26  27
HETATM   27  C   UNL     1     -12.920  10.448  71.827  1.00  0.00    -0.475 C  
BRANCH  27  28
HETATM   28  C   UNL     1     -13.637   9.110  71.990  1.00  0.00    -0.459 C  
HETATM   29  O   UNL     1     -14.024   8.893  73.344  1.00  0.00    -1.236 OA 
HETATM   30  H   UNL     1     -14.470   8.060  73.446  1.00  0.00     0.000 HD 
ENDBRANCH  27  28
ENDBRANCH  26  27
ENDBRANCH  14  26
ENDBRANCH   7  11
BRANCH   9  31
HETATM   31  N   UNL     1      -7.836   7.302  66.141  1.00  0.00    -0.104 NA 
HETATM   32  C   UNL     1      -7.954   7.495  64.688  1.00  0.00    -0.133 C  
HETATM   33  C   UNL     1      -6.273   5.843  65.116  1.00  0.00    -0.037 C  
HETATM   34  C   UNL     1      -7.417   6.166  64.160  1.00  0.00    -0.081 C  
HETATM   35  C   UNL     1      -6.477   6.771  66.328  1.00  0.00    -0.047 C  
ENDBRANCH   9  31
ENDBRANCH   2   5
TORSDOF 7
ENDMDL
MODEL       11
REMARK 921   NORMALIZED FREE ENERGY PREDICTED BY IDOCK:   -6.94 KCAL/MOL
REMARK 922        TOTAL FREE ENERGY PREDICTED BY IDOCK:  -11.25 KCAL/MOL
REMARK 923 INTER-LIGAND FREE ENERGY PREDICTED BY IDOCK:   -9.53 KCAL/MOL
REMARK 924 INTRA-LIGAND FREE ENERGY PREDICTED BY IDOCK:   -1.73 KCAL/MOL
REMARK 927      BINDING AFFINITY PREDICTED BY RF-SCORE:    0.00 PKD
ROOT
HETATM    1  C   UNL     1     -10.222  13.933  64.902  1.00  0.00    -0.378 C  
HETATM    2  C   UNL     1     -11.520  14.354  65.628  1.00  0.00    -0.336 C  
HETATM    3  C   UNL     1     -12.006  15.712  65.023  1.00  0.00     0.249 C  
HETATM    4  C   UNL     1     -12.694  13.417  65.241  1.00  0.00    -0.481 C  
ENDROOT
BRANCH   2   5
HETATM    5  C   UNL     1     -11.241  14.521  67.154  1.00  0.00    -0.341 A  
HETATM    6  C   UNL     1     -11.701  13.451  67.994  1.00  0.00    -0.391 A  
HETATM    7  C   UNL     1     -11.225  13.182  69.290  1.00  0.00    -0.266 A  
HETATM    8  C   UNL     1     -10.195  14.023  69.693  1.00  0.00     0.425 A  
HETATM    9  C   UNL     1     -10.510  15.563  67.761  1.00  0.00    -0.273 A  
HETATM   10  C   UNL     1      -9.910  15.221  68.992  1.00  0.00    -0.230 A  
BRANCH   7  11
HETATM   11  C   UNL     1     -11.787  12.058  70.133  1.00  0.00    -0.383 A  
HETATM   12  C   UNL     1     -11.250  10.741  69.945  1.00  0.00    -0.371 A  
HETATM   13  C   UNL     1     -11.726   9.569  70.587  1.00  0.00    -0.330 A  
HETATM   14  C   UNL     1     -12.871  12.154  71.038  1.00  0.00    -0.166 A  
HETATM   15  C   UNL     1     -12.717   9.755  71.552  1.00  0.00    -0.504 A  
HETATM   16  C   UNL     1     -13.272  11.021  71.778  1.00  0.00    -0.505 A  
BRANCH  13  17
HETATM   17  C   UNL     1     -11.262   8.203  70.190  1.00  0.00    -0.134 A  
HETATM   18  C   UNL     1     -11.555   7.052  70.948  1.00  0.00    -0.370 A  
HETATM   19  C   UNL     1     -10.169   5.647  69.529  1.00  0.00    -0.320 A  
HETATM   20  C   UNL     1     -10.443   8.012  69.055  1.00  0.00    -0.212 A  
HETATM   21  C   UNL     1     -11.021   5.791  70.628  1.00  0.00    -0.319 A  
HETATM   22  O   UNL     1      -9.309   4.023  68.017  1.00  0.00    -0.145 OA 
HETATM   23  C   UNL     1      -9.908   6.756  68.725  1.00  0.00    -0.143 A  
HETATM   24  C   UNL     1      -9.545   4.349  69.167  1.00  0.00    -0.181 C  
HETATM   25  O   UNL     1      -9.211   3.590  70.234  1.00  0.00    -0.122 OA 
ENDBRANCH  13  17
BRANCH  14  26
HETATM   26  O   UNL     1     -13.619  13.263  71.379  1.00  0.00    -0.180 OA 
BRANCH  26  27
HETATM   27  C   UNL     1     -13.035  14.191  72.292  1.00  0.00    -0.382 C  
BRANCH  27  28
HETATM   28  C   UNL     1     -12.936  15.584  71.676  1.00  0.00    -0.464 C  
HETATM   29  O   UNL     1     -13.540  15.622  70.385  1.00  0.00    -0.805 OA 
HETATM   30  H   UNL     1     -13.478  16.489  70.002  1.00  0.00     0.000 HD 
ENDBRANCH  27  28
ENDBRANCH  26  27
ENDBRANCH  14  26
ENDBRANCH   7  11
BRANCH   9  31
HETATM   31  N   UNL     1     -10.341  16.825  67.206  1.00  0.00    -0.300 NA 
HETATM   32  C   UNL     1     -10.735  18.035  67.943  1.00  0.00    -0.313 C  
HETATM   33  C   UNL     1      -9.434  18.679  66.038  1.00  0.00    -0.051 C  
HETATM   34  C   UNL     1     -10.655  19.098  66.849  1.00  0.00    -0.540 C  
HETATM   35  C   UNL     1      -9.138  17.228  66.463  1.00  0.00    -0.265 C  
ENDBRANCH   9  31
ENDBRANCH   2   5
TORSDOF 7
ENDMDL
MODEL       12
REMARK 921   NORMALIZED FREE ENERGY PREDICTED BY IDOCK:   -6.90 KCAL/MOL
REMARK 922        TOTAL FREE ENERGY PREDICTED BY IDOCK:  -11.19 KCAL/MOL
REMARK 923 INTER-LIGAND FREE ENERGY PREDICTED BY IDOCK:   -9.61 KCAL/MOL
REMARK 924 INTRA-LIGAND FREE ENERGY PREDICTED BY IDOCK:   -1.58 KCAL/MOL
REMARK 927      BINDING AFFINITY PREDICTED BY RF-SCORE:    0.00 PKD
ROOT
HETATM    1  C   UNL     1     -10.811  15.701  71.273  1.00  0.00    -0.042 C  
HETATM    2  C   UNL     1     -11.778  15.007  70.287  1.00  0.00    -0.338 C  
HETATM    3  C   UNL     1     -12.306  13.695  70.954  1.00  0.00    -0.450 C  
HETATM    4  C   UNL     1     -13.092  15.819  70.145  1.00  0.00     0.401 C  
ENDROOT
BRANCH   2   5
HETATM    5  C   UNL     1     -11.028  14.667  68.963  1.00  0.00    -0.269 A  
HETATM    6  C   UNL     1     -10.872  13.269  68.673  1.00  0.00    -0.285 A  
HETATM    7  C   UNL     1     -10.614  12.734  67.399  1.00  0.00    -0.241 A  
HETATM    8  C   UNL     1     -10.576  13.687  66.389  1.00  0.00    -0.284 A  
HETATM    9  C   UNL     1     -10.580  15.590  67.996  1.00  0.00    -0.270 A  
HETATM   10  C   UNL     1     -10.475  15.068  66.688  1.00  0.00    -0.284 A  
BRANCH   7  11
HETATM   11  C   UNL     1     -10.423  11.249  67.177  1.00  0.00    -0.259 A  
HETATM   12  C   UNL     1     -10.627  10.369  68.291  1.00  0.00    -0.245 A  
HETATM   13  C   UNL     1     -10.402   8.969  68.274  1.00  0.00    -0.252 A  
HETATM   14  C   UNL     1      -9.965  10.635  65.987  1.00  0.00    -0.239 A  
HETATM   15  C   UNL     1     -10.065   8.414  67.037  1.00  0.00    -0.354 A  
HETATM   16  C   UNL     1      -9.858   9.229  65.916  1.00  0.00    -0.335 A  
BRANCH  13  17
HETATM   17  C   UNL     1     -10.432   8.144  69.521  1.00  0.00    -0.227 A  
HETATM   18  C   UNL     1     -10.719   6.765  69.514  1.00  0.00    -0.294 A  
HETATM   19  C   UNL     1     -10.708   6.650  71.942  1.00  0.00    -0.251 A  
HETATM   20  C   UNL     1     -10.236   8.734  70.790  1.00  0.00    -0.262 A  
HETATM   21  C   UNL     1     -10.856   6.024  70.701  1.00  0.00    -0.364 A  
HETATM   22  O   UNL     1     -10.248   6.199  74.233  1.00  0.00    -0.277 OA 
HETATM   23  C   UNL     1     -10.366   8.002  71.981  1.00  0.00    -0.298 A  
HETATM   24  C   UNL     1     -10.880   5.927  73.227  1.00  0.00    -0.261 C  
HETATM   25  O   UNL     1     -11.841   4.979  73.193  1.00  0.00    -0.279 OA 
ENDBRANCH  13  17
BRANCH  14  26
HETATM   26  O   UNL     1      -9.632  11.220  64.782  1.00  0.00    -0.235 OA 
BRANCH  26  27
HETATM   27  C   UNL     1     -10.449  10.908  63.654  1.00  0.00    -0.232 C  
BRANCH  27  28
HETATM   28  C   UNL     1     -11.551  11.947  63.465  1.00  0.00    -0.441 C  
HETATM   29  O   UNL     1     -12.637  11.416  62.711  1.00  0.00    -0.952 OA 
HETATM   30  H   UNL     1     -13.323  12.063  62.593  1.00  0.00     0.000 HD 
ENDBRANCH  27  28
ENDBRANCH  26  27
ENDBRANCH  14  26
ENDBRANCH   7  11
BRANCH   9  31
HETATM   31  N   UNL     1     -10.290  16.923  68.262  1.00  0.00    -0.315 NA 
HETATM   32  C   UNL     1      -8.911  17.359  68.528  1.00  0.00    -0.276 C  
HETATM   33  C   UNL     1     -10.284  19.293  68.193  1.00  0.00    -0.515 C  
HETATM   34  C   UNL     1      -9.136  18.776  69.053  1.00  0.00    -0.157 C  
HETATM   35  C   UNL     1     -10.890  18.045  67.525  1.00  0.00    -0.234 C  
ENDBRANCH   9  31
ENDBRANCH   2   5
TORSDOF 7
ENDMDL
MODEL       13
REMARK 921   NORMALIZED FREE ENERGY PREDICTED BY IDOCK:   -6.89 KCAL/MOL
REMARK 922        TOTAL FREE ENERGY PREDICTED BY IDOCK:  -11.18 KCAL/MOL
REMARK 923 INTER-LIGAND FREE ENERGY PREDICTED BY IDOCK:   -9.55 KCAL/MOL
REMARK 924 INTRA-LIGAND FREE ENERGY PREDICTED BY IDOCK:   -1.62 KCAL/MOL
REMARK 927      BINDING AFFINITY PREDICTED BY RF-SCORE:    0.00 PKD
ROOT
HETATM    1  C   UNL     1      -6.819   7.716  64.943  1.00  0.00    -0.051 C  
HETATM    2  C   UNL     1      -7.412   6.292  64.833  1.00  0.00    -0.084 C  
HETATM    3  C   UNL     1      -7.912   6.078  63.367  1.00  0.00    -0.112 C  
HETATM    4  C   UNL     1      -6.292   5.223  64.925  1.00  0.00    -0.034 C  
ENDROOT
BRANCH   2   5
HETATM    5  C   UNL     1      -8.601   6.136  65.830  1.00  0.00    -0.153 A  
HETATM    6  C   UNL     1      -8.986   7.326  66.536  1.00  0.00    -0.175 A  
HETATM    7  C   UNL     1     -10.235   7.531  67.148  1.00  0.00    -0.350 A  
HETATM    8  C   UNL     1     -11.128   6.482  66.965  1.00  0.00    -0.411 A  
HETATM    9  C   UNL     1      -9.378   4.976  66.028  1.00  0.00    -0.157 A  
HETATM   10  C   UNL     1     -10.687   5.218  66.499  1.00  0.00    -0.290 A  
BRANCH   7  11
HETATM   11  C   UNL     1     -10.556   8.799  67.910  1.00  0.00    -0.236 A  
HETATM   12  C   UNL     1     -10.725  10.011  67.161  1.00  0.00    -0.279 A  
HETATM   13  C   UNL     1     -10.938  11.293  67.728  1.00  0.00    -0.305 A  
HETATM   14  C   UNL     1     -10.615   8.935  69.318  1.00  0.00    -0.207 A  
HETATM   15  C   UNL     1     -11.103  11.336  69.114  1.00  0.00    -0.312 A  
HETATM   16  C   UNL     1     -10.952  10.180  69.891  1.00  0.00    -0.344 A  
BRANCH  13  17
HETATM   17  C   UNL     1     -10.898  12.541  66.904  1.00  0.00    -0.280 A  
HETATM   18  C   UNL     1      -9.789  13.411  66.896  1.00  0.00    -0.256 A  
HETATM   19  C   UNL     1     -10.946  15.029  65.500  1.00  0.00    -0.364 A  
HETATM   20  C   UNL     1     -12.012  12.944  66.135  1.00  0.00    -0.491 A  
HETATM   21  C   UNL     1      -9.806  14.636  66.207  1.00  0.00    -0.320 A  
HETATM   22  O   UNL     1     -11.671  16.481  63.758  1.00  0.00    -1.086 OA 
HETATM   23  C   UNL     1     -12.037  14.163  65.440  1.00  0.00    -0.415 A  
HETATM   24  C   UNL     1     -11.035  16.329  64.786  1.00  0.00    -0.272 C  
HETATM   25  O   UNL     1     -10.394  17.339  65.414  1.00  0.00    -0.626 OA 
ENDBRANCH  13  17
BRANCH  14  26
HETATM   26  O   UNL     1     -10.437   7.971  70.290  1.00  0.00    -0.213 OA 
BRANCH  26  27
HETATM   27  C   UNL     1     -11.555   7.140  70.600  1.00  0.00    -0.314 C  
BRANCH  27  28
HETATM   28  C   UNL     1     -11.313   6.342  71.878  1.00  0.00    -0.299 C  
HETATM   29  O   UNL     1     -12.538   6.039  72.539  1.00  0.00    -0.540 OA 
HETATM   30  H   UNL     1     -12.388   5.543  73.335  1.00  0.00     0.000 HD 
ENDBRANCH  27  28
ENDBRANCH  26  27
ENDBRANCH  14  26
ENDBRANCH   7  11
BRANCH   9  31
HETATM   31  N   UNL     1      -8.940   3.686  65.757  1.00  0.00    -0.131 NA 
HETATM   32  C   UNL     1      -8.794   2.695  66.834  1.00  0.00    -0.133 C  
HETATM   33  C   UNL     1      -8.622   1.576  64.724  1.00  0.00    -0.095 C  
HETATM   34  C   UNL     1      -8.020   1.586  66.125  1.00  0.00    -0.073 C  
HETATM   35  C   UNL     1      -9.397   2.901  64.601  1.00  0.00    -0.147 C  
ENDBRANCH   9  31
ENDBRANCH   2   5
TORSDOF 7
ENDMDL
MODEL       14
REMARK 921   NORMALIZED FREE ENERGY PREDICTED BY IDOCK:   -6.79 KCAL/MOL
REMARK 922        TOTAL FREE ENERGY PREDICTED BY IDOCK:  -11.04 KCAL/MOL
REMARK 923 INTER-LIGAND FREE ENERGY PREDICTED BY IDOCK:   -9.48 KCAL/MOL
REMARK 924 INTRA-LIGAND FREE ENERGY PREDICTED BY IDOCK:   -1.56 KCAL/MOL
REMARK 927      BINDING AFFINITY PREDICTED BY RF-SCORE:    0.00 PKD
ROOT
HETATM    1  C   UNL     1     -13.394   9.726  70.111  1.00  0.00     0.675 C  
HETATM    2  C   UNL     1     -12.015  10.404  70.273  1.00  0.00    -0.387 C  
HETATM    3  C   UNL     1     -12.238  11.857  70.807  1.00  0.00    -0.401 C  
HETATM    4  C   UNL     1     -11.227   9.771  71.451  1.00  0.00    -0.368 C  
ENDROOT
BRANCH   2   5
HETATM    5  C   UNL     1     -11.283  10.448  68.897  1.00  0.00    -0.290 A  
HETATM    6  C   UNL     1     -11.402  11.677  68.164  1.00  0.00    -0.358 A  
HETATM    7  C   UNL     1     -10.532  12.093  67.141  1.00  0.00    -0.241 A  
HETATM    8  C   UNL     1      -9.472  11.223  66.919  1.00  0.00    -0.193 A  
HETATM    9  C   UNL     1     -10.453   9.443  68.359  1.00  0.00    -0.218 A  
HETATM   10  C   UNL     1      -9.481   9.908  67.446  1.00  0.00    -0.173 A  
BRANCH   7  11
HETATM   11  C   UNL     1     -10.744  13.387  66.385  1.00  0.00    -0.289 A  
HETATM   12  C   UNL     1      -9.977  14.533  66.781  1.00  0.00    -0.267 A  
HETATM   13  C   UNL     1     -10.122  15.835  66.238  1.00  0.00    -0.320 A  
HETATM   14  C   UNL     1     -11.705  13.614  65.370  1.00  0.00    -0.332 A  
HETATM   15  C   UNL     1     -11.003  15.960  65.162  1.00  0.00    -0.389 A  
HETATM   16  C   UNL     1     -11.773  14.871  64.733  1.00  0.00    -0.402 A  
BRANCH  13  17
HETATM   17  C   UNL     1      -9.442  17.025  66.838  1.00  0.00    -0.266 A  
HETATM   18  C   UNL     1      -9.753  18.347  66.464  1.00  0.00    -0.353 A  
HETATM   19  C   UNL     1      -7.965  19.259  67.834  1.00  0.00    -0.327 A  
HETATM   20  C   UNL     1      -8.395  16.872  67.774  1.00  0.00    -0.198 A  
HETATM   21  C   UNL     1      -9.031  19.451  66.951  1.00  0.00    -0.355 A  
HETATM   22  O   UNL     1      -6.647  20.389  69.463  1.00  0.00    -0.240 OA 
HETATM   23  C   UNL     1      -7.671  17.968  68.269  1.00  0.00    -0.285 A  
HETATM   24  C   UNL     1      -7.143  20.384  68.350  1.00  0.00    -0.147 C  
HETATM   25  O   UNL     1      -6.950  21.373  67.450  1.00  0.00    -0.572 OA 
ENDBRANCH  13  17
BRANCH  14  26
HETATM   26  O   UNL     1     -12.616  12.730  64.827  1.00  0.00    -0.556 OA 
BRANCH  26  27
HETATM   27  C   UNL     1     -12.309  12.178  63.547  1.00  0.00    -0.574 C  
BRANCH  27  28
HETATM   28  C   UNL     1     -11.012  11.376  63.588  1.00  0.00    -0.363 C  
HETATM   29  O   UNL     1      -9.901  12.168  63.174  1.00  0.00    -0.499 OA 
HETATM   30  H   UNL     1      -9.093  11.668  63.199  1.00  0.00     0.000 HD 
ENDBRANCH  27  28
ENDBRANCH  26  27
ENDBRANCH  14  26
ENDBRANCH   7  11
BRANCH   9  31
HETATM   31  N   UNL     1     -10.530   8.099  68.703  1.00  0.00    -0.195 NA 
HETATM   32  C   UNL     1     -10.962   7.091  67.723  1.00  0.00    -0.164 C  
HETATM   33  C   UNL     1     -10.049   5.972  69.634  1.00  0.00    -0.244 C  
HETATM   34  C   UNL     1     -11.181   5.871  68.617  1.00  0.00    -0.037 C  
HETATM   35  C   UNL     1      -9.511   7.409  69.508  1.00  0.00    -0.155 C  
ENDBRANCH   9  31
ENDBRANCH   2   5
TORSDOF 7
ENDMDL
MODEL       15
REMARK 921   NORMALIZED FREE ENERGY PREDICTED BY IDOCK:   -6.75 KCAL/MOL
REMARK 922        TOTAL FREE ENERGY PREDICTED BY IDOCK:  -10.98 KCAL/MOL
REMARK 923 INTER-LIGAND FREE ENERGY PREDICTED BY IDOCK:   -9.49 KCAL/MOL
REMARK 924 INTRA-LIGAND FREE ENERGY PREDICTED BY IDOCK:   -1.49 KCAL/MOL
REMARK 927      BINDING AFFINITY PREDICTED BY RF-SCORE:    0.00 PKD
ROOT
HETATM    1  C   UNL     1      -6.668   5.624  69.743  1.00  0.00    -0.052 C  
HETATM    2  C   UNL     1      -6.928   5.988  68.264  1.00  0.00    -0.076 C  
HETATM    3  C   UNL     1      -6.169   7.317  67.941  1.00  0.00    -0.046 C  
HETATM    4  C   UNL     1      -6.205   4.994  67.318  1.00  0.00    -0.035 C  
ENDROOT
BRANCH   2   5
HETATM    5  C   UNL     1      -8.459   6.179  68.028  1.00  0.00    -0.116 A  
HETATM    6  C   UNL     1      -9.015   7.416  68.498  1.00  0.00    -0.128 A  
HETATM    7  C   UNL     1     -10.226   7.976  68.054  1.00  0.00    -0.260 A  
HETATM    8  C   UNL     1     -10.842   7.247  67.044  1.00  0.00    -0.350 A  
HETATM    9  C   UNL     1      -9.311   5.302  67.326  1.00  0.00    -0.119 A  
HETATM   10  C   UNL     1     -10.446   5.917  66.755  1.00  0.00    -0.344 A  
BRANCH   7  11
HETATM   11  C   UNL     1     -10.768   9.268  68.625  1.00  0.00    -0.180 A  
HETATM   12  C   UNL     1     -10.840  10.410  67.760  1.00  0.00    -0.351 A  
HETATM   13  C   UNL     1     -11.237  11.711  68.161  1.00  0.00    -0.325 A  
HETATM   14  C   UNL     1     -11.133   9.497  69.973  1.00  0.00    -0.237 A  
HETATM   15  C   UNL     1     -11.695  11.838  69.475  1.00  0.00    -0.408 A  
HETATM   16  C   UNL     1     -11.651  10.752  70.359  1.00  0.00    -0.431 A  
BRANCH  13  17
HETATM   17  C   UNL     1     -11.090  12.899  67.264  1.00  0.00    -0.309 A  
HETATM   18  C   UNL     1      -9.879  13.606  67.133  1.00  0.00    -0.242 A  
HETATM   19  C   UNL     1     -10.907  15.296  65.720  1.00  0.00    -0.363 A  
HETATM   20  C   UNL     1     -12.193  13.411  66.545  1.00  0.00    -0.414 A  
HETATM   21  C   UNL     1      -9.782  14.787  66.374  1.00  0.00    -0.311 A  
HETATM   22  O   UNL     1     -11.554  16.744  63.945  1.00  0.00    -1.122 OA 
HETATM   23  C   UNL     1     -12.105  14.586  65.782  1.00  0.00    -0.285 A  
HETATM   24  C   UNL     1     -10.872  16.558  64.937  1.00  0.00    -0.204 C  
HETATM   25  O   UNL     1     -10.059  17.501  65.462  1.00  0.00    -0.576 OA 
ENDBRANCH  13  17
BRANCH  14  26
HETATM   26  O   UNL     1     -11.114   8.618  71.037  1.00  0.00    -0.244 OA 
BRANCH  26  27
HETATM   27  C   UNL     1     -11.835   8.994  72.210  1.00  0.00    -0.236 C  
BRANCH  27  28
HETATM   28  C   UNL     1     -13.048   8.094  72.425  1.00  0.00    -0.108 C  
HETATM   29  O   UNL     1     -14.200   8.856  72.777  1.00  0.00    -0.924 OA 
HETATM   30  H   UNL     1     -14.956   8.296  72.911  1.00  0.00     0.000 HD 
ENDBRANCH  27  28
ENDBRANCH  26  27
ENDBRANCH  14  26
ENDBRANCH   7  11
BRANCH   9  31
HETATM   31  N   UNL     1      -9.069   3.945  67.157  1.00  0.00    -0.143 NA 
HETATM   32  C   UNL     1      -9.378   2.982  68.224  1.00  0.00    -0.195 C  
HETATM   33  C   UNL     1      -8.909   1.777  66.208  1.00  0.00    -0.118 C  
HETATM   34  C   UNL     1      -8.675   1.725  67.714  1.00  0.00    -0.123 C  
HETATM   35  C   UNL     1      -9.369   3.217  65.914  1.00  0.00    -0.119 C  
ENDBRANCH   9  31
ENDBRANCH   2   5
TORSDOF 7
ENDMDL
MODEL       16
REMARK 921   NORMALIZED FREE ENERGY PREDICTED BY IDOCK:   -6.70 KCAL/MOL
REMARK 922        TOTAL FREE ENERGY PREDICTED BY IDOCK:  -10.91 KCAL/MOL
REMARK 923 INTER-LIGAND FREE ENERGY PREDICTED BY IDOCK:   -9.74 KCAL/MOL
REMARK 924 INTRA-LIGAND FREE ENERGY PREDICTED BY IDOCK:   -1.17 KCAL/MOL
REMARK 927      BINDING AFFINITY PREDICTED BY RF-SCORE:    0.00 PKD
ROOT
HETATM    1  C   UNL     1     -12.323  13.786  70.966  1.00  0.00    -0.452 C  
HETATM    2  C   UNL     1     -11.512  14.355  69.780  1.00  0.00    -0.328 C  
HETATM    3  C   UNL     1     -12.392  15.419  69.044  1.00  0.00    -0.047 C  
HETATM    4  C   UNL     1     -10.341  15.237  70.288  1.00  0.00    -0.162 C  
ENDROOT
BRANCH   2   5
HETATM    5  C   UNL     1     -11.135  13.204  68.797  1.00  0.00    -0.309 A  
HETATM    6  C   UNL     1     -11.008  11.899  69.382  1.00  0.00    -0.156 A  
HETATM    7  C   UNL     1     -11.083  10.687  68.672  1.00  0.00    -0.315 A  
HETATM    8  C   UNL     1     -11.357  10.847  67.319  1.00  0.00    -0.230 A  
HETATM    9  C   UNL     1     -11.002  13.311  67.397  1.00  0.00    -0.271 A  
HETATM   10  C   UNL     1     -11.233  12.111  66.691  1.00  0.00    -0.375 A  
BRANCH   7  11
HETATM   11  C   UNL     1     -10.900   9.347  69.352  1.00  0.00    -0.208 A  
HETATM   12  C   UNL     1     -10.437   8.246  68.558  1.00  0.00    -0.199 A  
HETATM   13  C   UNL     1     -10.301   6.912  69.019  1.00  0.00    -0.203 A  
HETATM   14  C   UNL     1     -11.233   9.040  70.693  1.00  0.00    -0.270 A  
HETATM   15  C   UNL     1     -10.534   6.703  70.380  1.00  0.00    -0.249 A  
HETATM   16  C   UNL     1     -10.983   7.747  71.201  1.00  0.00    -0.259 A  
BRANCH  13  17
HETATM   17  C   UNL     1     -10.016   5.775  68.089  1.00  0.00    -0.181 A  
HETATM   18  C   UNL     1      -9.142   4.722  68.423  1.00  0.00    -0.148 A  
HETATM   19  C   UNL     1      -9.316   3.746  66.204  1.00  0.00    -0.183 A  
HETATM   20  C   UNL     1     -10.568   5.741  66.789  1.00  0.00    -0.373 A  
HETATM   21  C   UNL     1      -8.793   3.720  67.500  1.00  0.00    -0.140 A  
HETATM   22  O   UNL     1      -9.726   2.358  64.314  1.00  0.00    -0.142 OA 
HETATM   23  C   UNL     1     -10.229   4.743  65.862  1.00  0.00    -0.286 A  
HETATM   24  C   UNL     1      -8.953   2.737  65.176  1.00  0.00    -0.135 C  
HETATM   25  O   UNL     1      -7.670   2.322  65.251  1.00  0.00    -0.074 OA 
ENDBRANCH  13  17
BRANCH  14  26
HETATM   26  O   UNL     1     -11.749   9.867  71.669  1.00  0.00    -0.372 OA 
BRANCH  26  27
HETATM   27  C   UNL     1     -13.130  10.215  71.570  1.00  0.00    -0.429 C  
BRANCH  27  28
HETATM   28  C   UNL     1     -14.024   9.060  72.013  1.00  0.00    -0.410 C  
HETATM   29  O   UNL     1     -14.111   8.989  73.434  1.00  0.00    -1.231 OA 
HETATM   30  H   UNL     1     -14.667   8.270  73.710  1.00  0.00     0.000 HD 
ENDBRANCH  27  28
ENDBRANCH  26  27
ENDBRANCH  14  26
ENDBRANCH   7  11
BRANCH   9  31
HETATM   31  N   UNL     1     -10.704  14.492  66.728  1.00  0.00    -0.287 NA 
HETATM   32  C   UNL     1      -9.315  14.954  66.591  1.00  0.00    -0.268 C  
HETATM   33  C   UNL     1     -10.711  16.258  65.146  1.00  0.00    -0.350 C  
HETATM   34  C   UNL     1      -9.517  16.382  66.087  1.00  0.00    -0.363 C  
HETATM   35  C   UNL     1     -11.346  14.892  65.467  1.00  0.00    -0.339 C  
ENDBRANCH   9  31
ENDBRANCH   2   5
TORSDOF 7
ENDMDL
MODEL       17
REMARK 921   NORMALIZED FREE ENERGY PREDICTED BY IDOCK:   -6.65 KCAL/MOL
REMARK 922        TOTAL FREE ENERGY PREDICTED BY IDOCK:  -10.84 KCAL/MOL
REMARK 923 INTER-LIGAND FREE ENERGY PREDICTED BY IDOCK:   -9.00 KCAL/MOL
REMARK 924 INTRA-LIGAND FREE ENERGY PREDICTED BY IDOCK:   -1.84 KCAL/MOL
REMARK 927      BINDING AFFINITY PREDICTED BY RF-SCORE:    0.00 PKD
ROOT
HETATM    1  C   UNL     1      -8.384   5.959  72.364  1.00  0.00    -0.117 C  
HETATM    2  C   UNL     1      -7.994   7.186  71.508  1.00  0.00    -0.102 C  
HETATM    3  C   UNL     1      -7.722   8.391  72.467  1.00  0.00    -0.145 C  
HETATM    4  C   UNL     1      -6.593   6.989  70.872  1.00  0.00    -0.048 C  
ENDROOT
BRANCH   2   5
HETATM    5  C   UNL     1      -9.155   7.537  70.527  1.00  0.00    -0.156 A  
HETATM    6  C   UNL     1      -9.961   8.668  70.891  1.00  0.00    -0.257 A  
HETATM    7  C   UNL     1     -10.767   9.402  70.003  1.00  0.00    -0.270 A  
HETATM    8  C   UNL     1     -10.680   8.975  68.684  1.00  0.00    -0.137 A  
HETATM    9  C   UNL     1      -9.422   6.913  69.291  1.00  0.00    -0.147 A  
HETATM   10  C   UNL     1     -10.099   7.725  68.356  1.00  0.00    -0.215 A  
BRANCH   7  11
HETATM   11  C   UNL     1     -11.622  10.562  70.468  1.00  0.00    -0.441 A  
HETATM   12  C   UNL     1     -11.419  11.840  69.850  1.00  0.00    -0.285 A  
HETATM   13  C   UNL     1     -12.070  13.040  70.231  1.00  0.00    -0.388 A  
HETATM   14  C   UNL     1     -12.553  10.537  71.534  1.00  0.00    -0.424 A  
HETATM   15  C   UNL     1     -13.060  12.921  71.209  1.00  0.00    -0.253 A  
HETATM   16  C   UNL     1     -13.301  11.694  71.841  1.00  0.00    -0.403 A  
BRANCH  13  17
HETATM   17  C   UNL     1     -11.661  14.373  69.688  1.00  0.00    -0.343 A  
HETATM   18  C   UNL     1     -11.551  14.629  68.307  1.00  0.00    -0.353 A  
HETATM   19  C   UNL     1     -10.656  16.856  68.693  1.00  0.00    -0.360 A  
HETATM   20  C   UNL     1     -11.298  15.432  70.550  1.00  0.00    -0.351 A  
HETATM   21  C   UNL     1     -11.057  15.849  67.811  1.00  0.00    -0.288 A  
HETATM   22  O   UNL     1     -10.262  19.200  68.817  1.00  0.00    -0.392 OA 
HETATM   23  C   UNL     1     -10.808  16.654  70.064  1.00  0.00    -0.173 A  
HETATM   24  C   UNL     1     -10.091  18.148  68.226  1.00  0.00    -0.386 C  
HETATM   25  O   UNL     1      -9.323  18.038  67.121  1.00  0.00    -0.251 OA 
ENDBRANCH  13  17
BRANCH  14  26
HETATM   26  O   UNL     1     -12.914   9.481  72.346  1.00  0.00    -0.386 OA 
BRANCH  26  27
HETATM   27  C   UNL     1     -13.980   8.645  71.897  1.00  0.00    -0.442 C  
BRANCH  27  28
HETATM   28  C   UNL     1     -13.497   7.218  71.649  1.00  0.00    -0.354 C  
HETATM   29  O   UNL     1     -12.422   6.878  72.521  1.00  0.00    -0.493 OA 
HETATM   30  H   UNL     1     -12.121   5.990  72.367  1.00  0.00     0.000 HD 
ENDBRANCH  27  28
ENDBRANCH  26  27
ENDBRANCH  14  26
ENDBRANCH   7  11
BRANCH   9  31
HETATM   31  N   UNL     1      -9.033   5.618  68.969  1.00  0.00    -0.112 NA 
HETATM   32  C   UNL     1      -9.823   4.459  69.411  1.00  0.00    -0.168 C  
HETATM   33  C   UNL     1      -8.217   3.729  67.791  1.00  0.00    -0.091 C  
HETATM   34  C   UNL     1      -8.870   3.306  69.102  1.00  0.00    -0.160 C  
HETATM   35  C   UNL     1      -8.529   5.230  67.643  1.00  0.00    -0.105 C  
ENDBRANCH   9  31
ENDBRANCH   2   5
TORSDOF 7
ENDMDL
MODEL       18
REMARK 921   NORMALIZED FREE ENERGY PREDICTED BY IDOCK:   -6.59 KCAL/MOL
REMARK 922        TOTAL FREE ENERGY PREDICTED BY IDOCK:  -10.76 KCAL/MOL
REMARK 923 INTER-LIGAND FREE ENERGY PREDICTED BY IDOCK:   -9.16 KCAL/MOL
REMARK 924 INTRA-LIGAND FREE ENERGY PREDICTED BY IDOCK:   -1.60 KCAL/MOL
REMARK 927      BINDING AFFINITY PREDICTED BY RF-SCORE:    0.00 PKD
ROOT
HETATM    1  C   UNL     1      -6.400   8.864  69.177  1.00  0.00    -0.043 C  
HETATM    2  C   UNL     1      -7.142   7.516  69.328  1.00  0.00    -0.077 C  
HETATM    3  C   UNL     1      -6.300   6.407  68.616  1.00  0.00    -0.038 C  
HETATM    4  C   UNL     1      -7.097   7.027  70.800  1.00  0.00    -0.067 C  
ENDROOT
BRANCH   2   5
HETATM    5  C   UNL     1      -8.555   7.614  68.675  1.00  0.00    -0.129 A  
HETATM    6  C   UNL     1      -8.975   8.932  68.287  1.00  0.00    -0.137 A  
HETATM    7  C   UNL     1      -9.980   9.213  67.346  1.00  0.00    -0.262 A  
HETATM    8  C   UNL     1     -10.521   8.080  66.750  1.00  0.00    -0.319 A  
HETATM    9  C   UNL     1      -9.402   6.535  68.352  1.00  0.00    -0.122 A  
HETATM   10  C   UNL     1     -10.303   6.790  67.296  1.00  0.00    -0.311 A  
BRANCH   7  11
HETATM   11  C   UNL     1     -10.396  10.630  67.016  1.00  0.00    -0.280 A  
HETATM   12  C   UNL     1     -10.691  11.517  68.104  1.00  0.00    -0.242 A  
HETATM   13  C   UNL     1     -11.178  12.841  67.964  1.00  0.00    -0.310 A  
HETATM   14  C   UNL     1     -10.619  11.154  65.720  1.00  0.00    -0.227 A  
HETATM   15  C   UNL     1     -11.263  13.333  66.660  1.00  0.00    -0.332 A  
HETATM   16  C   UNL     1     -10.982  12.509  65.562  1.00  0.00    -0.322 A  
BRANCH  13  17
HETATM   17  C   UNL     1     -11.662  13.636  69.136  1.00  0.00    -0.376 A  
HETATM   18  C   UNL     1     -11.475  15.029  69.238  1.00  0.00    -0.326 A  
HETATM   19  C   UNL     1     -12.393  15.085  71.488  1.00  0.00    -0.398 A  
HETATM   20  C   UNL     1     -12.280  13.007  70.239  1.00  0.00    -0.368 A  
HETATM   21  C   UNL     1     -11.833  15.748  70.392  1.00  0.00    -0.391 A  
HETATM   22  O   UNL     1     -13.696  15.455  73.444  1.00  0.00    -0.348 OA 
HETATM   23  C   UNL     1     -12.645  13.716  71.394  1.00  0.00    -0.415 A  
HETATM   24  C   UNL     1     -12.754  15.786  72.746  1.00  0.00    -0.454 C  
HETATM   25  O   UNL     1     -11.906  16.785  73.074  1.00  0.00    -0.452 OA 
ENDBRANCH  13  17
BRANCH  14  26
HETATM   26  O   UNL     1     -10.480  10.530  64.497  1.00  0.00    -0.310 OA 
BRANCH  26  27
HETATM   27  C   UNL     1      -9.961  11.310  63.419  1.00  0.00    -0.395 C  
BRANCH  27  28
HETATM   28  C   UNL     1      -8.935  10.521  62.611  1.00  0.00    -0.274 C  
HETATM   29  O   UNL     1      -9.107   9.117  62.786  1.00  0.00    -0.429 OA 
HETATM   30  H   UNL     1      -8.468   8.626  62.283  1.00  0.00     0.000 HD 
ENDBRANCH  27  28
ENDBRANCH  26  27
ENDBRANCH  14  26
ENDBRANCH   7  11
BRANCH   9  31
HETATM   31  N   UNL     1      -9.359   5.294  68.975  1.00  0.00    -0.124 NA 
HETATM   32  C   UNL     1     -10.205   5.003  70.142  1.00  0.00    -0.259 C  
HETATM   33  C   UNL     1      -9.248   2.955  69.350  1.00  0.00    -0.212 C  
HETATM   34  C   UNL     1      -9.598   3.692  70.639  1.00  0.00    -0.254 C  
HETATM   35  C   UNL     1      -9.305   4.021  68.240  1.00  0.00    -0.160 C  
ENDBRANCH   9  31
ENDBRANCH   2   5
TORSDOF 7
ENDMDL
MODEL       19
REMARK 921   NORMALIZED FREE ENERGY PREDICTED BY IDOCK:   -6.58 KCAL/MOL
REMARK 922        TOTAL FREE ENERGY PREDICTED BY IDOCK:  -10.74 KCAL/MOL
REMARK 923 INTER-LIGAND FREE ENERGY PREDICTED BY IDOCK:   -9.26 KCAL/MOL
REMARK 924 INTRA-LIGAND FREE ENERGY PREDICTED BY IDOCK:   -1.48 KCAL/MOL
REMARK 927      BINDING AFFINITY PREDICTED BY RF-SCORE:    0.00 PKD
ROOT
HETATM    1  C   UNL     1     -11.099  18.076  67.366  1.00  0.00     0.100 C  
HETATM    2  C   UNL     1      -9.618  18.464  67.581  1.00  0.00    -0.290 C  
HETATM    3  C   UNL     1      -9.114  19.213  66.303  1.00  0.00    -0.326 C  
HETATM    4  C   UNL     1      -9.493  19.581  68.650  1.00  0.00    -0.462 C  
ENDROOT
BRANCH   2   5
HETATM    5  C   UNL     1      -8.765  17.180  67.817  1.00  0.00    -0.220 A  
HETATM    6  C   UNL     1      -9.459  15.932  67.672  1.00  0.00    -0.219 A  
HETATM    7  C   UNL     1      -8.842  14.690  67.435  1.00  0.00    -0.205 A  
HETATM    8  C   UNL     1      -7.463  14.769  67.289  1.00  0.00    -0.173 A  
HETATM    9  C   UNL     1      -7.377  17.134  68.066  1.00  0.00    -0.189 A  
HETATM   10  C   UNL     1      -6.750  15.930  67.677  1.00  0.00    -0.195 A  
BRANCH   7  11
HETATM   11  C   UNL     1      -9.638  13.407  67.331  1.00  0.00    -0.223 A  
HETATM   12  C   UNL     1      -9.712  12.563  68.488  1.00  0.00    -0.133 A  
HETATM   13  C   UNL     1     -10.338  11.291  68.529  1.00  0.00    -0.217 A  
HETATM   14  C   UNL     1     -10.252  12.898  66.161  1.00  0.00    -0.278 A  
HETATM   15  C   UNL     1     -11.023  10.905  67.376  1.00  0.00    -0.353 A  
HETATM   16  C   UNL     1     -10.987  11.695  66.219  1.00  0.00    -0.338 A  
BRANCH  13  17
HETATM   17  C   UNL     1     -10.198  10.375  69.703  1.00  0.00    -0.245 A  
HETATM   18  C   UNL     1      -9.049   9.590  69.921  1.00  0.00    -0.237 A  
HETATM   19  C   UNL     1     -10.058   8.467  71.826  1.00  0.00    -0.351 A  
HETATM   20  C   UNL     1     -11.255  10.205  70.626  1.00  0.00    -0.418 A  
HETATM   21  C   UNL     1      -8.973   8.649  70.964  1.00  0.00    -0.242 A  
HETATM   22  O   UNL     1     -10.629   7.627  73.979  1.00  0.00    -0.085 OA 
HETATM   23  C   UNL     1     -11.187   9.272  71.672  1.00  0.00    -0.449 A  
HETATM   24  C   UNL     1     -10.050   7.462  72.920  1.00  0.00    -0.244 C  
HETATM   25  O   UNL     1      -9.390   6.326  72.608  1.00  0.00    -0.146 OA 
ENDBRANCH  13  17
BRANCH  14  26
HETATM   26  O   UNL     1     -10.298  13.450  64.897  1.00  0.00    -0.354 OA 
BRANCH  26  27
HETATM   27  C   UNL     1     -10.675  12.590  63.821  1.00  0.00    -0.445 C  
BRANCH  27  28
HETATM   28  C   UNL     1     -12.024  12.998  63.235  1.00  0.00    -0.421 C  
HETATM   29  O   UNL     1     -12.855  11.863  63.012  1.00  0.00    -0.798 OA 
HETATM   30  H   UNL     1     -13.695  12.116  62.647  1.00  0.00     0.000 HD 
ENDBRANCH  27  28
ENDBRANCH  26  27
ENDBRANCH  14  26
ENDBRANCH   7  11
BRANCH   9  31
HETATM   31  N   UNL     1      -6.646  18.181  68.613  1.00  0.00    -0.224 NA 
HETATM   32  C   UNL     1      -6.007  18.050  69.931  1.00  0.00    -0.204 C  
HETATM   33  C   UNL     1      -5.176  20.025  68.861  1.00  0.00    -0.219 C  
HETATM   34  C   UNL     1      -5.612  19.497  70.223  1.00  0.00    -0.269 C  
HETATM   35  C   UNL     1      -5.709  19.007  67.836  1.00  0.00    -0.194 C  
ENDBRANCH   9  31
ENDBRANCH   2   5
TORSDOF 7
ENDMDL
MODEL       20
REMARK 921   NORMALIZED FREE ENERGY PREDICTED BY IDOCK:   -6.51 KCAL/MOL
REMARK 922        TOTAL FREE ENERGY PREDICTED BY IDOCK:  -10.64 KCAL/MOL
REMARK 923 INTER-LIGAND FREE ENERGY PREDICTED BY IDOCK:   -9.81 KCAL/MOL
REMARK 924 INTRA-LIGAND FREE ENERGY PREDICTED BY IDOCK:   -0.83 KCAL/MOL
REMARK 927      BINDING AFFINITY PREDICTED BY RF-SCORE:    0.00 PKD
ROOT
HETATM    1  C   UNL     1     -11.007  16.604  70.637  1.00  0.00     0.133 C  
HETATM    2  C   UNL     1     -10.542  15.922  69.330  1.00  0.00    -0.252 C  
HETATM    3  C   UNL     1     -10.840  16.888  68.136  1.00  0.00    -0.351 C  
HETATM    4  C   UNL     1      -8.994  15.844  69.272  1.00  0.00    -0.251 C  
ENDROOT
BRANCH   2   5
HETATM    5  C   UNL     1     -11.311  14.579  69.132  1.00  0.00    -0.305 A  
HETATM    6  C   UNL     1     -11.191  13.974  67.835  1.00  0.00    -0.295 A  
HETATM    7  C   UNL     1     -11.435  12.619  67.552  1.00  0.00    -0.397 A  
HETATM    8  C   UNL     1     -11.758  11.862  68.672  1.00  0.00    -0.380 A  
HETATM    9  C   UNL     1     -12.023  13.871  70.122  1.00  0.00    -0.332 A  
HETATM   10  C   UNL     1     -12.124  12.481  69.893  1.00  0.00    -0.322 A  
BRANCH   7  11
HETATM   11  C   UNL     1     -11.325  12.060  66.150  1.00  0.00    -0.407 A  
HETATM   12  C   UNL     1     -10.429  10.962  65.930  1.00  0.00    -0.285 A  
HETATM   13  C   UNL     1     -10.144  10.385  64.666  1.00  0.00    -0.378 A  
HETATM   14  C   UNL     1     -11.956  12.578  64.993  1.00  0.00    -0.427 A  
HETATM   15  C   UNL     1     -10.889  10.867  63.587  1.00  0.00    -0.001 A  
HETATM   16  C   UNL     1     -11.780  11.935  63.749  1.00  0.00    -0.554 A  
BRANCH  13  17
HETATM   17  C   UNL     1      -9.048   9.385  64.478  1.00  0.00    -0.205 A  
HETATM   18  C   UNL     1      -8.320   9.272  63.277  1.00  0.00    -0.193 A  
HETATM   19  C   UNL     1      -7.120   7.315  64.076  1.00  0.00    -0.071 A  
HETATM   20  C   UNL     1      -8.731   8.452  65.491  1.00  0.00    -0.196 A  
HETATM   21  C   UNL     1      -7.370   8.255  63.073  1.00  0.00    -0.101 A  
HETATM   22  O   UNL     1      -5.492   5.744  64.817  1.00  0.00    -0.015 OA 
HETATM   23  C   UNL     1      -7.781   7.437  65.298  1.00  0.00    -0.113 A  
HETATM   24  C   UNL     1      -6.156   6.198  63.902  1.00  0.00    -0.025 C  
HETATM   25  O   UNL     1      -6.128   5.696  62.649  1.00  0.00    -0.018 OA 
ENDBRANCH  13  17
BRANCH  14  26
HETATM   26  O   UNL     1     -12.816  13.652  64.882  1.00  0.00    -0.688 OA 
BRANCH  26  27
HETATM   27  C   UNL     1     -12.373  14.769  64.111  1.00  0.00    -0.231 C  
BRANCH  27  28
HETATM   28  C   UNL     1     -11.231  15.503  64.808  1.00  0.00    -0.390 C  
HETATM   29  O   UNL     1     -11.212  16.883  64.453  1.00  0.00    -1.192 OA 
HETATM   30  H   UNL     1     -10.501  17.341  64.887  1.00  0.00     0.000 HD 
ENDBRANCH  27  28
ENDBRANCH  26  27
ENDBRANCH  14  26
ENDBRANCH   7  11
BRANCH   9  31
HETATM   31  N   UNL     1     -12.565  14.452  71.261  1.00  0.00    -0.329 NA 
HETATM   32  C   UNL     1     -14.008  14.718  71.363  1.00  0.00    -0.435 C  
HETATM   33  C   UNL     1     -13.015  15.002  73.524  1.00  0.00    -0.564 C  
HETATM   34  C   UNL     1     -14.068  15.609  72.602  1.00  0.00    -0.527 C  
HETATM   35  C   UNL     1     -12.168  14.080  72.627  1.00  0.00     0.283 C  
ENDBRANCH   9  31
ENDBRANCH   2   5
TORSDOF 7
ENDMDL
MODEL       21
REMARK 921   NORMALIZED FREE ENERGY PREDICTED BY IDOCK:   -6.47 KCAL/MOL
REMARK 922        TOTAL FREE ENERGY PREDICTED BY IDOCK:  -10.59 KCAL/MOL
REMARK 923 INTER-LIGAND FREE ENERGY PREDICTED BY IDOCK:   -9.12 KCAL/MOL
REMARK 924 INTRA-LIGAND FREE ENERGY PREDICTED BY IDOCK:   -1.47 KCAL/MOL
REMARK 927      BINDING AFFINITY PREDICTED BY RF-SCORE:    0.00 PKD
ROOT
HETATM    1  C   UNL     1      -6.970  17.157  68.606  1.00  0.00    -0.209 C  
HETATM    2  C   UNL     1      -7.775  16.114  67.799  1.00  0.00    -0.155 C  
HETATM    3  C   UNL     1      -7.715  16.507  66.286  1.00  0.00    -0.215 C  
HETATM    4  C   UNL     1      -7.040  14.747  67.781  1.00  0.00    -0.191 C  
ENDROOT
BRANCH   2   5
HETATM    5  C   UNL     1      -9.256  16.096  68.287  1.00  0.00    -0.197 A  
HETATM    6  C   UNL     1      -9.765  14.817  68.697  1.00  0.00    -0.225 A  
HETATM    7  C   UNL     1     -10.882  14.624  69.530  1.00  0.00    -0.238 A  
HETATM    8  C   UNL     1     -11.447  15.806  69.992  1.00  0.00    -0.359 A  
HETATM    9  C   UNL     1     -10.097  17.217  68.446  1.00  0.00    -0.333 A  
HETATM   10  C   UNL     1     -11.122  17.053  69.402  1.00  0.00     0.169 A  
BRANCH   7  11
HETATM   11  C   UNL     1     -11.383  13.242  69.889  1.00  0.00    -0.067 A  
HETATM   12  C   UNL     1     -10.704  12.110  69.326  1.00  0.00    -0.031 A  
HETATM   13  C   UNL     1     -11.102  10.759  69.490  1.00  0.00    -0.334 A  
HETATM   14  C   UNL     1     -12.531  12.945  70.663  1.00  0.00    -0.252 A  
HETATM   15  C   UNL     1     -12.171  10.532  70.360  1.00  0.00    -0.415 A  
HETATM   16  C   UNL     1     -12.865  11.602  70.940  1.00  0.00    -0.264 A  
BRANCH  13  17
HETATM   17  C   UNL     1     -10.477   9.647  68.708  1.00  0.00    -0.238 A  
HETATM   18  C   UNL     1      -9.998   8.469  69.313  1.00  0.00    -0.195 A  
HETATM   19  C   UNL     1      -9.083   7.648  67.216  1.00  0.00    -0.142 A  
HETATM   20  C   UNL     1     -10.277   9.759  67.314  1.00  0.00    -0.289 A  
HETATM   21  C   UNL     1      -9.312   7.481  68.585  1.00  0.00    -0.143 A  
HETATM   22  O   UNL     1      -8.577   6.434  65.232  1.00  0.00    -0.131 OA 
HETATM   23  C   UNL     1      -9.597   8.776  66.578  1.00  0.00    -0.302 A  
HETATM   24  C   UNL     1      -8.331   6.657  66.405  1.00  0.00    -0.121 C  
HETATM   25  O   UNL     1      -7.314   6.069  67.071  1.00  0.00    -0.074 OA 
ENDBRANCH  13  17
BRANCH  14  26
HETATM   26  O   UNL     1     -13.409  13.814  71.279  1.00  0.00    -0.295 OA 
BRANCH  26  27
HETATM   27  C   UNL     1     -13.528  13.727  72.699  1.00  0.00    -0.530 C  
BRANCH  27  28
HETATM   28  C   UNL     1     -12.919  14.949  73.381  1.00  0.00    -0.474 C  
HETATM   29  O   UNL     1     -13.846  16.030  73.430  1.00  0.00    -0.772 OA 
HETATM   30  H   UNL     1     -13.467  16.790  73.854  1.00  0.00     0.000 HD 
ENDBRANCH  27  28
ENDBRANCH  26  27
ENDBRANCH  14  26
ENDBRANCH   7  11
BRANCH   9  31
HETATM   31  N   UNL     1      -9.938  18.416  67.762  1.00  0.00    -0.330 NA 
HETATM   32  C   UNL     1     -10.725  18.709  66.555  1.00  0.00    -0.238 C  
HETATM   33  C   UNL     1      -9.631  20.716  67.271  1.00  0.00    -0.558 C  
HETATM   34  C   UNL     1     -10.003  19.940  66.012  1.00  0.00    -0.560 C  
HETATM   35  C   UNL     1      -9.803  19.718  68.432  1.00  0.00    -0.417 C  
ENDBRANCH   9  31
ENDBRANCH   2   5
TORSDOF 7
ENDMDL
MODEL       22
REMARK 921   NORMALIZED FREE ENERGY PREDICTED BY IDOCK:   -6.42 KCAL/MOL
REMARK 922        TOTAL FREE ENERGY PREDICTED BY IDOCK:  -10.52 KCAL/MOL
REMARK 923 INTER-LIGAND FREE ENERGY PREDICTED BY IDOCK:  -10.18 KCAL/MOL
REMARK 924 INTRA-LIGAND FREE ENERGY PREDICTED BY IDOCK:   -0.35 KCAL/MOL
REMARK 927      BINDING AFFINITY PREDICTED BY RF-SCORE:    0.00 PKD
ROOT
HETATM    1  C   UNL     1     -13.229  11.832  72.202  1.00  0.00    -0.342 C  
HETATM    2  C   UNL     1     -12.704  11.095  70.949  1.00  0.00    -0.438 C  
HETATM    3  C   UNL     1     -11.510  10.180  71.378  1.00  0.00    -0.234 C  
HETATM    4  C   UNL     1     -13.730  10.038  70.464  1.00  0.00     0.439 C  
ENDROOT
BRANCH   2   5
HETATM    5  C   UNL     1     -12.225  12.133  69.888  1.00  0.00    -0.240 A  
HETATM    6  C   UNL     1     -11.666  11.584  68.684  1.00  0.00    -0.389 A  
HETATM    7  C   UNL     1     -11.553  12.271  67.462  1.00  0.00    -0.422 A  
HETATM    8  C   UNL     1     -12.094  13.551  67.487  1.00  0.00    -0.340 A  
HETATM    9  C   UNL     1     -12.373  13.533  69.962  1.00  0.00    -0.249 A  
HETATM   10  C   UNL     1     -12.411  14.188  68.712  1.00  0.00    -0.083 A  
BRANCH   7  11
HETATM   11  C   UNL     1     -10.916  11.639  66.243  1.00  0.00    -0.338 A  
HETATM   12  C   UNL     1     -10.302  10.352  66.395  1.00  0.00    -0.278 A  
HETATM   13  C   UNL     1      -9.587   9.667  65.379  1.00  0.00    -0.361 A  
HETATM   14  C   UNL     1     -10.781  12.237  64.967  1.00  0.00    -0.298 A  
HETATM   15  C   UNL     1      -9.593  10.260  64.115  1.00  0.00    -0.376 A  
HETATM   16  C   UNL     1     -10.183  11.515  63.912  1.00  0.00    -0.411 A  
BRANCH  13  17
HETATM   17  C   UNL     1      -8.794   8.430  65.662  1.00  0.00    -0.196 A  
HETATM   18  C   UNL     1      -7.578   8.143  65.013  1.00  0.00    -0.096 A  
HETATM   19  C   UNL     1      -7.427   5.953  66.057  1.00  0.00    -0.085 A  
HETATM   20  C   UNL     1      -9.271   7.448  66.559  1.00  0.00    -0.206 A  
HETATM   21  C   UNL     1      -6.899   6.926  65.203  1.00  0.00    -0.051 A  
HETATM   22  O   UNL     1      -6.817   4.033  67.324  1.00  0.00    -0.049 OA 
HETATM   23  C   UNL     1      -8.599   6.232  66.758  1.00  0.00    -0.116 A  
HETATM   24  C   UNL     1      -6.774   4.635  66.266  1.00  0.00    -0.050 C  
HETATM   25  O   UNL     1      -6.181   4.140  65.157  1.00  0.00    -0.026 OA 
ENDBRANCH  13  17
BRANCH  14  26
HETATM   26  O   UNL     1     -11.213  13.476  64.541  1.00  0.00    -0.346 OA 
BRANCH  26  27
HETATM   27  C   UNL     1     -10.357  14.590  64.792  1.00  0.00    -0.287 C  
BRANCH  27  28
HETATM   28  C   UNL     1     -11.159  15.877  64.962  1.00  0.00    -0.360 C  
HETATM   29  O   UNL     1     -11.626  16.364  63.707  1.00  0.00    -1.605 OA 
HETATM   30  H   UNL     1     -12.126  17.165  63.812  1.00  0.00     0.000 HD 
ENDBRANCH  27  28
ENDBRANCH  26  27
ENDBRANCH  14  26
ENDBRANCH   7  11
BRANCH   9  31
HETATM   31  N   UNL     1     -12.510  14.242  71.149  1.00  0.00    -0.340 NA 
HETATM   32  C   UNL     1     -11.437  15.124  71.632  1.00  0.00    -0.380 C  
HETATM   33  C   UNL     1     -13.416  15.535  72.918  1.00  0.00    -0.641 C  
HETATM   34  C   UNL     1     -11.902  15.416  73.058  1.00  0.00    -0.532 C  
HETATM   35  C   UNL     1     -13.750  14.929  71.543  1.00  0.00    -0.450 C  
ENDBRANCH   9  31
ENDBRANCH   2   5
TORSDOF 7
ENDMDL
MODEL       23
REMARK 921   NORMALIZED FREE ENERGY PREDICTED BY IDOCK:   -6.42 KCAL/MOL
REMARK 922        TOTAL FREE ENERGY PREDICTED BY IDOCK:  -10.51 KCAL/MOL
REMARK 923 INTER-LIGAND FREE ENERGY PREDICTED BY IDOCK:   -8.92 KCAL/MOL
REMARK 924 INTRA-LIGAND FREE ENERGY PREDICTED BY IDOCK:   -1.59 KCAL/MOL
REMARK 927      BINDING AFFINITY PREDICTED BY RF-SCORE:    0.00 PKD
ROOT
HETATM    1  C   UNL     1     -12.522   7.055  71.386  1.00  0.00    -0.426 C  
HETATM    2  C   UNL     1     -11.085   7.470  71.776  1.00  0.00    -0.276 C  
HETATM    3  C   UNL     1     -10.926   9.004  71.517  1.00  0.00    -0.418 C  
HETATM    4  C   UNL     1     -10.892   7.405  73.313  1.00  0.00    -0.417 C  
ENDROOT
BRANCH   2   5
HETATM    5  C   UNL     1     -10.055   6.675  70.915  1.00  0.00    -0.208 A  
HETATM    6  C   UNL     1      -9.841   7.166  69.583  1.00  0.00    -0.162 A  
HETATM    7  C   UNL     1      -8.711   6.889  68.793  1.00  0.00    -0.129 A  
HETATM    8  C   UNL     1      -7.750   6.121  69.441  1.00  0.00    -0.099 A  
HETATM    9  C   UNL     1      -9.260   5.594  71.351  1.00  0.00    -0.146 A  
HETATM   10  C   UNL     1      -8.052   5.428  70.639  1.00  0.00    -0.110 A  
BRANCH   7  11
HETATM   11  C   UNL     1      -8.573   7.411  67.380  1.00  0.00    -0.118 A  
HETATM   12  C   UNL     1      -9.131   8.698  67.079  1.00  0.00    -0.165 A  
HETATM   13  C   UNL     1      -9.166   9.288  65.790  1.00  0.00    -0.283 A  
HETATM   14  C   UNL     1      -8.022   6.710  66.280  1.00  0.00    -0.108 A  
HETATM   15  C   UNL     1      -8.501   8.595  64.777  1.00  0.00    -0.168 A  
HETATM   16  C   UNL     1      -7.935   7.337  65.019  1.00  0.00    -0.129 A  
BRANCH  13  17
HETATM   17  C   UNL     1      -9.946  10.534  65.508  1.00  0.00    -0.342 A  
HETATM   18  C   UNL     1     -10.381  11.404  66.527  1.00  0.00    -0.277 A  
HETATM   19  C   UNL     1     -11.627  12.777  64.954  1.00  0.00    -0.369 A  
HETATM   20  C   UNL     1     -10.342  10.864  64.193  1.00  0.00    -0.432 A  
HETATM   21  C   UNL     1     -11.208  12.510  66.261  1.00  0.00    -0.359 A  
HETATM   22  O   UNL     1     -12.470  14.519  63.569  1.00  0.00    -0.727 OA 
HETATM   23  C   UNL     1     -11.164  11.968  63.917  1.00  0.00    -0.490 A  
HETATM   24  C   UNL     1     -12.531  13.907  64.620  1.00  0.00    -0.325 C  
HETATM   25  O   UNL     1     -13.464  14.153  65.565  1.00  0.00    -0.643 OA 
ENDBRANCH  13  17
BRANCH  14  26
HETATM   26  O   UNL     1      -7.468   5.446  66.248  1.00  0.00    -0.084 OA 
BRANCH  26  27
HETATM   27  C   UNL     1      -8.234   4.412  65.629  1.00  0.00    -0.109 C  
BRANCH  27  28
HETATM   28  C   UNL     1      -9.437   4.028  66.485  1.00  0.00    -0.194 C  
HETATM   29  O   UNL     1     -10.644   4.566  65.952  1.00  0.00    -0.415 OA 
HETATM   30  H   UNL     1     -11.393   4.327  66.485  1.00  0.00     0.000 HD 
ENDBRANCH  27  28
ENDBRANCH  26  27
ENDBRANCH  14  26
ENDBRANCH   7  11
BRANCH   9  31
HETATM   31  N   UNL     1      -9.589   4.761  72.413  1.00  0.00    -0.141 NA 
HETATM   32  C   UNL     1     -10.117   3.409  72.178  1.00  0.00    -0.129 C  
HETATM   33  C   UNL     1      -9.542   3.625  74.493  1.00  0.00    -0.143 C  
HETATM   34  C   UNL     1     -10.602   3.025  73.575  1.00  0.00    -0.270 C  
HETATM   35  C   UNL     1      -8.760   4.622  73.619  1.00  0.00    -0.106 C  
ENDBRANCH   9  31
ENDBRANCH   2   5
TORSDOF 7
ENDMDL
MODEL       24
REMARK 921   NORMALIZED FREE ENERGY PREDICTED BY IDOCK:   -6.41 KCAL/MOL
REMARK 922        TOTAL FREE ENERGY PREDICTED BY IDOCK:  -10.50 KCAL/MOL
REMARK 923 INTER-LIGAND FREE ENERGY PREDICTED BY IDOCK:   -8.93 KCAL/MOL
REMARK 924 INTRA-LIGAND FREE ENERGY PREDICTED BY IDOCK:   -1.57 KCAL/MOL
REMARK 927      BINDING AFFINITY PREDICTED BY RF-SCORE:    0.00 PKD
ROOT
HETATM    1  C   UNL     1      -7.183   7.394  69.093  1.00  0.00    -0.084 C  
HETATM    2  C   UNL     1      -8.558   7.743  69.708  1.00  0.00    -0.134 C  
HETATM    3  C   UNL     1      -9.260   6.412  70.133  1.00  0.00    -0.160 C  
HETATM    4  C   UNL     1      -8.383   8.441  71.083  1.00  0.00    -0.163 C  
ENDROOT
BRANCH   2   5
HETATM    5  C   UNL     1      -9.431   8.495  68.657  1.00  0.00    -0.144 A  
HETATM    6  C   UNL     1     -10.011   9.733  69.096  1.00  0.00    -0.195 A  
HETATM    7  C   UNL     1     -10.472  10.753  68.245  1.00  0.00    -0.207 A  
HETATM    8  C   UNL     1     -10.267  10.493  66.896  1.00  0.00    -0.280 A  
HETATM    9  C   UNL     1      -9.624   8.122  67.311  1.00  0.00    -0.163 A  
HETATM   10  C   UNL     1      -9.937   9.191  66.444  1.00  0.00    -0.358 A  
BRANCH   7  11
HETATM   11  C   UNL     1     -11.108  12.018  68.781  1.00  0.00    -0.298 A  
HETATM   12  C   UNL     1     -10.518  13.274  68.422  1.00  0.00    -0.261 A  
HETATM   13  C   UNL     1     -10.935  14.539  68.911  1.00  0.00    -0.268 A  
HETATM   14  C   UNL     1     -12.190  12.087  69.692  1.00  0.00    -0.139 A  
HETATM   15  C   UNL     1     -12.079  14.543  69.712  1.00  0.00    -0.380 A  
HETATM   16  C   UNL     1     -12.697  13.343  70.088  1.00  0.00    -0.024 A  
BRANCH  13  17
HETATM   17  C   UNL     1     -10.147  15.786  68.662  1.00  0.00    -0.211 A  
HETATM   18  C   UNL     1      -8.755  15.858  68.866  1.00  0.00    -0.225 A  
HETATM   19  C   UNL     1      -8.713  18.243  68.398  1.00  0.00    -0.325 A  
HETATM   20  C   UNL     1     -10.784  16.984  68.267  1.00  0.00    -0.372 A  
HETATM   21  C   UNL     1      -8.043  17.064  68.737  1.00  0.00    -0.250 A  
HETATM   22  O   UNL     1      -8.355  20.416  67.495  1.00  0.00    -0.327 OA 
HETATM   23  C   UNL     1     -10.081  18.191  68.132  1.00  0.00    -0.388 A  
HETATM   24  C   UNL     1      -8.020  19.552  68.286  1.00  0.00    -0.333 C  
HETATM   25  O   UNL     1      -7.022  19.716  69.182  1.00  0.00    -0.338 OA 
ENDBRANCH  13  17
BRANCH  14  26
HETATM   26  O   UNL     1     -12.915  11.056  70.257  1.00  0.00    -0.171 OA 
BRANCH  26  27
HETATM   27  C   UNL     1     -12.605  10.700  71.604  1.00  0.00    -0.377 C  
BRANCH  27  28
HETATM   28  C   UNL     1     -13.047   9.272  71.912  1.00  0.00    -0.415 C  
HETATM   29  O   UNL     1     -13.710   9.197  73.172  1.00  0.00    -0.980 OA 
HETATM   30  H   UNL     1     -13.986   8.308  73.364  1.00  0.00     0.000 HD 
ENDBRANCH  27  28
ENDBRANCH  26  27
ENDBRANCH  14  26
ENDBRANCH   7  11
BRANCH   9  31
HETATM   31  N   UNL     1      -9.490   6.825  66.833  1.00  0.00    -0.150 NA 
HETATM   32  C   UNL     1     -10.662   5.950  66.677  1.00  0.00    -0.252 C  
HETATM   33  C   UNL     1      -8.790   4.939  65.576  1.00  0.00    -0.143 C  
HETATM   34  C   UNL     1     -10.000   4.594  66.437  1.00  0.00    -0.267 C  
HETATM   35  C   UNL     1      -8.615   6.464  65.707  1.00  0.00    -0.148 C  
ENDBRANCH   9  31
ENDBRANCH   2   5
TORSDOF 7
ENDMDL
MODEL       25
REMARK 921   NORMALIZED FREE ENERGY PREDICTED BY IDOCK:   -6.39 KCAL/MOL
REMARK 922        TOTAL FREE ENERGY PREDICTED BY IDOCK:  -10.47 KCAL/MOL
REMARK 923 INTER-LIGAND FREE ENERGY PREDICTED BY IDOCK:   -8.86 KCAL/MOL
REMARK 924 INTRA-LIGAND FREE ENERGY PREDICTED BY IDOCK:   -1.61 KCAL/MOL
REMARK 927      BINDING AFFINITY PREDICTED BY RF-SCORE:    0.00 PKD
ROOT
HETATM    1  C   UNL     1     -14.215   9.404  70.512  1.00  0.00     0.795 C  
HETATM    2  C   UNL     1     -13.026   9.819  71.408  1.00  0.00    -0.490 C  
HETATM    3  C   UNL     1     -13.204  11.322  71.800  1.00  0.00    -0.480 C  
HETATM    4  C   UNL     1     -13.120   9.135  72.797  1.00  0.00    -0.187 C  
ENDROOT
BRANCH   2   5
HETATM    5  C   UNL     1     -11.687   9.626  70.631  1.00  0.00    -0.353 A  
HETATM    6  C   UNL     1     -11.550  10.387  69.421  1.00  0.00    -0.272 A  
HETATM    7  C   UNL     1     -10.329  10.691  68.794  1.00  0.00    -0.210 A  
HETATM    8  C   UNL     1      -9.215  10.233  69.486  1.00  0.00    -0.191 A  
HETATM    9  C   UNL     1     -10.581   8.858  71.050  1.00  0.00    -0.247 A  
HETATM   10  C   UNL     1      -9.340   9.279  70.526  1.00  0.00    -0.316 A  
BRANCH   7  11
HETATM   11  C   UNL     1     -10.266  11.467  67.496  1.00  0.00    -0.207 A  
HETATM   12  C   UNL     1     -10.182  12.897  67.569  1.00  0.00    -0.213 A  
HETATM   13  C   UNL     1     -10.206  13.771  66.453  1.00  0.00    -0.292 A  
HETATM   14  C   UNL     1     -10.377  10.925  66.193  1.00  0.00    -0.248 A  
HETATM   15  C   UNL     1     -10.199  13.165  65.195  1.00  0.00    -0.299 A  
HETATM   16  C   UNL     1     -10.275  11.772  65.068  1.00  0.00    -0.314 A  
BRANCH  13  17
HETATM   17  C   UNL     1     -10.326  15.255  66.608  1.00  0.00    -0.281 A  
HETATM   18  C   UNL     1     -10.401  16.130  65.507  1.00  0.00    -0.391 A  
HETATM   19  C   UNL     1     -10.322  18.093  66.939  1.00  0.00    -0.386 A  
HETATM   20  C   UNL     1     -10.304  15.858  67.886  1.00  0.00    -0.269 A  
HETATM   21  C   UNL     1     -10.400  17.528  65.663  1.00  0.00    -0.145 A  
HETATM   22  O   UNL     1     -10.769  20.100  68.138  1.00  0.00    -0.233 OA 
HETATM   23  C   UNL     1     -10.306  17.252  68.052  1.00  0.00    -0.353 A  
HETATM   24  C   UNL     1     -10.278  19.561  67.162  1.00  0.00    -0.426 C  
HETATM   25  O   UNL     1      -9.592  20.234  66.213  1.00  0.00    -0.373 OA 
ENDBRANCH  13  17
BRANCH  14  26
HETATM   26  O   UNL     1     -10.527   9.607  65.812  1.00  0.00    -0.105 OA 
BRANCH  26  27
HETATM   27  C   UNL     1      -9.421   8.732  66.033  1.00  0.00    -0.233 C  
BRANCH  27  28
HETATM   28  C   UNL     1      -9.837   7.510  66.846  1.00  0.00    -0.226 C  
HETATM   29  O   UNL     1     -11.135   7.681  67.409  1.00  0.00    -0.537 OA 
HETATM   30  H   UNL     1     -11.394   6.920  67.916  1.00  0.00     0.000 HD 
ENDBRANCH  27  28
ENDBRANCH  26  27
ENDBRANCH  14  26
ENDBRANCH   7  11
BRANCH   9  31
HETATM   31  N   UNL     1     -10.662   7.790  71.935  1.00  0.00    -0.218 NA 
HETATM   32  C   UNL     1     -10.887   6.420  71.449  1.00  0.00    -0.253 C  
HETATM   33  C   UNL     1     -10.259   6.329  73.759  1.00  0.00    -0.285 C  
HETATM   34  C   UNL     1     -11.203   5.684  72.750  1.00  0.00    -0.347 C  
HETATM   35  C   UNL     1      -9.764   7.623  73.087  1.00  0.00    -0.269 C  
ENDBRANCH   9  31
ENDBRANCH   2   5
TORSDOF 7
ENDMDL
MODEL       26
REMARK 921   NORMALIZED FREE ENERGY PREDICTED BY IDOCK:   -6.32 KCAL/MOL
REMARK 922        TOTAL FREE ENERGY PREDICTED BY IDOCK:  -10.38 KCAL/MOL
REMARK 923 INTER-LIGAND FREE ENERGY PREDICTED BY IDOCK:   -8.83 KCAL/MOL
REMARK 924 INTRA-LIGAND FREE ENERGY PREDICTED BY IDOCK:   -1.56 KCAL/MOL
REMARK 927      BINDING AFFINITY PREDICTED BY RF-SCORE:    0.00 PKD
ROOT
HETATM    1  C   UNL     1     -12.590  12.665  65.307  1.00  0.00    -0.388 C  
HETATM    2  C   UNL     1     -11.071  12.385  65.238  1.00  0.00    -0.342 C  
HETATM    3  C   UNL     1     -10.843  11.110  64.362  1.00  0.00    -0.340 C  
HETATM    4  C   UNL     1     -10.353  13.464  64.387  1.00  0.00    -0.347 C  
ENDROOT
BRANCH   2   5
HETATM    5  C   UNL     1     -10.511  12.152  66.675  1.00  0.00    -0.248 A  
HETATM    6  C   UNL     1     -10.711  10.837  67.218  1.00  0.00    -0.325 A  
HETATM    7  C   UNL     1      -9.969  10.281  68.275  1.00  0.00    -0.166 A  
HETATM    8  C   UNL     1      -8.949  11.104  68.737  1.00  0.00    -0.136 A  
HETATM    9  C   UNL     1      -9.759  13.068  67.438  1.00  0.00    -0.213 A  
HETATM   10  C   UNL     1      -8.903  12.477  68.391  1.00  0.00    -0.123 A  
BRANCH   7  11
HETATM   11  C   UNL     1     -10.263   8.900  68.821  1.00  0.00    -0.224 A  
HETATM   12  C   UNL     1      -9.907   7.767  68.018  1.00  0.00    -0.192 A  
HETATM   13  C   UNL     1     -10.195   6.417  68.343  1.00  0.00    -0.198 A  
HETATM   14  C   UNL     1     -10.951   8.608  70.024  1.00  0.00    -0.203 A  
HETATM   15  C   UNL     1     -10.769   6.193  69.596  1.00  0.00    -0.385 A  
HETATM   16  C   UNL     1     -11.132   7.266  70.421  1.00  0.00    -0.291 A  
BRANCH  13  17
HETATM   17  C   UNL     1      -9.983   5.303  67.367  1.00  0.00    -0.206 A  
HETATM   18  C   UNL     1      -8.981   4.327  67.534  1.00  0.00    -0.133 A  
HETATM   19  C   UNL     1      -9.457   3.328  65.370  1.00  0.00    -0.119 A  
HETATM   20  C   UNL     1     -10.747   5.217  66.182  1.00  0.00    -0.247 A  
HETATM   21  C   UNL     1      -8.718   3.352  66.555  1.00  0.00    -0.127 A  
HETATM   22  O   UNL     1     -10.075   1.902  63.567  1.00  0.00    -0.123 OA 
HETATM   23  C   UNL     1     -10.495   4.245  65.201  1.00  0.00    -0.195 A  
HETATM   24  C   UNL     1      -9.197   2.347  64.285  1.00  0.00    -0.123 C  
HETATM   25  O   UNL     1      -7.891   2.039  64.133  1.00  0.00    -0.063 OA 
ENDBRANCH  13  17
BRANCH  14  26
HETATM   26  O   UNL     1     -11.464   9.479  70.963  1.00  0.00    -0.291 OA 
BRANCH  26  27
HETATM   27  C   UNL     1     -12.233   8.918  72.026  1.00  0.00    -0.377 C  
BRANCH  27  28
HETATM   28  C   UNL     1     -13.645   9.497  72.053  1.00  0.00    -0.415 C  
HETATM   29  O   UNL     1     -14.371   9.038  73.190  1.00  0.00    -1.136 OA 
HETATM   30  H   UNL     1     -15.250   9.399  73.206  1.00  0.00     0.000 HD 
ENDBRANCH  27  28
ENDBRANCH  26  27
ENDBRANCH  14  26
ENDBRANCH   7  11
BRANCH   9  31
HETATM   31  N   UNL     1      -9.802  14.447  67.268  1.00  0.00    -0.243 NA 
HETATM   32  C   UNL     1     -10.999  15.217  67.637  1.00  0.00    -0.311 C  
HETATM   33  C   UNL     1      -9.197  16.739  67.220  1.00  0.00    -0.234 C  
HETATM   34  C   UNL     1     -10.697  16.573  67.000  1.00  0.00    -0.191 C  
HETATM   35  C   UNL     1      -8.680  15.338  67.598  1.00  0.00    -0.172 C  
ENDBRANCH   9  31
ENDBRANCH   2   5
TORSDOF 7
ENDMDL
MODEL       27
REMARK 921   NORMALIZED FREE ENERGY PREDICTED BY IDOCK:   -6.31 KCAL/MOL
REMARK 922        TOTAL FREE ENERGY PREDICTED BY IDOCK:  -10.36 KCAL/MOL
REMARK 923 INTER-LIGAND FREE ENERGY PREDICTED BY IDOCK:   -8.80 KCAL/MOL
REMARK 924 INTRA-LIGAND FREE ENERGY PREDICTED BY IDOCK:   -1.56 KCAL/MOL
REMARK 927      BINDING AFFINITY PREDICTED BY RF-SCORE:    0.00 PKD
ROOT
HETATM    1  C   UNL     1     -12.403   9.706  70.816  1.00  0.00    -0.279 C  
HETATM    2  C   UNL     1     -11.257   8.677  70.943  1.00  0.00    -0.311 C  
HETATM    3  C   UNL     1     -10.868   8.555  72.453  1.00  0.00    -0.378 C  
HETATM    4  C   UNL     1     -11.771   7.243  70.650  1.00  0.00    -0.310 C  
ENDROOT
BRANCH   2   5
HETATM    5  C   UNL     1     -10.025   9.153  70.112  1.00  0.00    -0.231 A  
HETATM    6  C   UNL     1     -10.303  10.094  69.064  1.00  0.00    -0.230 A  
HETATM    7  C   UNL     1      -9.354  10.949  68.476  1.00  0.00    -0.181 A  
HETATM    8  C   UNL     1      -8.089  10.855  69.043  1.00  0.00    -0.126 A  
HETATM    9  C   UNL     1      -8.676   8.819  70.353  1.00  0.00    -0.166 A  
HETATM   10  C   UNL     1      -7.743   9.771  69.888  1.00  0.00    -0.162 A  
BRANCH   7  11
HETATM   11  C   UNL     1      -9.714  11.890  67.347  1.00  0.00    -0.189 A  
HETATM   12  C   UNL     1      -9.665  13.301  67.603  1.00  0.00    -0.219 A  
HETATM   13  C   UNL     1     -10.057  14.308  66.684  1.00  0.00    -0.274 A  
HETATM   14  C   UNL     1     -10.191  11.515  66.068  1.00  0.00    -0.242 A  
HETATM   15  C   UNL     1     -10.406  13.873  65.404  1.00  0.00    -0.364 A  
HETATM   16  C   UNL     1     -10.464  12.506  65.101  1.00  0.00    -0.320 A  
BRANCH  13  17
HETATM   17  C   UNL     1     -10.180  15.744  67.086  1.00  0.00    -0.279 A  
HETATM   18  C   UNL     1     -10.376  16.779  66.152  1.00  0.00    -0.338 A  
HETATM   19  C   UNL     1     -10.180  18.493  67.865  1.00  0.00    -0.415 A  
HETATM   20  C   UNL     1     -10.038  16.138  68.435  1.00  0.00    -0.236 A  
HETATM   21  C   UNL     1     -10.378  18.134  66.528  1.00  0.00    -0.397 A  
HETATM   22  O   UNL     1     -10.532  20.272  69.406  1.00  0.00    -0.149 OA 
HETATM   23  C   UNL     1     -10.043  17.488  68.821  1.00  0.00    -0.363 A  
HETATM   24  C   UNL     1     -10.133  19.908  68.314  1.00  0.00    -0.447 C  
HETATM   25  O   UNL     1      -9.555  20.742  67.423  1.00  0.00    -0.452 OA 
ENDBRANCH  13  17
BRANCH  14  26
HETATM   26  O   UNL     1     -10.399  10.250  65.557  1.00  0.00    -0.258 OA 
BRANCH  26  27
HETATM   27  C   UNL     1      -9.263   9.392  65.451  1.00  0.00    -0.244 C  
BRANCH  27  28
HETATM   28  C   UNL     1      -8.646   9.462  64.058  1.00  0.00    -0.205 C  
HETATM   29  O   UNL     1      -9.647   9.620  63.056  1.00  0.00    -0.541 OA 
HETATM   30  H   UNL     1      -9.263   9.664  62.188  1.00  0.00     0.000 HD 
ENDBRANCH  27  28
ENDBRANCH  26  27
ENDBRANCH  14  26
ENDBRANCH   7  11
BRANCH   9  31
HETATM   31  N   UNL     1      -8.262   7.675  71.022  1.00  0.00    -0.106 NA 
HETATM   32  C   UNL     1      -8.143   6.388  70.320  1.00  0.00    -0.120 C  
HETATM   33  C   UNL     1      -7.101   6.196  72.468  1.00  0.00    -0.084 C  
HETATM   34  C   UNL     1      -7.972   5.418  71.487  1.00  0.00    -0.115 C  
HETATM   35  C   UNL     1      -7.158   7.661  71.995  1.00  0.00    -0.065 C  
ENDBRANCH   9  31
ENDBRANCH   2   5
TORSDOF 7
ENDMDL
MODEL       28
REMARK 921   NORMALIZED FREE ENERGY PREDICTED BY IDOCK:   -6.30 KCAL/MOL
REMARK 922        TOTAL FREE ENERGY PREDICTED BY IDOCK:  -10.34 KCAL/MOL
REMARK 923 INTER-LIGAND FREE ENERGY PREDICTED BY IDOCK:   -8.82 KCAL/MOL
REMARK 924 INTRA-LIGAND FREE ENERGY PREDICTED BY IDOCK:   -1.52 KCAL/MOL
REMARK 927      BINDING AFFINITY PREDICTED BY RF-SCORE:    0.00 PKD
ROOT
HETATM    1  C   UNL     1     -12.429  10.142  70.753  1.00  0.00    -0.417 C  
HETATM    2  C   UNL     1     -11.213   9.191  70.670  1.00  0.00    -0.322 C  
HETATM    3  C   UNL     1     -10.486   9.197  72.055  1.00  0.00    -0.169 C  
HETATM    4  C   UNL     1     -11.676   7.713  70.583  1.00  0.00    -0.214 C  
ENDROOT
BRANCH   2   5
HETATM    5  C   UNL     1     -10.237   9.677  69.554  1.00  0.00    -0.233 A  
HETATM    6  C   UNL     1     -10.515  10.972  69.000  1.00  0.00    -0.242 A  
HETATM    7  C   UNL     1      -9.585  11.771  68.311  1.00  0.00    -0.199 A  
HETATM    8  C   UNL     1      -8.310  11.221  68.253  1.00  0.00    -0.150 A  
HETATM    9  C   UNL     1      -9.073   9.012  69.115  1.00  0.00    -0.140 A  
HETATM   10  C   UNL     1      -8.085   9.857  68.565  1.00  0.00    -0.101 A  
BRANCH   7  11
HETATM   11  C   UNL     1      -9.963  13.111  67.720  1.00  0.00    -0.227 A  
HETATM   12  C   UNL     1      -9.144  14.245  68.040  1.00  0.00    -0.191 A  
HETATM   13  C   UNL     1      -9.411  15.580  67.643  1.00  0.00    -0.203 A  
HETATM   14  C   UNL     1     -11.114  13.387  66.944  1.00  0.00    -0.292 A  
HETATM   15  C   UNL     1     -10.496  15.761  66.784  1.00  0.00    -0.305 A  
HETATM   16  C   UNL     1     -11.325  14.687  66.436  1.00  0.00    -0.348 A  
BRANCH  13  17
HETATM   17  C   UNL     1      -8.636  16.739  68.184  1.00  0.00    -0.218 A  
HETATM   18  C   UNL     1      -9.010  18.077  67.954  1.00  0.00    -0.265 A  
HETATM   19  C   UNL     1      -7.006  18.926  69.036  1.00  0.00    -0.342 A  
HETATM   20  C   UNL     1      -7.438  16.542  68.907  1.00  0.00    -0.225 A  
HETATM   21  C   UNL     1      -8.214  19.158  68.371  1.00  0.00    -0.384 A  
HETATM   22  O   UNL     1      -5.418  19.970  70.469  1.00  0.00    -0.227 OA 
HETATM   23  C   UNL     1      -6.638  17.614  69.331  1.00  0.00    -0.206 A  
HETATM   24  C   UNL     1      -6.106  20.027  69.465  1.00  0.00    -0.333 C  
HETATM   25  O   UNL     1      -6.078  21.071  68.608  1.00  0.00    -0.319 OA 
ENDBRANCH  13  17
BRANCH  14  26
HETATM   26  O   UNL     1     -12.107  12.523  66.530  1.00  0.00    -0.572 OA 
BRANCH  26  27
HETATM   27  C   UNL     1     -12.279  12.349  65.124  1.00  0.00    -0.384 C  
BRANCH  27  28
HETATM   28  C   UNL     1     -11.216  11.417  64.548  1.00  0.00    -0.180 C  
HETATM   29  O   UNL     1     -11.381  11.250  63.143  1.00  0.00    -0.837 OA 
HETATM   30  H   UNL     1     -10.719  10.670  62.784  1.00  0.00     0.000 HD 
ENDBRANCH  27  28
ENDBRANCH  26  27
ENDBRANCH  14  26
ENDBRANCH   7  11
BRANCH   9  31
HETATM   31  N   UNL     1      -8.865   7.644  69.230  1.00  0.00    -0.136 NA 
HETATM   32  C   UNL     1      -8.452   6.840  68.069  1.00  0.00    -0.120 C  
HETATM   33  C   UNL     1      -8.210   5.517  70.051  1.00  0.00    -0.104 C  
HETATM   34  C   UNL     1      -8.653   5.420  68.595  1.00  0.00    -0.095 C  
HETATM   35  C   UNL     1      -8.166   7.024  70.366  1.00  0.00    -0.124 C  
ENDBRANCH   9  31
ENDBRANCH   2   5
TORSDOF 7
ENDMDL
MODEL       29
REMARK 921   NORMALIZED FREE ENERGY PREDICTED BY IDOCK:   -6.28 KCAL/MOL
REMARK 922        TOTAL FREE ENERGY PREDICTED BY IDOCK:  -10.33 KCAL/MOL
REMARK 923 INTER-LIGAND FREE ENERGY PREDICTED BY IDOCK:   -8.52 KCAL/MOL
REMARK 924 INTRA-LIGAND FREE ENERGY PREDICTED BY IDOCK:   -1.81 KCAL/MOL
REMARK 927      BINDING AFFINITY PREDICTED BY RF-SCORE:    0.00 PKD
ROOT
HETATM    1  C   UNL     1      -5.503   8.205  67.425  1.00  0.00    -0.037 C  
HETATM    2  C   UNL     1      -6.598   8.782  66.498  1.00  0.00    -0.063 C  
HETATM    3  C   UNL     1      -6.501  10.342  66.530  1.00  0.00    -0.089 C  
HETATM    4  C   UNL     1      -6.265   8.493  65.010  1.00  0.00    -0.060 C  
ENDROOT
BRANCH   2   5
HETATM    5  C   UNL     1      -8.004   8.325  66.993  1.00  0.00    -0.100 A  
HETATM    6  C   UNL     1      -8.768   9.312  67.704  1.00  0.00    -0.116 A  
HETATM    7  C   UNL     1     -10.163   9.279  67.879  1.00  0.00    -0.263 A  
HETATM    8  C   UNL     1     -10.782   8.211  67.241  1.00  0.00    -0.263 A  
HETATM    9  C   UNL     1      -8.620   7.084  66.730  1.00  0.00    -0.120 A  
HETATM   10  C   UNL     1     -10.032   7.110  66.760  1.00  0.00    -0.278 A  
BRANCH   7  11
HETATM   11  C   UNL     1     -10.896  10.336  68.676  1.00  0.00    -0.272 A  
HETATM   12  C   UNL     1     -10.906  11.677  68.167  1.00  0.00    -0.260 A  
HETATM   13  C   UNL     1     -11.467  12.796  68.834  1.00  0.00    -0.352 A  
HETATM   14  C   UNL     1     -11.505  10.156  69.941  1.00  0.00    -0.254 A  
HETATM   15  C   UNL     1     -12.153  12.526  70.020  1.00  0.00    -0.337 A  
HETATM   16  C   UNL     1     -12.178  11.233  70.557  1.00  0.00    -0.474 A  
BRANCH  13  17
HETATM   17  C   UNL     1     -11.260  14.196  68.348  1.00  0.00    -0.289 A  
HETATM   18  C   UNL     1     -11.197  14.524  66.980  1.00  0.00    -0.342 A  
HETATM   19  C   UNL     1     -10.633  16.839  67.461  1.00  0.00    -0.309 A  
HETATM   20  C   UNL     1     -11.049  15.259  69.255  1.00  0.00    -0.277 A  
HETATM   21  C   UNL     1     -10.890  15.823  66.536  1.00  0.00    -0.230 A  
HETATM   22  O   UNL     1     -10.584  19.208  67.686  1.00  0.00    -0.434 OA 
HETATM   23  C   UNL     1     -10.746  16.559  68.822  1.00  0.00    -0.339 A  
HETATM   24  C   UNL     1     -10.266  18.218  67.050  1.00  0.00    -0.378 C  
HETATM   25  O   UNL     1      -9.498  18.268  65.940  1.00  0.00    -0.508 OA 
ENDBRANCH  13  17
BRANCH  14  26
HETATM   26  O   UNL     1     -11.602   9.008  70.700  1.00  0.00    -0.269 OA 
BRANCH  26  27
HETATM   27  C   UNL     1     -10.554   8.750  71.635  1.00  0.00    -0.331 C  
BRANCH  27  28
HETATM   28  C   UNL     1     -11.035   7.852  72.771  1.00  0.00    -0.393 C  
HETATM   29  O   UNL     1     -12.391   8.131  73.111  1.00  0.00    -0.652 OA 
HETATM   30  H   UNL     1     -12.690   7.572  73.818  1.00  0.00     0.000 HD 
ENDBRANCH  27  28
ENDBRANCH  26  27
ENDBRANCH  14  26
ENDBRANCH   7  11
BRANCH   9  31
HETATM   31  N   UNL     1      -7.930   5.918  66.426  1.00  0.00    -0.101 NA 
HETATM   32  C   UNL     1      -7.457   5.019  67.490  1.00  0.00    -0.083 C  
HETATM   33  C   UNL     1      -7.246   3.901  65.381  1.00  0.00    -0.068 C  
HETATM   34  C   UNL     1      -6.526   4.090  66.712  1.00  0.00    -0.041 C  
HETATM   35  C   UNL     1      -8.310   5.014  65.330  1.00  0.00    -0.135 C  
ENDBRANCH   9  31
ENDBRANCH   2   5
TORSDOF 7
ENDMDL
MODEL       30
REMARK 921   NORMALIZED FREE ENERGY PREDICTED BY IDOCK:   -6.27 KCAL/MOL
REMARK 922        TOTAL FREE ENERGY PREDICTED BY IDOCK:  -10.31 KCAL/MOL
REMARK 923 INTER-LIGAND FREE ENERGY PREDICTED BY IDOCK:   -9.12 KCAL/MOL
REMARK 924 INTRA-LIGAND FREE ENERGY PREDICTED BY IDOCK:   -1.19 KCAL/MOL
REMARK 927      BINDING AFFINITY PREDICTED BY RF-SCORE:    0.00 PKD
ROOT
HETATM    1  C   UNL     1      -5.942  18.106  69.995  1.00  0.00    -0.167 C  
HETATM    2  C   UNL     1      -6.372  16.870  69.173  1.00  0.00    -0.204 C  
HETATM    3  C   UNL     1      -5.505  16.816  67.872  1.00  0.00    -0.129 C  
HETATM    4  C   UNL     1      -5.931  15.561  69.879  1.00  0.00    -0.149 C  
ENDROOT
BRANCH   2   5
HETATM    5  C   UNL     1      -7.883  16.981  68.801  1.00  0.00    -0.253 A  
HETATM    6  C   UNL     1      -8.707  15.874  69.199  1.00  0.00    -0.256 A  
HETATM    7  C   UNL     1     -10.105  15.922  69.342  1.00  0.00    -0.267 A  
HETATM    8  C   UNL     1     -10.648  17.182  69.120  1.00  0.00    -0.259 A  
HETATM    9  C   UNL     1      -8.517  18.090  68.205  1.00  0.00    -0.269 A  
HETATM   10  C   UNL     1      -9.895  18.203  68.490  1.00  0.00    -0.393 A  
BRANCH   7  11
HETATM   11  C   UNL     1     -10.914  14.702  69.728  1.00  0.00    -0.232 A  
HETATM   12  C   UNL     1     -10.428  13.415  69.322  1.00  0.00     0.130 A  
HETATM   13  C   UNL     1     -11.109  12.188  69.523  1.00  0.00    -0.117 A  
HETATM   14  C   UNL     1     -12.170  14.705  70.381  1.00  0.00    -0.329 A  
HETATM   15  C   UNL     1     -12.284  12.252  70.275  1.00  0.00    -0.342 A  
HETATM   16  C   UNL     1     -12.799  13.483  70.701  1.00  0.00    -0.189 A  
BRANCH  13  17
HETATM   17  C   UNL     1     -10.650  10.912  68.892  1.00  0.00    -0.241 A  
HETATM   18  C   UNL     1     -11.050  10.516  67.601  1.00  0.00    -0.375 A  
HETATM   19  C   UNL     1      -9.939   8.364  67.811  1.00  0.00    -0.236 A  
HETATM   20  C   UNL     1      -9.833  10.001  69.599  1.00  0.00    -0.261 A  
HETATM   21  C   UNL     1     -10.703   9.264  67.062  1.00  0.00    -0.199 A  
HETATM   22  O   UNL     1      -8.529   6.459  67.592  1.00  0.00    -0.117 OA 
HETATM   23  C   UNL     1      -9.478   8.751  69.069  1.00  0.00    -0.160 A  
HETATM   24  C   UNL     1      -9.576   7.014  67.309  1.00  0.00    -0.141 C  
HETATM   25  O   UNL     1     -10.539   6.437  66.558  1.00  0.00    -0.180 OA 
ENDBRANCH  13  17
BRANCH  14  26
HETATM   26  O   UNL     1     -12.909  15.780  70.833  1.00  0.00    -0.468 OA 
BRANCH  26  27
HETATM   27  C   UNL     1     -13.420  15.708  72.164  1.00  0.00    -0.469 C  
BRANCH  27  28
HETATM   28  C   UNL     1     -12.341  16.044  73.189  1.00  0.00    -0.531 C  
HETATM   29  O   UNL     1     -12.886  16.133  74.503  1.00  0.00    -0.935 OA 
HETATM   30  H   UNL     1     -12.214  16.342  75.142  1.00  0.00     0.000 HD 
ENDBRANCH  27  28
ENDBRANCH  26  27
ENDBRANCH  14  26
ENDBRANCH   7  11
BRANCH   9  31
HETATM   31  N   UNL     1      -7.865  19.036  67.423  1.00  0.00    -0.241 NA 
HETATM   32  C   UNL     1      -8.352  19.370  66.076  1.00  0.00    -0.220 C  
HETATM   33  C   UNL     1      -6.707  20.985  66.728  1.00  0.00    -0.360 C  
HETATM   34  C   UNL     1      -7.182  20.181  65.522  1.00  0.00    -0.283 C  
HETATM   35  C   UNL     1      -7.355  20.310  67.952  1.00  0.00    -0.276 C  
ENDBRANCH   9  31
ENDBRANCH   2   5
TORSDOF 7
ENDMDL
MODEL       31
REMARK 921   NORMALIZED FREE ENERGY PREDICTED BY IDOCK:   -6.19 KCAL/MOL
REMARK 922        TOTAL FREE ENERGY PREDICTED BY IDOCK:  -10.20 KCAL/MOL
REMARK 923 INTER-LIGAND FREE ENERGY PREDICTED BY IDOCK:   -8.57 KCAL/MOL
REMARK 924 INTRA-LIGAND FREE ENERGY PREDICTED BY IDOCK:   -1.63 KCAL/MOL
REMARK 927      BINDING AFFINITY PREDICTED BY RF-SCORE:    0.00 PKD
ROOT
HETATM    1  C   UNL     1      -6.346   7.482  70.853  1.00  0.00    -0.038 C  
HETATM    2  C   UNL     1      -7.228   6.329  71.385  1.00  0.00    -0.079 C  
HETATM    3  C   UNL     1      -6.680   4.982  70.810  1.00  0.00    -0.036 C  
HETATM    4  C   UNL     1      -7.000   6.120  72.905  1.00  0.00    -0.076 C  
ENDROOT
BRANCH   2   5
HETATM    5  C   UNL     1      -8.705   6.540  70.930  1.00  0.00    -0.136 A  
HETATM    6  C   UNL     1      -8.961   7.728  70.166  1.00  0.00    -0.146 A  
HETATM    7  C   UNL     1     -10.072   7.923  69.326  1.00  0.00    -0.197 A  
HETATM    8  C   UNL     1     -10.909   6.817  69.240  1.00  0.00    -0.303 A  
HETATM    9  C   UNL     1      -9.774   5.640  71.119  1.00  0.00    -0.172 A  
HETATM   10  C   UNL     1     -10.812   5.751  70.168  1.00  0.00    -0.383 A  
BRANCH   7  11
HETATM   11  C   UNL     1     -10.294   9.221  68.579  1.00  0.00    -0.237 A  
HETATM   12  C   UNL     1     -10.649  10.384  69.340  1.00  0.00    -0.267 A  
HETATM   13  C   UNL     1     -10.978  11.648  68.787  1.00  0.00    -0.274 A  
HETATM   14  C   UNL     1     -10.280   9.388  67.174  1.00  0.00    -0.254 A  
HETATM   15  C   UNL     1     -10.830  11.773  67.405  1.00  0.00    -0.299 A  
HETATM   16  C   UNL     1     -10.481  10.669  66.616  1.00  0.00    -0.296 A  
BRANCH  13  17
HETATM   17  C   UNL     1     -11.539  12.757  69.620  1.00  0.00    -0.322 A  
HETATM   18  C   UNL     1     -11.155  14.101  69.454  1.00  0.00    -0.261 A  
HETATM   19  C   UNL     1     -12.458  14.813  71.378  1.00  0.00    -0.401 A  
HETATM   20  C   UNL     1     -12.446  12.492  70.671  1.00  0.00    -0.323 A  
HETATM   21  C   UNL     1     -11.604  15.119  70.315  1.00  0.00    -0.325 A  
HETATM   22  O   UNL     1     -14.029  15.798  72.871  1.00  0.00    -0.568 OA 
HETATM   23  C   UNL     1     -12.903  13.501  71.534  1.00  0.00    -0.440 A  
HETATM   24  C   UNL     1     -12.932  15.839  72.342  1.00  0.00    -0.465 C  
HETATM   25  O   UNL     1     -12.012  16.788  72.622  1.00  0.00    -0.400 OA 
ENDBRANCH  13  17
BRANCH  14  26
HETATM   26  O   UNL     1     -10.034   8.450  66.192  1.00  0.00    -0.211 OA 
BRANCH  26  27
HETATM   27  C   UNL     1      -8.677   8.055  65.990  1.00  0.00    -0.157 C  
BRANCH  27  28
HETATM   28  C   UNL     1      -8.038   8.837  64.846  1.00  0.00    -0.147 C  
HETATM   29  O   UNL     1      -8.845   8.788  63.672  1.00  0.00    -0.432 OA 
HETATM   30  H   UNL     1      -8.448   9.275  62.960  1.00  0.00     0.000 HD 
ENDBRANCH  27  28
ENDBRANCH  26  27
ENDBRANCH  14  26
ENDBRANCH   7  11
BRANCH   9  31
HETATM   31  N   UNL     1      -9.821   4.683  72.124  1.00  0.00    -0.168 NA 
HETATM   32  C   UNL     1     -10.637   4.891  73.330  1.00  0.00    -0.239 C  
HETATM   33  C   UNL     1      -9.917   2.608  73.269  1.00  0.00    -0.175 C  
HETATM   34  C   UNL     1     -10.137   3.767  74.235  1.00  0.00    -0.205 C  
HETATM   35  C   UNL     1      -9.922   3.239  71.864  1.00  0.00    -0.139 C  
ENDBRANCH   9  31
ENDBRANCH   2   5
TORSDOF 7
ENDMDL
MODEL       32
REMARK 921   NORMALIZED FREE ENERGY PREDICTED BY IDOCK:   -6.18 KCAL/MOL
REMARK 922        TOTAL FREE ENERGY PREDICTED BY IDOCK:  -10.17 KCAL/MOL
REMARK 923 INTER-LIGAND FREE ENERGY PREDICTED BY IDOCK:   -8.55 KCAL/MOL
REMARK 924 INTRA-LIGAND FREE ENERGY PREDICTED BY IDOCK:   -1.62 KCAL/MOL
REMARK 927      BINDING AFFINITY PREDICTED BY RF-SCORE:    0.00 PKD
ROOT
HETATM    1  C   UNL     1      -9.815  15.260  69.841  1.00  0.00    -0.137 C  
HETATM    2  C   UNL     1     -10.993  14.676  69.028  1.00  0.00    -0.269 C  
HETATM    3  C   UNL     1     -11.658  13.538  69.869  1.00  0.00    -0.271 C  
HETATM    4  C   UNL     1     -12.157  15.698  68.937  1.00  0.00    -0.183 C  
ENDROOT
BRANCH   2   5
HETATM    5  C   UNL     1     -10.469  14.103  67.675  1.00  0.00    -0.245 A  
HETATM    6  C   UNL     1     -10.220  12.689  67.650  1.00  0.00    -0.217 A  
HETATM    7  C   UNL     1     -10.146  11.904  66.485  1.00  0.00    -0.229 A  
HETATM    8  C   UNL     1     -10.398  12.613  65.316  1.00  0.00    -0.309 A  
HETATM    9  C   UNL     1     -10.309  14.818  66.471  1.00  0.00    -0.286 A  
HETATM   10  C   UNL     1     -10.391  14.029  65.303  1.00  0.00    -0.403 A  
BRANCH   7  11
HETATM   11  C   UNL     1      -9.841  10.423  66.535  1.00  0.00    -0.256 A  
HETATM   12  C   UNL     1     -10.335   9.670  67.651  1.00  0.00    -0.290 A  
HETATM   13  C   UNL     1     -10.062   8.299  67.892  1.00  0.00    -0.252 A  
HETATM   14  C   UNL     1      -9.025   9.707  65.626  1.00  0.00    -0.169 A  
HETATM   15  C   UNL     1      -9.350   7.628  66.896  1.00  0.00    -0.203 A  
HETATM   16  C   UNL     1      -8.849   8.316  65.783  1.00  0.00    -0.194 A  
BRANCH  13  17
HETATM   17  C   UNL     1     -10.433   7.630  69.178  1.00  0.00    -0.220 A  
HETATM   18  C   UNL     1     -10.720   8.351  70.354  1.00  0.00    -0.244 A  
HETATM   19  C   UNL     1     -10.911   6.316  71.669  1.00  0.00    -0.310 A  
HETATM   20  C   UNL     1     -10.449   6.222  69.289  1.00  0.00    -0.298 A  
HETATM   21  C   UNL     1     -10.956   7.710  71.583  1.00  0.00    -0.267 A  
HETATM   22  O   UNL     1     -11.641   4.490  73.012  1.00  0.00    -0.176 OA 
HETATM   23  C   UNL     1     -10.689   5.573  70.510  1.00  0.00    -0.310 A  
HETATM   24  C   UNL     1     -11.115   5.587  72.948  1.00  0.00    -0.299 C  
HETATM   25  O   UNL     1     -10.610   6.228  74.025  1.00  0.00    -0.280 OA 
ENDBRANCH  13  17
BRANCH  14  26
HETATM   26  O   UNL     1      -8.370  10.168  64.502  1.00  0.00    -0.155 OA 
BRANCH  26  27
HETATM   27  C   UNL     1      -8.499   9.399  63.307  1.00  0.00    -0.202 C  
BRANCH  27  28
HETATM   28  C   UNL     1      -9.535  10.009  62.366  1.00  0.00    -0.188 C  
HETATM   29  O   UNL     1      -9.614  11.423  62.532  1.00  0.00    -0.553 OA 
HETATM   30  H   UNL     1     -10.258  11.803  61.946  1.00  0.00     0.000 HD 
ENDBRANCH  27  28
ENDBRANCH  26  27
ENDBRANCH  14  26
ENDBRANCH   7  11
BRANCH   9  31
HETATM   31  N   UNL     1     -10.120  16.192  66.397  1.00  0.00    -0.291 NA 
HETATM   32  C   UNL     1      -8.781  16.762  66.182  1.00  0.00    -0.264 C  
HETATM   33  C   UNL     1     -10.413  18.492  65.896  1.00  0.00    -0.379 C  
HETATM   34  C   UNL     1      -9.027  18.240  66.480  1.00  0.00    -0.285 C  
HETATM   35  C   UNL     1     -11.020  17.096  65.665  1.00  0.00     0.080 C  
ENDBRANCH   9  31
ENDBRANCH   2   5
TORSDOF 7
ENDMDL
MODEL       33
REMARK 921   NORMALIZED FREE ENERGY PREDICTED BY IDOCK:   -6.15 KCAL/MOL
REMARK 922        TOTAL FREE ENERGY PREDICTED BY IDOCK:  -10.14 KCAL/MOL
REMARK 923 INTER-LIGAND FREE ENERGY PREDICTED BY IDOCK:   -8.65 KCAL/MOL
REMARK 924 INTRA-LIGAND FREE ENERGY PREDICTED BY IDOCK:   -1.49 KCAL/MOL
REMARK 927      BINDING AFFINITY PREDICTED BY RF-SCORE:    0.00 PKD
ROOT
HETATM    1  C   UNL     1     -12.003   6.730  70.734  1.00  0.00    -0.433 C  
HETATM    2  C   UNL     1     -11.415   7.951  71.477  1.00  0.00    -0.301 C  
HETATM    3  C   UNL     1     -12.491   9.086  71.492  1.00  0.00    -0.395 C  
HETATM    4  C   UNL     1     -11.273   7.655  72.993  1.00  0.00    -0.388 C  
ENDROOT
BRANCH   2   5
HETATM    5  C   UNL     1     -10.129   8.446  70.745  1.00  0.00    -0.226 A  
HETATM    6  C   UNL     1     -10.345   9.278  69.595  1.00  0.00    -0.227 A  
HETATM    7  C   UNL     1      -9.390  10.149  69.040  1.00  0.00    -0.192 A  
HETATM    8  C   UNL     1      -8.194  10.192  69.746  1.00  0.00    -0.161 A  
HETATM    9  C   UNL     1      -8.798   8.230  71.158  1.00  0.00    -0.151 A  
HETATM   10  C   UNL     1      -7.880   9.206  70.714  1.00  0.00    -0.173 A  
BRANCH   7  11
HETATM   11  C   UNL     1      -9.678  10.968  67.800  1.00  0.00    -0.183 A  
HETATM   12  C   UNL     1      -9.483  12.387  67.870  1.00  0.00    -0.198 A  
HETATM   13  C   UNL     1      -9.792  13.302  66.831  1.00  0.00    -0.247 A  
HETATM   14  C   UNL     1     -10.218  10.482  66.585  1.00  0.00    -0.233 A  
HETATM   15  C   UNL     1     -10.209  12.743  65.621  1.00  0.00    -0.292 A  
HETATM   16  C   UNL     1     -10.410  11.362  65.499  1.00  0.00    -0.317 A  
BRANCH  13  17
HETATM   17  C   UNL     1      -9.762  14.783  67.042  1.00  0.00    -0.242 A  
HETATM   18  C   UNL     1     -10.741  15.462  67.794  1.00  0.00    -0.289 A  
HETATM   19  C   UNL     1      -9.802  17.633  67.233  1.00  0.00    -0.303 A  
HETATM   20  C   UNL     1      -8.772  15.586  66.435  1.00  0.00    -0.333 A  
HETATM   21  C   UNL     1     -10.766  16.865  67.892  1.00  0.00    -0.344 A  
HETATM   22  O   UNL     1      -8.783  19.784  67.244  1.00  0.00    -0.299 OA 
HETATM   23  C   UNL     1      -8.786  16.987  66.530  1.00  0.00    -0.295 A  
HETATM   24  C   UNL     1      -9.803  19.118  67.270  1.00  0.00    -0.334 C  
HETATM   25  O   UNL     1     -11.039  19.661  67.275  1.00  0.00    -0.417 OA 
ENDBRANCH  13  17
BRANCH  14  26
HETATM   26  O   UNL     1     -10.562   9.189  66.245  1.00  0.00    -0.101 OA 
BRANCH  26  27
HETATM   27  C   UNL     1      -9.511   8.224  66.191  1.00  0.00    -0.171 C  
BRANCH  27  28
HETATM   28  C   UNL     1      -9.967   6.878  66.746  1.00  0.00    -0.182 C  
HETATM   29  O   UNL     1     -11.388   6.772  66.742  1.00  0.00    -0.721 OA 
HETATM   30  H   UNL     1     -11.672   5.934  67.088  1.00  0.00     0.000 HD 
ENDBRANCH  27  28
ENDBRANCH  26  27
ENDBRANCH  14  26
ENDBRANCH   7  11
BRANCH   9  31
HETATM   31  N   UNL     1      -8.391   7.176  71.966  1.00  0.00    -0.107 NA 
HETATM   32  C   UNL     1      -7.873   5.930  71.381  1.00  0.00    -0.112 C  
HETATM   33  C   UNL     1      -7.429   5.923  73.734  1.00  0.00    -0.093 C  
HETATM   34  C   UNL     1      -7.861   5.005  72.596  1.00  0.00    -0.098 C  
HETATM   35  C   UNL     1      -7.603   7.355  73.194  1.00  0.00    -0.091 C  
ENDBRANCH   9  31
ENDBRANCH   2   5
TORSDOF 7
ENDMDL
MODEL       34
REMARK 921   NORMALIZED FREE ENERGY PREDICTED BY IDOCK:   -6.15 KCAL/MOL
REMARK 922        TOTAL FREE ENERGY PREDICTED BY IDOCK:  -10.14 KCAL/MOL
REMARK 923 INTER-LIGAND FREE ENERGY PREDICTED BY IDOCK:   -8.39 KCAL/MOL
REMARK 924 INTRA-LIGAND FREE ENERGY PREDICTED BY IDOCK:   -1.75 KCAL/MOL
REMARK 927      BINDING AFFINITY PREDICTED BY RF-SCORE:    0.00 PKD
ROOT
HETATM    1  C   UNL     1     -11.765  11.968  64.146  1.00  0.00    -0.457 C  
HETATM    2  C   UNL     1     -11.490  13.028  65.237  1.00  0.00    -0.340 C  
HETATM    3  C   UNL     1     -10.595  14.152  64.619  1.00  0.00    -0.391 C  
HETATM    4  C   UNL     1     -12.781  13.822  65.568  1.00  0.00    -0.530 C  
ENDROOT
BRANCH   2   5
HETATM    5  C   UNL     1     -10.757  12.366  66.444  1.00  0.00    -0.277 A  
HETATM    6  C   UNL     1     -10.615  10.938  66.384  1.00  0.00    -0.289 A  
HETATM    7  C   UNL     1      -9.671  10.191  67.110  1.00  0.00    -0.214 A  
HETATM    8  C   UNL     1      -8.813  10.968  67.878  1.00  0.00    -0.134 A  
HETATM    9  C   UNL     1     -10.150  13.040  67.524  1.00  0.00    -0.218 A  
HETATM   10  C   UNL     1      -9.098  12.330  68.143  1.00  0.00    -0.196 A  
BRANCH   7  11
HETATM   11  C   UNL     1      -9.606   8.681  67.024  1.00  0.00    -0.240 A  
HETATM   12  C   UNL     1     -10.048   7.921  68.158  1.00  0.00    -0.228 A  
HETATM   13  C   UNL     1      -9.968   6.510  68.272  1.00  0.00    -0.145 A  
HETATM   14  C   UNL     1      -9.058   7.929  65.957  1.00  0.00    -0.132 A  
HETATM   15  C   UNL     1      -9.527   5.824  67.138  1.00  0.00    -0.121 A  
HETATM   16  C   UNL     1      -9.089   6.518  66.003  1.00  0.00    -0.111 A  
BRANCH  13  17
HETATM   17  C   UNL     1     -10.251   5.800  69.558  1.00  0.00    -0.306 A  
HETATM   18  C   UNL     1     -11.068   6.350  70.565  1.00  0.00    -0.388 A  
HETATM   19  C   UNL     1     -10.582   4.522  72.092  1.00  0.00    -0.137 A  
HETATM   20  C   UNL     1      -9.649   4.556  69.852  1.00  0.00    -0.269 A  
HETATM   21  C   UNL     1     -11.236   5.726  71.814  1.00  0.00    -0.275 A  
HETATM   22  O   UNL     1     -10.663   2.627  73.530  1.00  0.00    -0.147 OA 
HETATM   23  C   UNL     1      -9.814   3.924  71.094  1.00  0.00    -0.223 A  
HETATM   24  C   UNL     1     -10.691   3.839  73.407  1.00  0.00    -0.207 C  
HETATM   25  O   UNL     1     -10.765   4.687  74.455  1.00  0.00    -0.333 OA 
ENDBRANCH  13  17
BRANCH  14  26
HETATM   26  O   UNL     1      -8.508   8.377  64.774  1.00  0.00    -0.162 OA 
BRANCH  26  27
HETATM   27  C   UNL     1      -7.097   8.588  64.746  1.00  0.00    -0.080 C  
BRANCH  27  28
HETATM   28  C   UNL     1      -6.759  10.075  64.789  1.00  0.00    -0.127 C  
HETATM   29  O   UNL     1      -6.544  10.595  63.480  1.00  0.00    -0.349 OA 
HETATM   30  H   UNL     1      -6.334  11.521  63.506  1.00  0.00     0.000 HD 
ENDBRANCH  27  28
ENDBRANCH  26  27
ENDBRANCH  14  26
ENDBRANCH   7  11
BRANCH   9  31
HETATM   31  N   UNL     1     -10.506  14.313  67.950  1.00  0.00    -0.238 NA 
HETATM   32  C   UNL     1     -11.343  14.505  69.144  1.00  0.00    -0.277 C  
HETATM   33  C   UNL     1     -10.428  16.621  68.491  1.00  0.00    -0.319 C  
HETATM   34  C   UNL     1     -11.707  15.984  69.026  1.00  0.00    -0.322 C  
HETATM   35  C   UNL     1      -9.572  15.449  67.975  1.00  0.00    -0.206 C  
ENDBRANCH   9  31
ENDBRANCH   2   5
TORSDOF 7
ENDMDL
MODEL       35
REMARK 921   NORMALIZED FREE ENERGY PREDICTED BY IDOCK:   -6.14 KCAL/MOL
REMARK 922        TOTAL FREE ENERGY PREDICTED BY IDOCK:  -10.13 KCAL/MOL
REMARK 923 INTER-LIGAND FREE ENERGY PREDICTED BY IDOCK:   -8.30 KCAL/MOL
REMARK 924 INTRA-LIGAND FREE ENERGY PREDICTED BY IDOCK:   -1.82 KCAL/MOL
REMARK 927      BINDING AFFINITY PREDICTED BY RF-SCORE:    0.00 PKD
ROOT
HETATM    1  C   UNL     1      -6.720   7.004  65.777  1.00  0.00    -0.052 C  
HETATM    2  C   UNL     1      -6.901   6.530  67.237  1.00  0.00    -0.069 C  
HETATM    3  C   UNL     1      -5.962   5.302  67.477  1.00  0.00    -0.026 C  
HETATM    4  C   UNL     1      -6.301   7.562  68.228  1.00  0.00    -0.044 C  
ENDROOT
BRANCH   2   5
HETATM    5  C   UNL     1      -8.386   6.120  67.479  1.00  0.00    -0.109 A  
HETATM    6  C   UNL     1      -9.018   6.707  68.628  1.00  0.00    -0.124 A  
HETATM    7  C   UNL     1     -10.407   6.817  68.816  1.00  0.00    -0.211 A  
HETATM    8  C   UNL     1     -11.156   6.352  67.741  1.00  0.00    -0.376 A  
HETATM    9  C   UNL     1      -9.179   5.315  66.636  1.00  0.00    -0.130 A  
HETATM   10  C   UNL     1     -10.567   5.552  66.731  1.00  0.00    -0.360 A  
BRANCH   7  11
HETATM   11  C   UNL     1     -11.001   7.414  70.073  1.00  0.00    -0.264 A  
HETATM   12  C   UNL     1     -11.516   8.751  70.007  1.00  0.00     0.047 A  
HETATM   13  C   UNL     1     -12.020   9.484  71.111  1.00  0.00    -0.429 A  
HETATM   14  C   UNL     1     -11.017   6.813  71.355  1.00  0.00    -0.242 A  
HETATM   15  C   UNL     1     -12.115   8.790  72.320  1.00  0.00    -0.423 A  
HETATM   16  C   UNL     1     -11.631   7.481  72.437  1.00  0.00    -0.356 A  
BRANCH  13  17
HETATM   17  C   UNL     1     -12.346  10.941  71.015  1.00  0.00    -0.498 A  
HETATM   18  C   UNL     1     -11.778  11.783  70.039  1.00  0.00    -0.386 A  
HETATM   19  C   UNL     1     -12.812  13.760  71.004  1.00  0.00    -0.376 A  
HETATM   20  C   UNL     1     -13.201  11.560  71.954  1.00  0.00    -0.479 A  
HETATM   21  C   UNL     1     -12.003  13.171  70.028  1.00  0.00    -0.391 A  
HETATM   22  O   UNL     1     -14.102  15.709  71.452  1.00  0.00    -0.541 OA 
HETATM   23  C   UNL     1     -13.436  12.944  71.948  1.00  0.00    -0.478 A  
HETATM   24  C   UNL     1     -13.054  15.224  71.065  1.00  0.00    -0.482 C  
HETATM   25  O   UNL     1     -11.984  15.967  70.706  1.00  0.00    -0.377 OA 
ENDBRANCH  13  17
BRANCH  14  26
HETATM   26  O   UNL     1     -10.546   5.574  71.737  1.00  0.00    -0.225 OA 
BRANCH  26  27
HETATM   27  C   UNL     1      -9.202   5.502  72.212  1.00  0.00    -0.142 C  
BRANCH  27  28
HETATM   28  C   UNL     1      -8.390   4.480  71.422  1.00  0.00    -0.101 C  
HETATM   29  O   UNL     1      -9.227   3.708  70.563  1.00  0.00    -0.110 OA 
HETATM   30  H   UNL     1      -8.721   3.072  70.071  1.00  0.00     0.000 HD 
ENDBRANCH  27  28
ENDBRANCH  26  27
ENDBRANCH  14  26
ENDBRANCH   7  11
BRANCH   9  31
HETATM   31  N   UNL     1      -8.669   4.379  65.744  1.00  0.00    -0.118 NA 
HETATM   32  C   UNL     1      -8.603   2.953  66.099  1.00  0.00    -0.119 C  
HETATM   33  C   UNL     1      -8.172   3.188  63.755  1.00  0.00    -0.086 C  
HETATM   34  C   UNL     1      -7.720   2.402  64.981  1.00  0.00    -0.077 C  
HETATM   35  C   UNL     1      -8.975   4.381  64.306  1.00  0.00    -0.151 C  
ENDBRANCH   9  31
ENDBRANCH   2   5
TORSDOF 7
ENDMDL
MODEL       36
REMARK 921   NORMALIZED FREE ENERGY PREDICTED BY IDOCK:   -6.12 KCAL/MOL
REMARK 922        TOTAL FREE ENERGY PREDICTED BY IDOCK:  -10.10 KCAL/MOL
REMARK 923 INTER-LIGAND FREE ENERGY PREDICTED BY IDOCK:   -9.22 KCAL/MOL
REMARK 924 INTRA-LIGAND FREE ENERGY PREDICTED BY IDOCK:   -0.88 KCAL/MOL
REMARK 927      BINDING AFFINITY PREDICTED BY RF-SCORE:    0.00 PKD
ROOT
HETATM    1  C   UNL     1      -6.685   8.176  68.386  1.00  0.00    -0.064 C  
HETATM    2  C   UNL     1      -7.974   8.857  68.900  1.00  0.00    -0.104 C  
HETATM    3  C   UNL     1      -8.754   7.832  69.787  1.00  0.00    -0.139 C  
HETATM    4  C   UNL     1      -7.637   9.957  69.940  1.00  0.00    -0.167 C  
ENDROOT
BRANCH   2   5
HETATM    5  C   UNL     1      -8.858   9.296  67.692  1.00  0.00    -0.122 A  
HETATM    6  C   UNL     1      -9.258  10.675  67.677  1.00  0.00    -0.153 A  
HETATM    7  C   UNL     1      -9.686  11.378  66.537  1.00  0.00    -0.226 A  
HETATM    8  C   UNL     1      -9.637  10.630  65.367  1.00  0.00    -0.282 A  
HETATM    9  C   UNL     1      -9.215   8.498  66.585  1.00  0.00    -0.177 A  
HETATM   10  C   UNL     1      -9.492   9.221  65.404  1.00  0.00    -0.281 A  
BRANCH   7  11
HETATM   11  C   UNL     1     -10.130  12.823  66.606  1.00  0.00    -0.248 A  
HETATM   12  C   UNL     1     -10.466  13.364  67.891  1.00  0.00    -0.243 A  
HETATM   13  C   UNL     1     -10.983  14.665  68.116  1.00  0.00    -0.269 A  
HETATM   14  C   UNL     1     -10.341  13.685  65.504  1.00  0.00    -0.309 A  
HETATM   15  C   UNL     1     -11.055  15.501  66.999  1.00  0.00    -0.238 A  
HETATM   16  C   UNL     1     -10.734  15.023  65.722  1.00  0.00    -0.351 A  
BRANCH  13  17
HETATM   17  C   UNL     1     -11.508  15.092  69.450  1.00  0.00    -0.320 A  
HETATM   18  C   UNL     1     -10.665  15.476  70.511  1.00  0.00    -0.309 A  
HETATM   19  C   UNL     1     -12.533  15.678  72.052  1.00  0.00    -0.503 A  
HETATM   20  C   UNL     1     -12.893  15.066  69.731  1.00  0.00     0.050 A  
HETATM   21  C   UNL     1     -11.163  15.766  71.794  1.00  0.00    -0.254 A  
HETATM   22  O   UNL     1     -14.214  16.426  73.563  1.00  0.00    -0.142 OA 
HETATM   23  C   UNL     1     -13.400  15.358  71.007  1.00  0.00    -0.545 A  
HETATM   24  C   UNL     1     -13.111  15.935  73.396  1.00  0.00    -0.587 C  
HETATM   25  O   UNL     1     -12.325  15.521  74.414  1.00  0.00    -0.639 OA 
ENDBRANCH  13  17
BRANCH  14  26
HETATM   26  O   UNL     1     -10.164  13.431  64.159  1.00  0.00    -0.363 OA 
BRANCH  26  27
HETATM   27  C   UNL     1     -11.213  12.745  63.478  1.00  0.00    -0.373 C  
BRANCH  27  28
HETATM   28  C   UNL     1     -12.577  13.335  63.827  1.00  0.00    -0.135 C  
HETATM   29  O   UNL     1     -13.379  12.396  64.539  1.00  0.00    -0.800 OA 
HETATM   30  H   UNL     1     -14.228  12.764  64.757  1.00  0.00     0.000 HD 
ENDBRANCH  27  28
ENDBRANCH  26  27
ENDBRANCH  14  26
ENDBRANCH   7  11
BRANCH   9  31
HETATM   31  N   UNL     1      -9.266   7.110  66.606  1.00  0.00    -0.154 NA 
HETATM   32  C   UNL     1     -10.547   6.401  66.741  1.00  0.00    -0.258 C  
HETATM   33  C   UNL     1      -8.852   4.825  66.127  1.00  0.00    -0.120 C  
HETATM   34  C   UNL     1     -10.078   4.974  67.021  1.00  0.00    -0.251 C  
HETATM   35  C   UNL     1      -8.472   6.257  65.708  1.00  0.00    -0.148 C  
ENDBRANCH   9  31
ENDBRANCH   2   5
TORSDOF 7
ENDMDL
MODEL       37
REMARK 921   NORMALIZED FREE ENERGY PREDICTED BY IDOCK:   -6.05 KCAL/MOL
REMARK 922        TOTAL FREE ENERGY PREDICTED BY IDOCK:   -9.99 KCAL/MOL
REMARK 923 INTER-LIGAND FREE ENERGY PREDICTED BY IDOCK:   -8.36 KCAL/MOL
REMARK 924 INTRA-LIGAND FREE ENERGY PREDICTED BY IDOCK:   -1.63 KCAL/MOL
REMARK 927      BINDING AFFINITY PREDICTED BY RF-SCORE:    0.00 PKD
ROOT
HETATM    1  C   UNL     1     -12.888  13.948  65.755  1.00  0.00    -0.437 C  
HETATM    2  C   UNL     1     -11.385  13.790  65.430  1.00  0.00    -0.314 C  
HETATM    3  C   UNL     1     -11.228  12.665  64.355  1.00  0.00    -0.391 C  
HETATM    4  C   UNL     1     -10.860  15.024  64.649  1.00  0.00    -0.290 C  
ENDROOT
BRANCH   2   5
HETATM    5  C   UNL     1     -10.602  13.406  66.722  1.00  0.00    -0.277 A  
HETATM    6  C   UNL     1     -10.729  12.040  67.148  1.00  0.00    -0.277 A  
HETATM    7  C   UNL     1      -9.832  11.376  68.003  1.00  0.00    -0.191 A  
HETATM    8  C   UNL     1      -8.739  12.148  68.377  1.00  0.00    -0.141 A  
HETATM    9  C   UNL     1      -9.723  14.238  67.445  1.00  0.00    -0.235 A  
HETATM   10  C   UNL     1      -8.731  13.551  68.178  1.00  0.00    -0.174 A  
BRANCH   7  11
HETATM   11  C   UNL     1     -10.052   9.944  68.440  1.00  0.00    -0.189 A  
HETATM   12  C   UNL     1      -9.705   8.898  67.522  1.00  0.00    -0.216 A  
HETATM   13  C   UNL     1      -9.932   7.515  67.740  1.00  0.00    -0.214 A  
HETATM   14  C   UNL     1     -10.662   9.523  69.646  1.00  0.00    -0.238 A  
HETATM   15  C   UNL     1     -10.429   7.163  68.997  1.00  0.00    -0.221 A  
HETATM   16  C   UNL     1     -10.779   8.146  69.932  1.00  0.00    -0.241 A  
BRANCH  13  17
HETATM   17  C   UNL     1      -9.740   6.499  66.659  1.00  0.00    -0.201 A  
HETATM   18  C   UNL     1     -10.636   5.431  66.453  1.00  0.00    -0.322 A  
HETATM   19  C   UNL     1      -9.221   4.449  64.738  1.00  0.00    -0.157 A  
HETATM   20  C   UNL     1      -8.600   6.527  65.826  1.00  0.00    -0.149 A  
HETATM   21  C   UNL     1     -10.386   4.419  65.509  1.00  0.00    -0.247 A  
HETATM   22  O   UNL     1      -8.279   3.606  62.721  1.00  0.00    -0.075 OA 
HETATM   23  C   UNL     1      -8.345   5.524  64.877  1.00  0.00    -0.142 A  
HETATM   24  C   UNL     1      -8.887   3.387  63.754  1.00  0.00    -0.093 C  
HETATM   25  O   UNL     1      -9.268   2.150  64.139  1.00  0.00    -0.107 OA 
ENDBRANCH  13  17
BRANCH  14  26
HETATM   26  O   UNL     1     -11.149  10.291  70.685  1.00  0.00    -0.315 OA 
BRANCH  26  27
HETATM   27  C   UNL     1     -12.492  10.762  70.577  1.00  0.00    -0.360 C  
BRANCH  27  28
HETATM   28  C   UNL     1     -12.594  12.234  70.965  1.00  0.00    -0.257 C  
HETATM   29  O   UNL     1     -13.366  12.404  72.151  1.00  0.00    -0.528 OA 
HETATM   30  H   UNL     1     -13.429  13.321  72.392  1.00  0.00     0.000 HD 
ENDBRANCH  27  28
ENDBRANCH  26  27
ENDBRANCH  14  26
ENDBRANCH   7  11
BRANCH   9  31
HETATM   31  N   UNL     1      -9.774  15.626  67.433  1.00  0.00    -0.222 NA 
HETATM   32  C   UNL     1     -10.739  16.355  68.271  1.00  0.00    -0.337 C  
HETATM   33  C   UNL     1      -9.144  17.912  67.393  1.00  0.00    -0.245 C  
HETATM   34  C   UNL     1     -10.631  17.768  67.700  1.00  0.00    -0.385 C  
HETATM   35  C   UNL     1      -8.577  16.481  67.431  1.00  0.00    -0.178 C  
ENDBRANCH   9  31
ENDBRANCH   2   5
TORSDOF 7
ENDMDL
MODEL       38
REMARK 921   NORMALIZED FREE ENERGY PREDICTED BY IDOCK:   -6.02 KCAL/MOL
REMARK 922        TOTAL FREE ENERGY PREDICTED BY IDOCK:   -9.96 KCAL/MOL
REMARK 923 INTER-LIGAND FREE ENERGY PREDICTED BY IDOCK:   -8.56 KCAL/MOL
REMARK 924 INTRA-LIGAND FREE ENERGY PREDICTED BY IDOCK:   -1.40 KCAL/MOL
REMARK 927      BINDING AFFINITY PREDICTED BY RF-SCORE:    0.00 PKD
ROOT
HETATM    1  C   UNL     1      -7.442  14.560  67.167  1.00  0.00    -0.002 C  
HETATM    2  C   UNL     1      -7.999  13.949  68.473  1.00  0.00    -0.137 C  
HETATM    3  C   UNL     1      -6.961  12.911  69.014  1.00  0.00    -0.058 C  
HETATM    4  C   UNL     1      -7.997  14.997  69.615  1.00  0.00    -0.069 C  
ENDROOT
BRANCH   2   5
HETATM    5  C   UNL     1      -9.359  13.241  68.186  1.00  0.00    -0.220 A  
HETATM    6  C   UNL     1      -9.439  11.860  68.571  1.00  0.00    -0.151 A  
HETATM    7  C   UNL     1     -10.635  11.152  68.789  1.00  0.00    -0.233 A  
HETATM    8  C   UNL     1     -11.778  11.930  68.657  1.00  0.00    -0.380 A  
HETATM    9  C   UNL     1     -10.526  13.848  67.678  1.00  0.00    -0.245 A  
HETATM   10  C   UNL     1     -11.729  13.205  68.040  1.00  0.00    -0.394 A  
BRANCH   7  11
HETATM   11  C   UNL     1     -10.641   9.684  69.156  1.00  0.00    -0.237 A  
HETATM   12  C   UNL     1     -10.156   8.744  68.187  1.00  0.00    -0.228 A  
HETATM   13  C   UNL     1     -10.179   7.334  68.338  1.00  0.00    -0.203 A  
HETATM   14  C   UNL     1     -11.172   9.122  70.342  1.00  0.00    -0.240 A  
HETATM   15  C   UNL     1     -10.606   6.855  69.578  1.00  0.00    -0.261 A  
HETATM   16  C   UNL     1     -11.085   7.730  70.561  1.00  0.00    -0.265 A  
BRANCH  13  17
HETATM   17  C   UNL     1      -9.853   6.409  67.208  1.00  0.00    -0.169 A  
HETATM   18  C   UNL     1     -10.756   5.435  66.739  1.00  0.00    -0.289 A  
HETATM   19  C   UNL     1      -9.112   4.510  65.206  1.00  0.00    -0.149 A  
HETATM   20  C   UNL     1      -8.580   6.428  66.595  1.00  0.00    -0.121 A  
HETATM   21  C   UNL     1     -10.398   4.498  65.754  1.00  0.00    -0.287 A  
HETATM   22  O   UNL     1      -7.869   3.786  63.309  1.00  0.00    -0.069 OA 
HETATM   23  C   UNL     1      -8.215   5.499  65.608  1.00  0.00    -0.127 A  
HETATM   24  C   UNL     1      -8.667   3.521  64.192  1.00  0.00    -0.097 C  
HETATM   25  O   UNL     1      -9.183   2.286  64.374  1.00  0.00    -0.118 OA 
ENDBRANCH  13  17
BRANCH  14  26
HETATM   26  O   UNL     1     -11.754   9.760  71.418  1.00  0.00    -0.365 OA 
BRANCH  26  27
HETATM   27  C   UNL     1     -13.162   9.988  71.362  1.00  0.00    -0.395 C  
BRANCH  27  28
HETATM   28  C   UNL     1     -13.934   8.837  72.001  1.00  0.00    -0.451 C  
HETATM   29  O   UNL     1     -13.972   8.966  73.420  1.00  0.00    -1.236 OA 
HETATM   30  H   UNL     1     -14.453   8.249  73.818  1.00  0.00     0.000 HD 
ENDBRANCH  27  28
ENDBRANCH  26  27
ENDBRANCH  14  26
ENDBRANCH   7  11
BRANCH   9  31
HETATM   31  N   UNL     1     -10.534  15.007  66.912  1.00  0.00    -0.274 NA 
HETATM   32  C   UNL     1     -11.246  15.059  65.625  1.00  0.00    -0.327 C  
HETATM   33  C   UNL     1     -10.623  17.284  66.256  1.00  0.00    -0.184 C  
HETATM   34  C   UNL     1     -10.722  16.369  65.040  1.00  0.00    -0.279 C  
HETATM   35  C   UNL     1     -10.711  16.352  67.479  1.00  0.00    -0.298 C  
ENDBRANCH   9  31
ENDBRANCH   2   5
TORSDOF 7
ENDMDL
MODEL       39
REMARK 921   NORMALIZED FREE ENERGY PREDICTED BY IDOCK:   -6.02 KCAL/MOL
REMARK 922        TOTAL FREE ENERGY PREDICTED BY IDOCK:   -9.95 KCAL/MOL
REMARK 923 INTER-LIGAND FREE ENERGY PREDICTED BY IDOCK:   -8.67 KCAL/MOL
REMARK 924 INTRA-LIGAND FREE ENERGY PREDICTED BY IDOCK:   -1.28 KCAL/MOL
REMARK 927      BINDING AFFINITY PREDICTED BY RF-SCORE:    0.00 PKD
ROOT
HETATM    1  C   UNL     1     -11.276   7.815  73.117  1.00  0.00    -0.277 C  
HETATM    2  C   UNL     1     -11.641   7.924  71.619  1.00  0.00    -0.311 C  
HETATM    3  C   UNL     1     -12.943   7.095  71.367  1.00  0.00    -0.419 C  
HETATM    4  C   UNL     1     -12.128   9.356  71.275  1.00  0.00    -0.424 C  
ENDROOT
BRANCH   2   5
HETATM    5  C   UNL     1     -10.475   7.363  70.748  1.00  0.00    -0.221 A  
HETATM    6  C   UNL     1     -10.372   7.899  69.420  1.00  0.00    -0.220 A  
HETATM    7  C   UNL     1      -9.213   7.863  68.624  1.00  0.00    -0.142 A  
HETATM    8  C   UNL     1      -8.113   7.301  69.262  1.00  0.00    -0.124 A  
HETATM    9  C   UNL     1      -9.476   6.462  71.171  1.00  0.00    -0.167 A  
HETATM   10  C   UNL     1      -8.263   6.551  70.455  1.00  0.00    -0.125 A  
BRANCH   7  11
HETATM   11  C   UNL     1      -9.190   8.415  67.216  1.00  0.00    -0.165 A  
HETATM   12  C   UNL     1      -9.487   9.807  67.032  1.00  0.00    -0.195 A  
HETATM   13  C   UNL     1      -9.596  10.456  65.776  1.00  0.00    -0.269 A  
HETATM   14  C   UNL     1      -8.995   7.668  66.029  1.00  0.00    -0.139 A  
HETATM   15  C   UNL     1      -9.276   9.687  64.655  1.00  0.00    -0.293 A  
HETATM   16  C   UNL     1      -8.974   8.325  64.780  1.00  0.00     0.274 A  
BRANCH  13  17
HETATM   17  C   UNL     1     -10.112  11.854  65.647  1.00  0.00    -0.274 A  
HETATM   18  C   UNL     1     -11.364  12.152  65.074  1.00  0.00    -0.379 A  
HETATM   19  C   UNL     1     -10.964  14.546  65.209  1.00  0.00    -0.366 A  
HETATM   20  C   UNL     1      -9.326  12.960  66.041  1.00  0.00    -0.036 A  
HETATM   21  C   UNL     1     -11.790  13.475  64.856  1.00  0.00    -0.402 A  
HETATM   22  O   UNL     1     -11.013  16.874  65.701  1.00  0.00    -0.155 OA 
HETATM   23  C   UNL     1      -9.744  14.284  65.832  1.00  0.00    -0.289 A  
HETATM   24  C   UNL     1     -11.345  15.961  64.966  1.00  0.00    -0.193 C  
HETATM   25  O   UNL     1     -12.043  16.148  63.825  1.00  0.00    -0.946 OA 
ENDBRANCH  13  17
BRANCH  14  26
HETATM   26  O   UNL     1      -8.751   6.317  65.886  1.00  0.00    -0.148 OA 
BRANCH  26  27
HETATM   27  C   UNL     1      -9.734   5.417  66.397  1.00  0.00    -0.166 C  
BRANCH  27  28
HETATM   28  C   UNL     1     -10.054   4.318  65.389  1.00  0.00    -0.225 C  
HETATM   29  O   UNL     1     -11.414   4.385  64.965  1.00  0.00    -1.090 OA 
HETATM   30  H   UNL     1     -11.613   3.701  64.337  1.00  0.00     0.000 HD 
ENDBRANCH  27  28
ENDBRANCH  26  27
ENDBRANCH  14  26
ENDBRANCH   7  11
BRANCH   9  31
HETATM   31  N   UNL     1      -9.623   5.570  72.226  1.00  0.00    -0.151 NA 
HETATM   32  C   UNL     1     -10.182   4.227  72.009  1.00  0.00    -0.150 C  
HETATM   33  C   UNL     1      -9.232   4.325  74.206  1.00  0.00    -0.111 C  
HETATM   34  C   UNL     1     -10.428   3.765  73.444  1.00  0.00    -0.257 C  
HETATM   35  C   UNL     1      -8.606   5.376  73.270  1.00  0.00    -0.116 C  
ENDBRANCH   9  31
ENDBRANCH   2   5
TORSDOF 7
ENDMDL
MODEL       40
REMARK 921   NORMALIZED FREE ENERGY PREDICTED BY IDOCK:   -5.97 KCAL/MOL
REMARK 922        TOTAL FREE ENERGY PREDICTED BY IDOCK:   -9.89 KCAL/MOL
REMARK 923 INTER-LIGAND FREE ENERGY PREDICTED BY IDOCK:   -8.27 KCAL/MOL
REMARK 924 INTRA-LIGAND FREE ENERGY PREDICTED BY IDOCK:   -1.62 KCAL/MOL
REMARK 927      BINDING AFFINITY PREDICTED BY RF-SCORE:    0.00 PKD
ROOT
HETATM    1  C   UNL     1      -6.965   4.506  68.667  1.00  0.00    -0.052 C  
HETATM    2  C   UNL     1      -7.495   3.960  70.013  1.00  0.00    -0.045 C  
HETATM    3  C   UNL     1      -8.026   2.508  69.781  1.00  0.00    -0.053 C  
HETATM    4  C   UNL     1      -6.325   3.697  70.997  1.00  0.00    -0.019 C  
ENDROOT
BRANCH   2   5
HETATM    5  C   UNL     1      -8.647   4.872  70.536  1.00  0.00    -0.122 A  
HETATM    6  C   UNL     1      -8.928   6.040  69.749  1.00  0.00    -0.135 A  
HETATM    7  C   UNL     1     -10.135   6.761  69.779  1.00  0.00    -0.198 A  
HETATM    8  C   UNL     1     -11.097   6.208  70.616  1.00  0.00    -0.384 A  
HETATM    9  C   UNL     1      -9.485   4.609  71.640  1.00  0.00    -0.153 A  
HETATM   10  C   UNL     1     -10.754   5.223  71.574  1.00  0.00    -0.221 A  
BRANCH   7  11
HETATM   11  C   UNL     1     -10.344   8.008  68.948  1.00  0.00    -0.222 A  
HETATM   12  C   UNL     1     -10.768   9.203  69.618  1.00  0.00    -0.236 A  
HETATM   13  C   UNL     1     -11.093  10.425  68.976  1.00  0.00    -0.297 A  
HETATM   14  C   UNL     1     -10.253   8.097  67.538  1.00  0.00    -0.243 A  
HETATM   15  C   UNL     1     -10.869  10.476  67.599  1.00  0.00    -0.355 A  
HETATM   16  C   UNL     1     -10.450   9.338  66.896  1.00  0.00    -0.284 A  
BRANCH  13  17
HETATM   17  C   UNL     1     -11.727  11.564  69.710  1.00  0.00    -0.426 A  
HETATM   18  C   UNL     1     -11.621  12.900  69.277  1.00  0.00    -0.368 A  
HETATM   19  C   UNL     1     -12.753  13.734  71.260  1.00  0.00    -0.450 A  
HETATM   20  C   UNL     1     -12.416  11.354  70.926  1.00  0.00    -0.478 A  
HETATM   21  C   UNL     1     -12.124  13.973  70.035  1.00  0.00    -0.412 A  
HETATM   22  O   UNL     1     -14.256  14.714  72.824  1.00  0.00    -0.443 OA 
HETATM   23  C   UNL     1     -12.926  12.418  71.687  1.00  0.00    -0.409 A  
HETATM   24  C   UNL     1     -13.269  14.830  72.120  1.00  0.00    -0.361 C  
HETATM   25  O   UNL     1     -12.508  15.946  72.093  1.00  0.00    -0.415 OA 
ENDBRANCH  13  17
BRANCH  14  26
HETATM   26  O   UNL     1      -9.928   7.111  66.627  1.00  0.00    -0.202 OA 
BRANCH  26  27
HETATM   27  C   UNL     1     -10.758   5.951  66.595  1.00  0.00    -0.252 C  
BRANCH  27  28
HETATM   28  C   UNL     1      -9.991   4.737  66.079  1.00  0.00    -0.237 C  
HETATM   29  O   UNL     1      -9.974   3.688  67.045  1.00  0.00    -0.331 OA 
HETATM   30  H   UNL     1      -9.495   2.932  66.724  1.00  0.00     0.000 HD 
ENDBRANCH  27  28
ENDBRANCH  26  27
ENDBRANCH  14  26
ENDBRANCH   7  11
BRANCH   9  31
HETATM   31  N   UNL     1      -9.138   3.789  72.706  1.00  0.00    -0.100 NA 
HETATM   32  C   UNL     1      -8.362   4.310  73.841  1.00  0.00    -0.096 C  
HETATM   33  C   UNL     1      -9.219   2.149  74.417  1.00  0.00    -0.089 C  
HETATM   34  C   UNL     1      -7.977   3.021  74.565  1.00  0.00    -0.064 C  
HETATM   35  C   UNL     1     -10.059   2.816  73.312  1.00  0.00    -0.120 C  
ENDBRANCH   9  31
ENDBRANCH   2   5
TORSDOF 7
ENDMDL
MODEL       41
REMARK 921   NORMALIZED FREE ENERGY PREDICTED BY IDOCK:   -5.96 KCAL/MOL
REMARK 922        TOTAL FREE ENERGY PREDICTED BY IDOCK:   -9.87 KCAL/MOL
REMARK 923 INTER-LIGAND FREE ENERGY PREDICTED BY IDOCK:   -8.72 KCAL/MOL
REMARK 924 INTRA-LIGAND FREE ENERGY PREDICTED BY IDOCK:   -1.15 KCAL/MOL
REMARK 927      BINDING AFFINITY PREDICTED BY RF-SCORE:    0.00 PKD
ROOT
HETATM    1  C   UNL     1      -9.873  15.544  67.268  1.00  0.00    -0.224 C  
HETATM    2  C   UNL     1     -10.401  15.400  68.713  1.00  0.00    -0.229 C  
HETATM    3  C   UNL     1      -9.212  15.643  69.700  1.00  0.00    -0.189 C  
HETATM    4  C   UNL     1     -11.336  16.583  69.076  1.00  0.00    -0.181 C  
ENDROOT
BRANCH   2   5
HETATM    5  C   UNL     1     -10.984  13.969  68.923  1.00  0.00    -0.283 A  
HETATM    6  C   UNL     1     -10.630  12.997  67.926  1.00  0.00    -0.239 A  
HETATM    7  C   UNL     1     -10.684  11.603  68.104  1.00  0.00    -0.248 A  
HETATM    8  C   UNL     1     -11.064  11.217  69.384  1.00  0.00    -0.314 A  
HETATM    9  C   UNL     1     -11.736  13.527  70.031  1.00  0.00    -0.241 A  
HETATM   10  C   UNL     1     -11.651  12.140  70.284  1.00  0.00    -0.105 A  
BRANCH   7  11
HETATM   11  C   UNL     1     -10.331  10.639  66.993  1.00  0.00    -0.280 A  
HETATM   12  C   UNL     1     -10.164   9.255  67.329  1.00  0.00    -0.315 A  
HETATM   13  C   UNL     1      -9.747   8.243  66.426  1.00  0.00    -0.300 A  
HETATM   14  C   UNL     1     -10.054  10.981  65.647  1.00  0.00    -0.256 A  
HETATM   15  C   UNL     1      -9.605   8.629  65.091  1.00  0.00     0.497 A  
HETATM   16  C   UNL     1      -9.762   9.968  64.709  1.00  0.00    -0.363 A  
BRANCH  13  17
HETATM   17  C   UNL     1      -9.391   6.865  66.887  1.00  0.00    -0.177 A  
HETATM   18  C   UNL     1     -10.020   5.710  66.384  1.00  0.00    -0.189 A  
HETATM   19  C   UNL     1      -8.849   4.271  67.954  1.00  0.00    -0.128 A  
HETATM   20  C   UNL     1      -8.438   6.662  67.910  1.00  0.00    -0.119 A  
HETATM   21  C   UNL     1      -9.758   4.430  66.905  1.00  0.00    -0.233 A  
HETATM   22  O   UNL     1      -7.469   2.648  69.017  1.00  0.00    -0.044 OA 
HETATM   23  C   UNL     1      -8.166   5.389  68.433  1.00  0.00    -0.094 A  
HETATM   24  C   UNL     1      -8.561   2.949  68.569  1.00  0.00    -0.083 C  
HETATM   25  O   UNL     1      -9.638   2.136  68.637  1.00  0.00    -0.170 OA 
ENDBRANCH  13  17
BRANCH  14  26
HETATM   26  O   UNL     1     -10.074  12.224  65.047  1.00  0.00    -0.271 OA 
BRANCH  26  27
HETATM   27  C   UNL     1     -10.797  12.348  63.823  1.00  0.00    -0.454 C  
BRANCH  27  28
HETATM   28  C   UNL     1     -12.254  12.722  64.077  1.00  0.00    -0.441 C  
HETATM   29  O   UNL     1     -12.530  14.052  63.643  1.00  0.00    -0.952 OA 
HETATM   30  H   UNL     1     -13.437  14.285  63.802  1.00  0.00     0.000 HD 
ENDBRANCH  27  28
ENDBRANCH  26  27
ENDBRANCH  14  26
ENDBRANCH   7  11
BRANCH   9  31
HETATM   31  N   UNL     1     -12.482  14.362  70.852  1.00  0.00    -0.330 NA 
HETATM   32  C   UNL     1     -13.863  14.021  71.224  1.00  0.00    -0.105 C  
HETATM   33  C   UNL     1     -13.119  15.841  72.593  1.00  0.00    -0.579 C  
HETATM   34  C   UNL     1     -14.345  15.333  71.841  1.00  0.00    -0.691 C  
HETATM   35  C   UNL     1     -11.936  15.020  72.049  1.00  0.00    -0.388 C  
ENDBRANCH   9  31
ENDBRANCH   2   5
TORSDOF 7
ENDMDL
MODEL       42
REMARK 921   NORMALIZED FREE ENERGY PREDICTED BY IDOCK:   -5.91 KCAL/MOL
REMARK 922        TOTAL FREE ENERGY PREDICTED BY IDOCK:   -9.80 KCAL/MOL
REMARK 923 INTER-LIGAND FREE ENERGY PREDICTED BY IDOCK:   -9.14 KCAL/MOL
REMARK 924 INTRA-LIGAND FREE ENERGY PREDICTED BY IDOCK:   -0.66 KCAL/MOL
REMARK 927      BINDING AFFINITY PREDICTED BY RF-SCORE:    0.00 PKD
ROOT
HETATM    1  C   UNL     1      -8.189  16.392  69.246  1.00  0.00    -0.109 C  
HETATM    2  C   UNL     1      -9.690  16.286  68.891  1.00  0.00    -0.248 C  
HETATM    3  C   UNL     1     -10.381  15.352  69.939  1.00  0.00    -0.298 C  
HETATM    4  C   UNL     1     -10.415  17.630  69.165  1.00  0.00    -0.128 C  
ENDROOT
BRANCH   2   5
HETATM    5  C   UNL     1      -9.854  15.691  67.458  1.00  0.00    -0.228 A  
HETATM    6  C   UNL     1      -9.848  14.258  67.372  1.00  0.00    -0.235 A  
HETATM    7  C   UNL     1     -10.372  13.514  66.300  1.00  0.00    -0.293 A  
HETATM    8  C   UNL     1     -10.971  14.293  65.317  1.00  0.00    -0.347 A  
HETATM    9  C   UNL     1     -10.095  16.419  66.275  1.00  0.00    -0.331 A  
HETATM   10  C   UNL     1     -10.762  15.693  65.264  1.00  0.00    -0.444 A  
BRANCH   7  11
HETATM   11  C   UNL     1     -10.296  12.003  66.260  1.00  0.00    -0.253 A  
HETATM   12  C   UNL     1     -10.440  11.288  67.495  1.00  0.00    -0.234 A  
HETATM   13  C   UNL     1     -10.304   9.884  67.643  1.00  0.00    -0.275 A  
HETATM   14  C   UNL     1     -10.000  11.211  65.124  1.00  0.00    -0.272 A  
HETATM   15  C   UNL     1     -10.128   9.154  66.465  1.00  0.00    -0.357 A  
HETATM   16  C   UNL     1      -9.987   9.804  65.232  1.00  0.00    -0.251 A  
BRANCH  13  17
HETATM   17  C   UNL     1     -10.258   9.227  68.986  1.00  0.00    -0.217 A  
HETATM   18  C   UNL     1     -10.843   7.971  69.238  1.00  0.00    -0.072 A  
HETATM   19  C   UNL     1     -10.352   8.111  71.615  1.00  0.00    -0.284 A  
HETATM   20  C   UNL     1      -9.674   9.878  70.096  1.00  0.00    -0.255 A  
HETATM   21  C   UNL     1     -10.892   7.415  70.529  1.00  0.00    -0.259 A  
HETATM   22  O   UNL     1      -9.538   7.800  73.830  1.00  0.00    -0.288 OA 
HETATM   23  C   UNL     1      -9.714   9.330  71.388  1.00  0.00    -0.269 A  
HETATM   24  C   UNL     1     -10.410   7.591  73.005  1.00  0.00    -0.322 C  
HETATM   25  O   UNL     1     -11.546   6.916  73.286  1.00  0.00     0.077 OA 
ENDBRANCH  13  17
BRANCH  14  26
HETATM   26  O   UNL     1      -9.755  11.614  63.827  1.00  0.00    -0.273 OA 
BRANCH  26  27
HETATM   27  C   UNL     1      -9.422  10.601  62.879  1.00  0.00    -0.343 C  
BRANCH  27  28
HETATM   28  C   UNL     1      -8.006  10.790  62.342  1.00  0.00    -0.171 C  
HETATM   29  O   UNL     1      -7.032  10.480  63.335  1.00  0.00    -0.311 OA 
HETATM   30  H   UNL     1      -6.150  10.598  63.001  1.00  0.00     0.000 HD 
ENDBRANCH  27  28
ENDBRANCH  26  27
ENDBRANCH  14  26
ENDBRANCH   7  11
BRANCH   9  31
HETATM   31  N   UNL     1      -9.752  17.752  66.094  1.00  0.00    -0.500 NA 
HETATM   32  C   UNL     1     -10.634  18.832  66.563  1.00  0.00    -0.374 C  
HETATM   33  C   UNL     1      -8.514  19.771  65.961  1.00  0.00    -0.304 C  
HETATM   34  C   UNL     1     -10.012  20.051  65.884  1.00  0.00    -0.471 C  
HETATM   35  C   UNL     1      -8.394  18.275  66.307  1.00  0.00    -0.203 C  
ENDBRANCH   9  31
ENDBRANCH   2   5
TORSDOF 7
ENDMDL
MODEL       43
REMARK 921   NORMALIZED FREE ENERGY PREDICTED BY IDOCK:   -5.89 KCAL/MOL
REMARK 922        TOTAL FREE ENERGY PREDICTED BY IDOCK:   -9.77 KCAL/MOL
REMARK 923 INTER-LIGAND FREE ENERGY PREDICTED BY IDOCK:   -8.28 KCAL/MOL
REMARK 924 INTRA-LIGAND FREE ENERGY PREDICTED BY IDOCK:   -1.49 KCAL/MOL
REMARK 927      BINDING AFFINITY PREDICTED BY RF-SCORE:    0.00 PKD
ROOT
HETATM    1  C   UNL     1      -7.560   5.869  70.852  1.00  0.00    -0.096 C  
HETATM    2  C   UNL     1      -8.995   6.140  70.345  1.00  0.00    -0.151 C  
HETATM    3  C   UNL     1      -9.877   4.890  70.668  1.00  0.00    -0.289 C  
HETATM    4  C   UNL     1      -9.687   7.226  71.210  1.00  0.00    -0.168 C  
ENDROOT
BRANCH   2   5
HETATM    5  C   UNL     1      -8.972   6.393  68.806  1.00  0.00    -0.126 A  
HETATM    6  C   UNL     1      -9.430   7.685  68.377  1.00  0.00    -0.150 A  
HETATM    7  C   UNL     1      -9.128   8.276  67.137  1.00  0.00    -0.162 A  
HETATM    8  C   UNL     1      -8.274   7.515  66.348  1.00  0.00    -0.122 A  
HETATM    9  C   UNL     1      -8.466   5.517  67.823  1.00  0.00    -0.098 A  
HETATM   10  C   UNL     1      -8.024   6.152  66.642  1.00  0.00    -0.105 A  
BRANCH   7  11
HETATM   11  C   UNL     1      -9.679   9.627  66.738  1.00  0.00    -0.252 A  
HETATM   12  C   UNL     1     -10.189  10.480  67.773  1.00  0.00    -0.223 A  
HETATM   13  C   UNL     1     -10.818  11.732  67.558  1.00  0.00    -0.286 A  
HETATM   14  C   UNL     1      -9.831  10.110  65.416  1.00  0.00    -0.307 A  
HETATM   15  C   UNL     1     -10.830  12.199  66.242  1.00  0.00    -0.317 A  
HETATM   16  C   UNL     1     -10.340  11.408  65.195  1.00  0.00    -0.344 A  
BRANCH  13  17
HETATM   17  C   UNL     1     -11.513  12.471  68.659  1.00  0.00    -0.348 A  
HETATM   18  C   UNL     1     -11.635  13.874  68.673  1.00  0.00    -0.363 A  
HETATM   19  C   UNL     1     -12.640  13.861  70.886  1.00  0.00    -0.431 A  
HETATM   20  C   UNL     1     -12.027  11.788  69.784  1.00  0.00    -0.392 A  
HETATM   21  C   UNL     1     -12.189  14.564  69.765  1.00  0.00    -0.360 A  
HETATM   22  O   UNL     1     -14.076  14.054  72.774  1.00  0.00    -0.636 OA 
HETATM   23  C   UNL     1     -12.586  12.468  70.877  1.00  0.00    -0.331 A  
HETATM   24  C   UNL     1     -13.198  14.540  72.084  1.00  0.00    -0.369 C  
HETATM   25  O   UNL     1     -12.601  15.718  72.369  1.00  0.00    -0.388 OA 
ENDBRANCH  13  17
BRANCH  14  26
HETATM   26  O   UNL     1      -9.493   9.498  64.226  1.00  0.00    -0.143 OA 
BRANCH  26  27
HETATM   27  C   UNL     1      -9.152  10.345  63.128  1.00  0.00    -0.261 C  
BRANCH  27  28
HETATM   28  C   UNL     1      -7.708  10.124  62.688  1.00  0.00    -0.140 C  
HETATM   29  O   UNL     1      -6.794  10.775  63.566  1.00  0.00    -0.350 OA 
HETATM   30  H   UNL     1      -5.895  10.638  63.291  1.00  0.00     0.000 HD 
ENDBRANCH  27  28
ENDBRANCH  26  27
ENDBRANCH  14  26
ENDBRANCH   7  11
BRANCH   9  31
HETATM   31  N   UNL     1      -8.360   4.141  67.982  1.00  0.00    -0.093 NA 
HETATM   32  C   UNL     1      -9.320   3.229  67.344  1.00  0.00    -0.201 C  
HETATM   33  C   UNL     1      -7.477   1.949  68.180  1.00  0.00    -0.050 C  
HETATM   34  C   UNL     1      -8.995   1.908  68.038  1.00  0.00    -0.177 C  
HETATM   35  C   UNL     1      -7.081   3.416  67.930  1.00  0.00    -0.051 C  
ENDBRANCH   9  31
ENDBRANCH   2   5
TORSDOF 7
ENDMDL
MODEL       44
REMARK 921   NORMALIZED FREE ENERGY PREDICTED BY IDOCK:   -5.87 KCAL/MOL
REMARK 922        TOTAL FREE ENERGY PREDICTED BY IDOCK:   -9.74 KCAL/MOL
REMARK 923 INTER-LIGAND FREE ENERGY PREDICTED BY IDOCK:   -8.40 KCAL/MOL
REMARK 924 INTRA-LIGAND FREE ENERGY PREDICTED BY IDOCK:   -1.34 KCAL/MOL
REMARK 927      BINDING AFFINITY PREDICTED BY RF-SCORE:    0.00 PKD
ROOT
HETATM    1  C   UNL     1      -8.621  19.582  66.361  1.00  0.00    -0.384 C  
HETATM    2  C   UNL     1      -9.400  18.861  67.485  1.00  0.00    -0.327 C  
HETATM    3  C   UNL     1      -9.587  19.858  68.675  1.00  0.00    -0.348 C  
HETATM    4  C   UNL     1     -10.874  18.620  67.063  1.00  0.00    -0.297 C  
ENDROOT
BRANCH   2   5
HETATM    5  C   UNL     1      -8.603  17.607  67.960  1.00  0.00    -0.248 A  
HETATM    6  C   UNL     1      -9.313  16.360  67.912  1.00  0.00    -0.214 A  
HETATM    7  C   UNL     1      -8.710  15.089  67.893  1.00  0.00    -0.155 A  
HETATM    8  C   UNL     1      -7.321  15.130  67.864  1.00  0.00    -0.152 A  
HETATM    9  C   UNL     1      -7.245  17.574  68.337  1.00  0.00    -0.226 A  
HETATM   10  C   UNL     1      -6.617  16.322  68.164  1.00  0.00    -0.133 A  
BRANCH   7  11
HETATM   11  C   UNL     1      -9.525  13.815  67.882  1.00  0.00    -0.214 A  
HETATM   12  C   UNL     1      -8.984  12.662  68.542  1.00  0.00    -0.046 A  
HETATM   13  C   UNL     1      -9.577  11.374  68.545  1.00  0.00    -0.190 A  
HETATM   14  C   UNL     1     -10.747  13.611  67.196  1.00  0.00    -0.277 A  
HETATM   15  C   UNL     1     -10.836  11.273  67.950  1.00  0.00    -0.278 A  
HETATM   16  C   UNL     1     -11.412  12.371  67.296  1.00  0.00    -0.421 A  
BRANCH  13  17
HETATM   17  C   UNL     1      -8.860  10.171  69.072  1.00  0.00    -0.166 A  
HETATM   18  C   UNL     1      -7.505   9.910  68.788  1.00  0.00    -0.079 A  
HETATM   19  C   UNL     1      -7.588   7.751  69.902  1.00  0.00    -0.090 A  
HETATM   20  C   UNL     1      -9.537   9.194  69.836  1.00  0.00    -0.206 A  
HETATM   21  C   UNL     1      -6.873   8.721  69.195  1.00  0.00    -0.055 A  
HETATM   22  O   UNL     1      -7.296   5.883  71.348  1.00  0.00    -0.080 OA 
HETATM   23  C   UNL     1      -8.914   8.007  70.249  1.00  0.00    -0.147 A  
HETATM   24  C   UNL     1      -6.983   6.461  70.323  1.00  0.00    -0.063 C  
HETATM   25  O   UNL     1      -6.096   5.962  69.434  1.00  0.00    -0.026 OA 
ENDBRANCH  13  17
BRANCH  14  26
HETATM   26  O   UNL     1     -11.473  14.505  66.435  1.00  0.00    -0.346 OA 
BRANCH  26  27
HETATM   27  C   UNL     1     -11.141  14.606  65.050  1.00  0.00    -0.394 C  
BRANCH  27  28
HETATM   28  C   UNL     1     -10.861  16.052  64.653  1.00  0.00    -0.179 C  
HETATM   29  O   UNL     1     -11.738  16.482  63.615  1.00  0.00    -1.415 OA 
HETATM   30  H   UNL     1     -11.563  17.383  63.367  1.00  0.00     0.000 HD 
ENDBRANCH  27  28
ENDBRANCH  26  27
ENDBRANCH  14  26
ENDBRANCH   7  11
BRANCH   9  31
HETATM   31  N   UNL     1      -6.539  18.673  68.810  1.00  0.00    -0.255 NA 
HETATM   32  C   UNL     1      -5.871  18.637  70.120  1.00  0.00    -0.207 C  
HETATM   33  C   UNL     1      -5.127  20.575  68.925  1.00  0.00    -0.278 C  
HETATM   34  C   UNL     1      -5.519  20.110  70.323  1.00  0.00    -0.312 C  
HETATM   35  C   UNL     1      -5.645  19.484  67.969  1.00  0.00    -0.197 C  
ENDBRANCH   9  31
ENDBRANCH   2   5
TORSDOF 7
ENDMDL
MODEL       45
REMARK 921   NORMALIZED FREE ENERGY PREDICTED BY IDOCK:   -5.86 KCAL/MOL
REMARK 922        TOTAL FREE ENERGY PREDICTED BY IDOCK:   -9.73 KCAL/MOL
REMARK 923 INTER-LIGAND FREE ENERGY PREDICTED BY IDOCK:   -8.25 KCAL/MOL
REMARK 924 INTRA-LIGAND FREE ENERGY PREDICTED BY IDOCK:   -1.47 KCAL/MOL
REMARK 927      BINDING AFFINITY PREDICTED BY RF-SCORE:    0.00 PKD
ROOT
HETATM    1  C   UNL     1      -9.067   2.267  70.178  1.00  0.00    -0.175 C  
HETATM    2  C   UNL     1      -8.144   3.506  70.144  1.00  0.00    -0.057 C  
HETATM    3  C   UNL     1      -7.396   3.602  71.515  1.00  0.00    -0.043 C  
HETATM    4  C   UNL     1      -6.957   3.279  69.172  1.00  0.00    -0.041 C  
ENDROOT
BRANCH   2   5
HETATM    5  C   UNL     1      -8.994   4.792  69.910  1.00  0.00    -0.139 A  
HETATM    6  C   UNL     1      -8.704   5.524  68.709  1.00  0.00    -0.102 A  
HETATM    7  C   UNL     1      -9.574   6.441  68.094  1.00  0.00    -0.115 A  
HETATM    8  C   UNL     1     -10.809   6.550  68.723  1.00  0.00    -0.357 A  
HETATM    9  C   UNL     1     -10.066   5.242  70.708  1.00  0.00    -0.224 A  
HETATM   10  C   UNL     1     -11.013   6.038  70.028  1.00  0.00    -0.450 A  
BRANCH   7  11
HETATM   11  C   UNL     1      -9.183   7.206  66.848  1.00  0.00    -0.174 A  
HETATM   12  C   UNL     1      -9.635   8.561  66.718  1.00  0.00    -0.273 A  
HETATM   13  C   UNL     1      -9.432   9.380  65.578  1.00  0.00    -0.328 A  
HETATM   14  C   UNL     1      -8.481   6.684  65.734  1.00  0.00    -0.148 A  
HETATM   15  C   UNL     1      -8.633   8.842  64.567  1.00  0.00    -0.155 A  
HETATM   16  C   UNL     1      -8.162   7.525  64.647  1.00  0.00    -0.052 A  
BRANCH  13  17
HETATM   17  C   UNL     1     -10.108  10.706  65.424  1.00  0.00    -0.356 A  
HETATM   18  C   UNL     1     -10.719  11.377  66.501  1.00  0.00    -0.325 A  
HETATM   19  C   UNL     1     -11.586  13.122  65.047  1.00  0.00    -0.354 A  
HETATM   20  C   UNL     1     -10.221  11.323  64.158  1.00  0.00    -0.391 A  
HETATM   21  C   UNL     1     -11.447  12.567  66.322  1.00  0.00    -0.421 A  
HETATM   22  O   UNL     1     -12.087  15.163  63.929  1.00  0.00    -0.507 OA 
HETATM   23  C   UNL     1     -10.943  12.512  63.970  1.00  0.00    -0.443 A  
HETATM   24  C   UNL     1     -12.376  14.354  64.794  1.00  0.00    -0.414 C  
HETATM   25  O   UNL     1     -13.475  14.465  65.572  1.00  0.00    -0.475 OA 
ENDBRANCH  13  17
BRANCH  14  26
HETATM   26  O   UNL     1      -7.977   5.413  65.545  1.00  0.00    -0.101 OA 
BRANCH  26  27
HETATM   27  C   UNL     1      -8.667   4.565  64.628  1.00  0.00    -0.147 C  
BRANCH  27  28
HETATM   28  C   UNL     1      -9.950   4.013  65.243  1.00  0.00    -0.189 C  
HETATM   29  O   UNL     1     -11.100   4.473  64.538  1.00  0.00    -0.539 OA 
HETATM   30  H   UNL     1     -11.899   4.129  64.921  1.00  0.00     0.000 HD 
ENDBRANCH  27  28
ENDBRANCH  26  27
ENDBRANCH  14  26
ENDBRANCH   7  11
BRANCH   9  31
HETATM   31  N   UNL     1     -10.231   4.919  72.050  1.00  0.00    -0.195 NA 
HETATM   32  C   UNL     1     -10.475   5.964  73.055  1.00  0.00    -0.222 C  
HETATM   33  C   UNL     1     -10.887   3.824  74.048  1.00  0.00    -0.270 C  
HETATM   34  C   UNL     1     -10.278   5.188  74.356  1.00  0.00    -0.301 C  
HETATM   35  C   UNL     1     -11.028   3.774  72.515  1.00  0.00     0.230 C  
ENDBRANCH   9  31
ENDBRANCH   2   5
TORSDOF 7
ENDMDL
MODEL       46
REMARK 921   NORMALIZED FREE ENERGY PREDICTED BY IDOCK:   -5.83 KCAL/MOL
REMARK 922        TOTAL FREE ENERGY PREDICTED BY IDOCK:   -9.69 KCAL/MOL
REMARK 923 INTER-LIGAND FREE ENERGY PREDICTED BY IDOCK:   -8.53 KCAL/MOL
REMARK 924 INTRA-LIGAND FREE ENERGY PREDICTED BY IDOCK:   -1.16 KCAL/MOL
REMARK 927      BINDING AFFINITY PREDICTED BY RF-SCORE:    0.00 PKD
ROOT
HETATM    1  C   UNL     1     -12.523  14.072  65.687  1.00  0.00    -0.531 C  
HETATM    2  C   UNL     1     -11.047  14.500  65.523  1.00  0.00    -0.339 C  
HETATM    3  C   UNL     1     -10.426  13.686  64.340  1.00  0.00    -0.322 C  
HETATM    4  C   UNL     1     -10.953  15.947  64.972  1.00  0.00    -0.426 C  
ENDROOT
BRANCH   2   5
HETATM    5  C   UNL     1     -10.263  14.208  66.840  1.00  0.00    -0.267 A  
HETATM    6  C   UNL     1     -10.703  13.065  67.590  1.00  0.00    -0.239 A  
HETATM    7  C   UNL     1      -9.930  12.383  68.546  1.00  0.00    -0.175 A  
HETATM    8  C   UNL     1      -8.638  12.878  68.679  1.00  0.00     0.053 A  
HETATM    9  C   UNL     1      -9.124  14.898  67.303  1.00  0.00    -0.201 A  
HETATM   10  C   UNL     1      -8.279  14.140  68.143  1.00  0.00    -0.149 A  
BRANCH   7  11
HETATM   11  C   UNL     1     -10.476  11.207  69.327  1.00  0.00    -0.183 A  
HETATM   12  C   UNL     1      -9.952   9.904  69.037  1.00  0.00    -0.193 A  
HETATM   13  C   UNL     1     -10.418   8.694  69.612  1.00  0.00    -0.220 A  
HETATM   14  C   UNL     1     -11.535  11.247  70.265  1.00  0.00    -0.193 A  
HETATM   15  C   UNL     1     -11.382   8.819  70.614  1.00  0.00    -0.289 A  
HETATM   16  C   UNL     1     -11.923  10.069  70.939  1.00  0.00    -0.453 A  
BRANCH  13  17
HETATM   17  C   UNL     1      -9.973   7.355  69.113  1.00  0.00    -0.173 A  
HETATM   18  C   UNL     1     -10.863   6.421  68.548  1.00  0.00    -0.382 A  
HETATM   19  C   UNL     1      -9.130   4.725  68.383  1.00  0.00    -0.148 A  
HETATM   20  C   UNL     1      -8.630   6.937  69.246  1.00  0.00    -0.132 A  
HETATM   21  C   UNL     1     -10.455   5.125  68.187  1.00  0.00    -0.083 A  
HETATM   22  O   UNL     1      -7.523   3.124  67.662  1.00  0.00    -0.060 OA 
HETATM   23  C   UNL     1      -8.212   5.647  68.884  1.00  0.00    -0.100 A  
HETATM   24  C   UNL     1      -8.652   3.357  68.056  1.00  0.00    -0.095 C  
HETATM   25  O   UNL     1      -9.566   2.391  68.292  1.00  0.00    -0.206 OA 
ENDBRANCH  13  17
BRANCH  14  26
HETATM   26  O   UNL     1     -12.267  12.334  70.700  1.00  0.00    -0.371 OA 
BRANCH  26  27
HETATM   27  C   UNL     1     -13.144  12.132  71.808  1.00  0.00    -0.352 C  
BRANCH  27  28
HETATM   28  C   UNL     1     -13.565  13.461  72.428  1.00  0.00    -0.606 C  
HETATM   29  O   UNL     1     -14.069  14.356  71.440  1.00  0.00    -0.373 OA 
HETATM   30  H   UNL     1     -14.332  15.183  71.827  1.00  0.00     0.000 HD 
ENDBRANCH  27  28
ENDBRANCH  26  27
ENDBRANCH  14  26
ENDBRANCH   7  11
BRANCH   9  31
HETATM   31  N   UNL     1      -8.806  16.205  66.955  1.00  0.00    -0.196 NA 
HETATM   32  C   UNL     1      -9.428  17.345  67.646  1.00  0.00    -0.251 C  
HETATM   33  C   UNL     1      -7.602  18.146  66.318  1.00  0.00    -0.299 C  
HETATM   34  C   UNL     1      -9.023  18.507  66.741  1.00  0.00    -0.293 C  
HETATM   35  C   UNL     1      -7.436  16.656  66.671  1.00  0.00    -0.276 C  
ENDBRANCH   9  31
ENDBRANCH   2   5
TORSDOF 7
ENDMDL
MODEL       47
REMARK 921   NORMALIZED FREE ENERGY PREDICTED BY IDOCK:   -5.74 KCAL/MOL
REMARK 922        TOTAL FREE ENERGY PREDICTED BY IDOCK:   -9.56 KCAL/MOL
REMARK 923 INTER-LIGAND FREE ENERGY PREDICTED BY IDOCK:   -8.04 KCAL/MOL
REMARK 924 INTRA-LIGAND FREE ENERGY PREDICTED BY IDOCK:   -1.52 KCAL/MOL
REMARK 927      BINDING AFFINITY PREDICTED BY RF-SCORE:    0.00 PKD
ROOT
HETATM    1  C   UNL     1      -6.463   8.054  70.867  1.00  0.00    -0.037 C  
HETATM    2  C   UNL     1      -7.640   7.262  71.480  1.00  0.00    -0.086 C  
HETATM    3  C   UNL     1      -7.056   6.162  72.426  1.00  0.00    -0.084 C  
HETATM    4  C   UNL     1      -8.425   8.139  72.490  1.00  0.00    -0.244 C  
ENDROOT
BRANCH   2   5
HETATM    5  C   UNL     1      -8.477   6.597  70.344  1.00  0.00    -0.135 A  
HETATM    6  C   UNL     1      -8.355   7.196  69.044  1.00  0.00    -0.126 A  
HETATM    7  C   UNL     1      -8.668   6.558  67.831  1.00  0.00    -0.116 A  
HETATM    8  C   UNL     1      -9.064   5.234  67.980  1.00  0.00    -0.118 A  
HETATM    9  C   UNL     1      -9.256   5.427  70.456  1.00  0.00    -0.147 A  
HETATM   10  C   UNL     1      -9.429   4.717  69.247  1.00  0.00    -0.221 A  
BRANCH   7  11
HETATM   11  C   UNL     1      -8.550   7.267  66.499  1.00  0.00    -0.134 A  
HETATM   12  C   UNL     1      -9.130   8.574  66.378  1.00  0.00    -0.229 A  
HETATM   13  C   UNL     1      -9.185   9.331  65.180  1.00  0.00    -0.264 A  
HETATM   14  C   UNL     1      -7.999   6.728  65.312  1.00  0.00    -0.127 A  
HETATM   15  C   UNL     1      -8.520   8.790  64.077  1.00  0.00    -0.121 A  
HETATM   16  C   UNL     1      -7.933   7.519  64.145  1.00  0.00    -0.098 A  
BRANCH  13  17
HETATM   17  C   UNL     1      -9.986  10.590  65.073  1.00  0.00    -0.388 A  
HETATM   18  C   UNL     1     -10.540  11.235  66.195  1.00  0.00    -0.312 A  
HETATM   19  C   UNL     1     -11.699  12.862  64.809  1.00  0.00    -0.391 A  
HETATM   20  C   UNL     1     -10.280  11.162  63.815  1.00  0.00    -0.434 A  
HETATM   21  C   UNL     1     -11.384  12.354  66.073  1.00  0.00    -0.397 A  
HETATM   22  O   UNL     1     -12.486  14.823  63.714  1.00  0.00    -0.782 OA 
HETATM   23  C   UNL     1     -11.117  12.281  63.683  1.00  0.00    -0.537 A  
HETATM   24  C   UNL     1     -12.614  14.016  64.618  1.00  0.00    -0.248 C  
HETATM   25  O   UNL     1     -13.634  14.053  65.503  1.00  0.00    -0.596 OA 
ENDBRANCH  13  17
BRANCH  14  26
HETATM   26  O   UNL     1      -7.428   5.489  65.106  1.00  0.00    -0.070 OA 
BRANCH  26  27
HETATM   27  C   UNL     1      -7.566   4.912  63.808  1.00  0.00    -0.066 C  
BRANCH  27  28
HETATM   28  C   UNL     1      -8.610   3.799  63.806  1.00  0.00    -0.093 C  
HETATM   29  O   UNL     1      -9.910   4.309  64.093  1.00  0.00    -0.263 OA 
HETATM   30  H   UNL     1     -10.560   3.616  64.092  1.00  0.00     0.000 HD 
ENDBRANCH  27  28
ENDBRANCH  26  27
ENDBRANCH  14  26
ENDBRANCH   7  11
BRANCH   9  31
HETATM   31  N   UNL     1      -9.796   4.958  71.647  1.00  0.00    -0.176 NA 
HETATM   32  C   UNL     1     -11.092   5.452  72.137  1.00  0.00    -0.168 C  
HETATM   33  C   UNL     1     -10.457   3.534  73.424  1.00  0.00    -0.264 C  
HETATM   34  C   UNL     1     -11.105   4.908  73.564  1.00  0.00    -0.405 C  
HETATM   35  C   UNL     1      -9.774   3.542  72.044  1.00  0.00    -0.162 C  
ENDBRANCH   9  31
ENDBRANCH   2   5
TORSDOF 7
ENDMDL
MODEL       48
REMARK 921   NORMALIZED FREE ENERGY PREDICTED BY IDOCK:   -5.65 KCAL/MOL
REMARK 922        TOTAL FREE ENERGY PREDICTED BY IDOCK:   -9.43 KCAL/MOL
REMARK 923 INTER-LIGAND FREE ENERGY PREDICTED BY IDOCK:   -7.93 KCAL/MOL
REMARK 924 INTRA-LIGAND FREE ENERGY PREDICTED BY IDOCK:   -1.50 KCAL/MOL
REMARK 927      BINDING AFFINITY PREDICTED BY RF-SCORE:    0.00 PKD
ROOT
HETATM    1  C   UNL     1      -7.044  16.664  66.508  1.00  0.00    -0.212 C  
HETATM    2  C   UNL     1      -7.306  15.653  67.647  1.00  0.00    -0.190 C  
HETATM    3  C   UNL     1      -6.343  14.435  67.456  1.00  0.00    -0.029 C  
HETATM    4  C   UNL     1      -6.810  16.215  69.005  1.00  0.00    -0.176 C  
ENDROOT
BRANCH   2   5
HETATM    5  C   UNL     1      -8.789  15.173  67.597  1.00  0.00    -0.178 A  
HETATM    6  C   UNL     1      -8.984  13.764  67.402  1.00  0.00    -0.224 A  
HETATM    7  C   UNL     1     -10.159  13.061  67.723  1.00  0.00    -0.229 A  
HETATM    8  C   UNL     1     -11.137  13.848  68.319  1.00  0.00    -0.280 A  
HETATM    9  C   UNL     1      -9.932  15.969  67.814  1.00  0.00    -0.234 A  
HETATM   10  C   UNL     1     -11.060  15.262  68.285  1.00  0.00    -0.301 A  
BRANCH   7  11
HETATM   11  C   UNL     1     -10.306  11.579  67.453  1.00  0.00    -0.235 A  
HETATM   12  C   UNL     1     -10.398  10.694  68.578  1.00  0.00    -0.202 A  
HETATM   13  C   UNL     1     -10.448   9.279  68.498  1.00  0.00    -0.240 A  
HETATM   14  C   UNL     1     -10.268  10.954  66.183  1.00  0.00    -0.249 A  
HETATM   15  C   UNL     1     -10.525   8.737  67.213  1.00  0.00    -0.353 A  
HETATM   16  C   UNL     1     -10.444   9.557  66.081  1.00  0.00    -0.077 A  
BRANCH  13  17
HETATM   17  C   UNL     1     -10.332   8.411  69.711  1.00  0.00    -0.216 A  
HETATM   18  C   UNL     1      -9.111   8.202  70.382  1.00  0.00    -0.150 A  
HETATM   19  C   UNL     1     -10.104   6.568  71.882  1.00  0.00    -0.200 A  
HETATM   20  C   UNL     1     -11.447   7.699  70.207  1.00  0.00    -0.144 A  
HETATM   21  C   UNL     1      -8.992   7.297  71.451  1.00  0.00    -0.139 A  
HETATM   22  O   UNL     1     -10.950   5.356  73.748  1.00  0.00    -0.283 OA 
HETATM   23  C   UNL     1     -11.339   6.796  71.276  1.00  0.00    -0.333 A  
HETATM   24  C   UNL     1     -10.029   5.570  72.980  1.00  0.00    -0.176 C  
HETATM   25  O   UNL     1      -8.866   4.883  73.011  1.00  0.00    -0.113 OA 
ENDBRANCH  13  17
BRANCH  14  26
HETATM   26  O   UNL     1     -10.129  11.531  64.937  1.00  0.00    -0.243 OA 
BRANCH  26  27
HETATM   27  C   UNL     1      -9.617  10.710  63.888  1.00  0.00    -0.306 C  
BRANCH  27  28
HETATM   28  C   UNL     1      -8.091  10.712  63.880  1.00  0.00     0.052 C  
HETATM   29  O   UNL     1      -7.581  11.211  62.647  1.00  0.00    -0.394 OA 
HETATM   30  H   UNL     1      -6.630  11.212  62.642  1.00  0.00     0.000 HD 
ENDBRANCH  27  28
ENDBRANCH  26  27
ENDBRANCH  14  26
ENDBRANCH   7  11
BRANCH   9  31
HETATM   31  N   UNL     1      -9.974  17.345  67.627  1.00  0.00    -0.289 NA 
HETATM   32  C   UNL     1     -10.713  17.933  66.500  1.00  0.00    -0.116 C  
HETATM   33  C   UNL     1     -10.112  19.678  68.026  1.00  0.00    -0.555 C  
HETATM   34  C   UNL     1     -10.222  19.379  66.535  1.00  0.00    -0.544 C  
HETATM   35  C   UNL     1     -10.160  18.306  68.724  1.00  0.00    -0.370 C  
ENDBRANCH   9  31
ENDBRANCH   2   5
TORSDOF 7
ENDMDL
MODEL       49
REMARK 921   NORMALIZED FREE ENERGY PREDICTED BY IDOCK:   -5.64 KCAL/MOL
REMARK 922        TOTAL FREE ENERGY PREDICTED BY IDOCK:   -9.41 KCAL/MOL
REMARK 923 INTER-LIGAND FREE ENERGY PREDICTED BY IDOCK:   -7.68 KCAL/MOL
REMARK 924 INTRA-LIGAND FREE ENERGY PREDICTED BY IDOCK:   -1.73 KCAL/MOL
REMARK 927      BINDING AFFINITY PREDICTED BY RF-SCORE:    0.00 PKD
ROOT
HETATM    1  C   UNL     1      -9.966  13.848  69.312  1.00  0.00     0.235 C  
HETATM    2  C   UNL     1     -11.158  13.223  68.552  1.00  0.00    -0.294 C  
HETATM    3  C   UNL     1     -11.779  12.100  69.445  1.00  0.00    -0.391 C  
HETATM    4  C   UNL     1     -12.340  14.224  68.466  1.00  0.00    -0.034 C  
ENDROOT
BRANCH   2   5
HETATM    5  C   UNL     1     -10.665  12.618  67.201  1.00  0.00    -0.264 A  
HETATM    6  C   UNL     1     -10.263  11.241  67.243  1.00  0.00    -0.226 A  
HETATM    7  C   UNL     1     -10.180  10.391  66.125  1.00  0.00    -0.288 A  
HETATM    8  C   UNL     1     -10.587  10.987  64.938  1.00  0.00    -0.328 A  
HETATM    9  C   UNL     1     -10.667  13.263  65.947  1.00  0.00    -0.275 A  
HETATM   10  C   UNL     1     -10.739  12.392  64.838  1.00  0.00    -0.328 A  
BRANCH   7  11
HETATM   11  C   UNL     1      -9.709   8.958  66.241  1.00  0.00    -0.345 A  
HETATM   12  C   UNL     1     -10.162   8.188  67.364  1.00  0.00    -0.327 A  
HETATM   13  C   UNL     1      -9.744   6.867  67.666  1.00  0.00    -0.151 A  
HETATM   14  C   UNL     1      -8.778   8.313  65.392  1.00  0.00    -0.113 A  
HETATM   15  C   UNL     1      -8.916   6.252  66.724  1.00  0.00    -0.128 A  
HETATM   16  C   UNL     1      -8.450   6.957  65.607  1.00  0.00    -0.141 A  
BRANCH  13  17
HETATM   17  C   UNL     1     -10.091   6.201  68.960  1.00  0.00    -0.213 A  
HETATM   18  C   UNL     1     -11.097   6.686  69.818  1.00  0.00    -0.398 A  
HETATM   19  C   UNL     1     -10.568   5.040  71.526  1.00  0.00    -0.175 A  
HETATM   20  C   UNL     1      -9.369   5.075  69.417  1.00  0.00    -0.179 A  
HETATM   21  C   UNL     1     -11.337   6.119  71.082  1.00  0.00    -0.340 A  
HETATM   22  O   UNL     1     -10.577   3.240  73.084  1.00  0.00    -0.156 OA 
HETATM   23  C   UNL     1      -9.605   4.500  70.675  1.00  0.00    -0.260 A  
HETATM   24  C   UNL     1     -10.752   4.426  72.867  1.00  0.00    -0.186 C  
HETATM   25  O   UNL     1     -11.074   5.314  73.832  1.00  0.00    -0.231 OA 
ENDBRANCH  13  17
BRANCH  14  26
HETATM   26  O   UNL     1      -8.131   8.811  64.278  1.00  0.00    -0.142 OA 
BRANCH  26  27
HETATM   27  C   UNL     1      -6.705   8.777  64.280  1.00  0.00    -0.075 C  
BRANCH  27  28
HETATM   28  C   UNL     1      -6.119  10.142  63.927  1.00  0.00    -0.137 C  
HETATM   29  O   UNL     1      -6.043  10.983  65.075  1.00  0.00    -0.366 OA 
HETATM   30  H   UNL     1      -5.679  11.833  64.856  1.00  0.00     0.000 HD 
ENDBRANCH  27  28
ENDBRANCH  26  27
ENDBRANCH  14  26
ENDBRANCH   7  11
BRANCH   9  31
HETATM   31  N   UNL     1     -10.637  14.641  65.777  1.00  0.00    -0.304 NA 
HETATM   32  C   UNL     1      -9.393  15.401  65.968  1.00  0.00    -0.329 C  
HETATM   33  C   UNL     1     -11.017  16.824  64.931  1.00  0.00    -0.099 C  
HETATM   34  C   UNL     1      -9.912  16.838  65.982  1.00  0.00    -0.334 C  
HETATM   35  C   UNL     1     -11.321  15.336  64.676  1.00  0.00    -0.358 C  
ENDBRANCH   9  31
ENDBRANCH   2   5
TORSDOF 7
ENDMDL
MODEL       50
REMARK 921   NORMALIZED FREE ENERGY PREDICTED BY IDOCK:   -5.50 KCAL/MOL
REMARK 922        TOTAL FREE ENERGY PREDICTED BY IDOCK:   -9.22 KCAL/MOL
REMARK 923 INTER-LIGAND FREE ENERGY PREDICTED BY IDOCK:   -7.90 KCAL/MOL
REMARK 924 INTRA-LIGAND FREE ENERGY PREDICTED BY IDOCK:   -1.32 KCAL/MOL
REMARK 927      BINDING AFFINITY PREDICTED BY RF-SCORE:    0.00 PKD
ROOT
HETATM    1  C   UNL     1      -8.571   5.346  71.565  1.00  0.00    -0.131 C  
HETATM    2  C   UNL     1      -9.583   5.610  70.426  1.00  0.00    -0.217 C  
HETATM    3  C   UNL     1      -9.748   4.294  69.597  1.00  0.00    -0.284 C  
HETATM    4  C   UNL     1     -11.015   5.786  70.995  1.00  0.00    -0.300 C  
ENDROOT
BRANCH   2   5
HETATM    5  C   UNL     1      -9.057   6.756  69.508  1.00  0.00    -0.141 A  
HETATM    6  C   UNL     1      -9.838   7.961  69.502  1.00  0.00    -0.176 A  
HETATM    7  C   UNL     1      -9.369   9.224  69.099  1.00  0.00    -0.157 A  
HETATM    8  C   UNL     1      -8.025   9.235  68.747  1.00  0.00    -0.099 A  
HETATM    9  C   UNL     1      -7.857   6.750  68.768  1.00  0.00    -0.111 A  
HETATM   10  C   UNL     1      -7.321   8.029  68.506  1.00  0.00    -0.097 A  
BRANCH   7  11
HETATM   11  C   UNL     1     -10.264  10.444  69.084  1.00  0.00    -0.239 A  
HETATM   12  C   UNL     1      -9.748  11.652  68.505  1.00  0.00    -0.187 A  
HETATM   13  C   UNL     1     -10.421  12.900  68.494  1.00  0.00    -0.260 A  
HETATM   14  C   UNL     1     -11.546  10.547  69.675  1.00  0.00    -0.271 A  
HETATM   15  C   UNL     1     -11.727  12.900  68.988  1.00  0.00    -0.375 A  
HETATM   16  C   UNL     1     -12.280  11.747  69.559  1.00  0.00    -0.232 A  
BRANCH  13  17
HETATM   17  C   UNL     1      -9.744  14.163  68.064  1.00  0.00    -0.226 A  
HETATM   18  C   UNL     1     -10.387  15.416  68.090  1.00  0.00    -0.239 A  
HETATM   19  C   UNL     1      -8.501  16.514  67.021  1.00  0.00    -0.225 A  
HETATM   20  C   UNL     1      -8.431  14.145  67.543  1.00  0.00    -0.194 A  
HETATM   21  C   UNL     1      -9.781  16.577  67.579  1.00  0.00    -0.242 A  
HETATM   22  O   UNL     1      -6.621  17.866  66.470  1.00  0.00    -0.177 OA 
HETATM   23  C   UNL     1      -7.816  15.300  67.034  1.00  0.00    -0.224 A  
HETATM   24  C   UNL     1      -7.827  17.700  66.431  1.00  0.00    -0.283 C  
HETATM   25  O   UNL     1      -8.670  18.544  65.797  1.00  0.00    -0.429 OA 
ENDBRANCH  13  17
BRANCH  14  26
HETATM   26  O   UNL     1     -12.270   9.583  70.347  1.00  0.00    -0.110 OA 
BRANCH  26  27
HETATM   27  C   UNL     1     -12.629   9.859  71.701  1.00  0.00    -0.424 C  
BRANCH  27  28
HETATM   28  C   UNL     1     -13.907   9.124  72.095  1.00  0.00    -0.446 C  
HETATM   29  O   UNL     1     -13.934   8.847  73.492  1.00  0.00    -1.160 OA 
HETATM   30  H   UNL     1     -14.730   8.390  73.738  1.00  0.00     0.000 HD 
ENDBRANCH  27  28
ENDBRANCH  26  27
ENDBRANCH  14  26
ENDBRANCH   7  11
BRANCH   9  31
HETATM   31  N   UNL     1      -7.206   5.598  68.345  1.00  0.00    -0.073 NA 
HETATM   32  C   UNL     1      -7.181   5.221  66.924  1.00  0.00    -0.078 C  
HETATM   33  C   UNL     1      -5.613   3.856  68.114  1.00  0.00    -0.021 C  
HETATM   34  C   UNL     1      -6.650   3.791  66.997  1.00  0.00    -0.045 C  
HETATM   35  C   UNL     1      -5.892   5.177  68.855  1.00  0.00    -0.020 C  
ENDBRANCH   9  31
ENDBRANCH   2   5
TORSDOF 7
ENDMDL
MODEL       51
REMARK 921   NORMALIZED FREE ENERGY PREDICTED BY IDOCK:   -5.42 KCAL/MOL
REMARK 922        TOTAL FREE ENERGY PREDICTED BY IDOCK:   -9.11 KCAL/MOL
REMARK 923 INTER-LIGAND FREE ENERGY PREDICTED BY IDOCK:   -7.62 KCAL/MOL
REMARK 924 INTRA-LIGAND FREE ENERGY PREDICTED BY IDOCK:   -1.49 KCAL/MOL
REMARK 927      BINDING AFFINITY PREDICTED BY RF-SCORE:    0.00 PKD
ROOT
HETATM    1  C   UNL     1      -9.517   2.829  68.146  1.00  0.00    -0.217 C  
HETATM    2  C   UNL     1      -8.439   3.931  68.260  1.00  0.00    -0.107 C  
HETATM    3  C   UNL     1      -8.359   4.390  69.753  1.00  0.00    -0.075 C  
HETATM    4  C   UNL     1      -7.022   3.336  68.054  1.00  0.00    -0.050 C  
ENDROOT
BRANCH   2   5
HETATM    5  C   UNL     1      -8.821   5.140  67.352  1.00  0.00    -0.105 A  
HETATM    6  C   UNL     1      -9.382   6.277  68.026  1.00  0.00    -0.114 A  
HETATM    7  C   UNL     1      -9.418   7.584  67.508  1.00  0.00    -0.165 A  
HETATM    8  C   UNL     1      -8.796   7.714  66.272  1.00  0.00    -0.182 A  
HETATM    9  C   UNL     1      -8.584   5.251  65.966  1.00  0.00    -0.124 A  
HETATM   10  C   UNL     1      -8.470   6.576  65.493  1.00  0.00    -0.139 A  
BRANCH   7  11
HETATM   11  C   UNL     1     -10.062   8.727  68.262  1.00  0.00    -0.220 A  
HETATM   12  C   UNL     1     -10.400   9.913  67.529  1.00  0.00    -0.289 A  
HETATM   13  C   UNL     1     -10.923  11.101  68.100  1.00  0.00    -0.292 A  
HETATM   14  C   UNL     1     -10.285   8.785  69.659  1.00  0.00    -0.210 A  
HETATM   15  C   UNL     1     -11.227  11.048  69.462  1.00  0.00    -0.343 A  
HETATM   16  C   UNL     1     -10.922   9.912  70.223  1.00  0.00    -0.366 A  
BRANCH  13  17
HETATM   17  C   UNL     1     -11.056  12.368  67.315  1.00  0.00    -0.329 A  
HETATM   18  C   UNL     1     -12.276  12.786  66.750  1.00  0.00    -0.134 A  
HETATM   19  C   UNL     1     -11.223  14.670  65.631  1.00  0.00    -0.342 A  
HETATM   20  C   UNL     1      -9.932  13.181  67.047  1.00  0.00    -0.244 A  
HETATM   21  C   UNL     1     -12.366  13.918  65.921  1.00  0.00    -0.517 A  
HETATM   22  O   UNL     1     -10.526  16.819  64.882  1.00  0.00    -0.652 OA 
HETATM   23  C   UNL     1     -10.012  14.315  66.224  1.00  0.00    -0.319 A  
HETATM   24  C   UNL     1     -11.251  15.851  64.731  1.00  0.00    -0.355 C  
HETATM   25  O   UNL     1     -12.112  15.727  63.698  1.00  0.00    -0.566 OA 
ENDBRANCH  13  17
BRANCH  14  26
HETATM   26  O   UNL     1     -10.011   7.834  70.620  1.00  0.00    -0.186 OA 
BRANCH  26  27
HETATM   27  C   UNL     1      -8.731   7.888  71.249  1.00  0.00    -0.134 C  
BRANCH  27  28
HETATM   28  C   UNL     1      -8.863   8.104  72.754  1.00  0.00    -0.231 C  
HETATM   29  O   UNL     1      -8.116   7.133  73.483  1.00  0.00    -0.104 OA 
HETATM   30  H   UNL     1      -8.199   7.267  74.420  1.00  0.00     0.000 HD 
ENDBRANCH  27  28
ENDBRANCH  26  27
ENDBRANCH  14  26
ENDBRANCH   7  11
BRANCH   9  31
HETATM   31  N   UNL     1      -8.432   4.167  65.110  1.00  0.00    -0.112 NA 
HETATM   32  C   UNL     1      -9.602   3.445  64.588  1.00  0.00    -0.161 C  
HETATM   33  C   UNL     1      -7.657   2.746  63.377  1.00  0.00    -0.063 C  
HETATM   34  C   UNL     1      -8.949   2.204  63.982  1.00  0.00    -0.101 C  
HETATM   35  C   UNL     1      -7.465   4.140  64.002  1.00  0.00    -0.070 C  
ENDBRANCH   9  31
ENDBRANCH   2   5
TORSDOF 7
ENDMDL
MODEL       52
REMARK 921   NORMALIZED FREE ENERGY PREDICTED BY IDOCK:   -5.31 KCAL/MOL
REMARK 922        TOTAL FREE ENERGY PREDICTED BY IDOCK:   -8.95 KCAL/MOL
REMARK 923 INTER-LIGAND FREE ENERGY PREDICTED BY IDOCK:   -7.54 KCAL/MOL
REMARK 924 INTRA-LIGAND FREE ENERGY PREDICTED BY IDOCK:   -1.40 KCAL/MOL
REMARK 927      BINDING AFFINITY PREDICTED BY RF-SCORE:    0.00 PKD
ROOT
HETATM    1  C   UNL     1     -11.626  11.995  64.424  1.00  0.00    -0.411 C  
HETATM    2  C   UNL     1     -11.043  12.253  65.832  1.00  0.00    -0.360 C  
HETATM    3  C   UNL     1      -9.918  13.332  65.709  1.00  0.00    -0.261 C  
HETATM    4  C   UNL     1     -12.072  12.995  66.724  1.00  0.00    -0.366 C  
ENDROOT
BRANCH   2   5
HETATM    5  C   UNL     1     -10.453  10.930  66.410  1.00  0.00    -0.307 A  
HETATM    6  C   UNL     1     -10.800  10.632  67.771  1.00  0.00    -0.338 A  
HETATM    7  C   UNL     1     -10.739   9.356  68.358  1.00  0.00    -0.213 A  
HETATM    8  C   UNL     1     -10.358   8.352  67.475  1.00  0.00    -0.333 A  
HETATM    9  C   UNL     1      -9.699   9.972  65.701  1.00  0.00    -0.272 A  
HETATM   10  C   UNL     1      -9.776   8.662  66.221  1.00  0.00    -0.322 A  
BRANCH   7  11
HETATM   11  C   UNL     1     -11.085   9.125  69.813  1.00  0.00    -0.140 A  
HETATM   12  C   UNL     1     -10.512   7.986  70.470  1.00  0.00    -0.217 A  
HETATM   13  C   UNL     1     -10.805   7.580  71.797  1.00  0.00    -0.261 A  
HETATM   14  C   UNL     1     -12.006   9.877  70.581  1.00  0.00    -0.277 A  
HETATM   15  C   UNL     1     -11.629   8.432  72.534  1.00  0.00    -0.426 A  
HETATM   16  C   UNL     1     -12.211   9.560  71.941  1.00  0.00    -0.432 A  
BRANCH  13  17
HETATM   17  C   UNL     1     -10.336   6.271  72.348  1.00  0.00    -0.215 A  
HETATM   18  C   UNL     1      -8.985   5.871  72.312  1.00  0.00    -0.142 A  
HETATM   19  C   UNL     1      -9.512   3.671  73.199  1.00  0.00    -0.134 A  
HETATM   20  C   UNL     1     -11.250   5.334  72.879  1.00  0.00    -0.375 A  
HETATM   21  C   UNL     1      -8.573   4.593  72.730  1.00  0.00    -0.114 A  
HETATM   22  O   UNL     1      -9.712   1.693  74.509  1.00  0.00    -0.071 OA 
HETATM   23  C   UNL     1     -10.848   4.057  73.302  1.00  0.00    -0.301 A  
HETATM   24  C   UNL     1      -9.140   2.295  73.617  1.00  0.00    -0.079 C  
HETATM   25  O   UNL     1      -8.148   1.752  72.879  1.00  0.00    -0.050 OA 
ENDBRANCH  13  17
BRANCH  14  26
HETATM   26  O   UNL     1     -12.749  10.979  70.209  1.00  0.00    -0.270 OA 
BRANCH  26  27
HETATM   27  C   UNL     1     -12.627  12.153  71.011  1.00  0.00    -0.263 C  
BRANCH  27  28
HETATM   28  C   UNL     1     -12.109  13.331  70.191  1.00  0.00    -0.333 C  
HETATM   29  O   UNL     1     -13.117  14.325  70.021  1.00  0.00    -0.412 OA 
HETATM   30  H   UNL     1     -12.795  15.058  69.510  1.00  0.00     0.000 HD 
ENDBRANCH  27  28
ENDBRANCH  26  27
ENDBRANCH  14  26
ENDBRANCH   7  11
BRANCH   9  31
HETATM   31  N   UNL     1      -8.958  10.249  64.560  1.00  0.00    -0.200 NA 
HETATM   32  C   UNL     1      -7.524  10.563  64.646  1.00  0.00     0.049 C  
HETATM   33  C   UNL     1      -8.096  10.181  62.351  1.00  0.00    -0.162 C  
HETATM   34  C   UNL     1      -7.240  11.081  63.237  1.00  0.00     0.575 C  
HETATM   35  C   UNL     1      -9.089   9.492  63.306  1.00  0.00    -0.113 C  
ENDBRANCH   9  31
ENDBRANCH   2   5
TORSDOF 7
ENDMDL
MODEL       53
REMARK 921   NORMALIZED FREE ENERGY PREDICTED BY IDOCK:   -5.20 KCAL/MOL
REMARK 922        TOTAL FREE ENERGY PREDICTED BY IDOCK:   -8.79 KCAL/MOL
REMARK 923 INTER-LIGAND FREE ENERGY PREDICTED BY IDOCK:   -7.37 KCAL/MOL
REMARK 924 INTRA-LIGAND FREE ENERGY PREDICTED BY IDOCK:   -1.43 KCAL/MOL
REMARK 927      BINDING AFFINITY PREDICTED BY RF-SCORE:    0.00 PKD
ROOT
HETATM    1  C   UNL     1     -11.518  17.313  67.876  1.00  0.00     0.514 C  
HETATM    2  C   UNL     1     -10.036  17.742  67.773  1.00  0.00    -0.345 C  
HETATM    3  C   UNL     1      -9.792  18.334  66.346  1.00  0.00    -0.358 C  
HETATM    4  C   UNL     1      -9.761  18.982  68.662  1.00  0.00    -0.468 C  
ENDROOT
BRANCH   2   5
HETATM    5  C   UNL     1      -9.112  16.507  68.003  1.00  0.00    -0.209 A  
HETATM    6  C   UNL     1      -9.781  15.255  68.222  1.00  0.00    -0.210 A  
HETATM    7  C   UNL     1      -9.198  13.988  68.046  1.00  0.00    -0.201 A  
HETATM    8  C   UNL     1      -7.893  14.033  67.572  1.00  0.00    -0.197 A  
HETATM    9  C   UNL     1      -7.704  16.491  67.925  1.00  0.00    -0.153 A  
HETATM   10  C   UNL     1      -7.147  15.237  67.595  1.00  0.00    -0.206 A  
BRANCH   7  11
HETATM   11  C   UNL     1      -9.957  12.710  68.334  1.00  0.00    -0.210 A  
HETATM   12  C   UNL     1      -9.433  11.482  67.810  1.00  0.00    -0.168 A  
HETATM   13  C   UNL     1     -10.067  10.218  67.913  1.00  0.00    -0.200 A  
HETATM   14  C   UNL     1     -11.202  12.610  69.000  1.00  0.00    -0.269 A  
HETATM   15  C   UNL     1     -11.231  10.173  68.682  1.00  0.00    -0.223 A  
HETATM   16  C   UNL     1     -11.782  11.343  69.221  1.00  0.00    -0.404 A  
BRANCH  13  17
HETATM   17  C   UNL     1      -9.573   9.019  67.166  1.00  0.00    -0.218 A  
HETATM   18  C   UNL     1     -10.360   7.867  66.973  1.00  0.00    -0.411 A  
HETATM   19  C   UNL     1      -8.518   6.665  65.938  1.00  0.00    -0.145 A  
HETATM   20  C   UNL     1      -8.251   8.963  66.669  1.00  0.00    -0.111 A  
HETATM   21  C   UNL     1      -9.847   6.705  66.369  1.00  0.00    -0.101 A  
HETATM   22  O   UNL     1      -7.053   5.501  64.466  1.00  0.00    -0.048 OA 
HETATM   23  C   UNL     1      -7.732   7.810  66.061  1.00  0.00    -0.093 A  
HETATM   24  C   UNL     1      -7.912   5.453  65.329  1.00  0.00    -0.109 C  
HETATM   25  O   UNL     1      -8.360   4.295  65.862  1.00  0.00    -0.108 OA 
ENDBRANCH  13  17
BRANCH  14  26
HETATM   26  O   UNL     1     -11.971  13.614  69.555  1.00  0.00    -0.309 OA 
BRANCH  26  27
HETATM   27  C   UNL     1     -12.584  13.347  70.816  1.00  0.00    -0.294 C  
BRANCH  27  28
HETATM   28  C   UNL     1     -13.405  14.541  71.294  1.00  0.00    -0.365 C  
HETATM   29  O   UNL     1     -13.502  15.540  70.283  1.00  0.00    -0.752 OA 
HETATM   30  H   UNL     1     -14.013  16.284  70.580  1.00  0.00     0.000 HD 
ENDBRANCH  27  28
ENDBRANCH  26  27
ENDBRANCH  14  26
ENDBRANCH   7  11
BRANCH   9  31
HETATM   31  N   UNL     1      -6.898  17.607  68.114  1.00  0.00    -0.201 NA 
HETATM   32  C   UNL     1      -6.032  17.724  69.297  1.00  0.00    -0.226 C  
HETATM   33  C   UNL     1      -5.430  19.428  67.725  1.00  0.00    -0.182 C  
HETATM   34  C   UNL     1      -5.608  19.189  69.221  1.00  0.00    -0.224 C  
HETATM   35  C   UNL     1      -6.126  18.241  67.035  1.00  0.00    -0.160 C  
ENDBRANCH   9  31
ENDBRANCH   2   5
TORSDOF 7
ENDMDL
MODEL       54
REMARK 921   NORMALIZED FREE ENERGY PREDICTED BY IDOCK:   -5.17 KCAL/MOL
REMARK 922        TOTAL FREE ENERGY PREDICTED BY IDOCK:   -8.76 KCAL/MOL
REMARK 923 INTER-LIGAND FREE ENERGY PREDICTED BY IDOCK:   -7.35 KCAL/MOL
REMARK 924 INTRA-LIGAND FREE ENERGY PREDICTED BY IDOCK:   -1.41 KCAL/MOL
REMARK 927      BINDING AFFINITY PREDICTED BY RF-SCORE:    0.00 PKD
ROOT
HETATM    1  C   UNL     1      -9.224   3.572  68.229  1.00  0.00    -0.225 C  
HETATM    2  C   UNL     1      -8.259   4.778  68.172  1.00  0.00    -0.088 C  
HETATM    3  C   UNL     1      -7.963   5.243  69.636  1.00  0.00    -0.084 C  
HETATM    4  C   UNL     1      -6.848   4.330  67.710  1.00  0.00    -0.052 C  
ENDROOT
BRANCH   2   5
HETATM    5  C   UNL     1      -8.914   5.942  67.366  1.00  0.00    -0.108 A  
HETATM    6  C   UNL     1      -9.513   6.986  68.150  1.00  0.00    -0.123 A  
HETATM    7  C   UNL     1      -9.786   8.285  67.687  1.00  0.00    -0.218 A  
HETATM    8  C   UNL     1      -9.366   8.515  66.382  1.00  0.00    -0.273 A  
HETATM    9  C   UNL     1      -8.891   6.105  65.966  1.00  0.00    -0.153 A  
HETATM   10  C   UNL     1      -9.013   7.441  65.527  1.00  0.00     0.075 A  
BRANCH   7  11
HETATM   11  C   UNL     1     -10.456   9.323  68.561  1.00  0.00    -0.240 A  
HETATM   12  C   UNL     1     -10.426  10.690  68.128  1.00  0.00    -0.215 A  
HETATM   13  C   UNL     1     -10.926  11.790  68.871  1.00  0.00    -0.288 A  
HETATM   14  C   UNL     1     -11.039   9.095  69.830  1.00  0.00    -0.159 A  
HETATM   15  C   UNL     1     -11.591  11.480  70.059  1.00  0.00    -0.364 A  
HETATM   16  C   UNL     1     -11.653  10.160  70.524  1.00  0.00    -0.411 A  
BRANCH  13  17
HETATM   17  C   UNL     1     -10.676  13.206  68.458  1.00  0.00    -0.277 A  
HETATM   18  C   UNL     1      -9.389  13.695  68.160  1.00  0.00    -0.212 A  
HETATM   19  C   UNL     1     -10.207  15.968  67.898  1.00  0.00    -0.258 A  
HETATM   20  C   UNL     1     -11.728  14.148  68.411  1.00  0.00    -0.380 A  
HETATM   21  C   UNL     1      -9.151  15.053  67.883  1.00  0.00    -0.180 A  
HETATM   22  O   UNL     1     -10.842  18.120  67.102  1.00  0.00    -0.333 OA 
HETATM   23  C   UNL     1     -11.502  15.505  68.132  1.00  0.00    -0.332 A  
HETATM   24  C   UNL     1     -10.010  17.420  67.651  1.00  0.00    -0.300 C  
HETATM   25  O   UNL     1      -8.848  17.902  68.144  1.00  0.00    -0.251 OA 
ENDBRANCH  13  17
BRANCH  14  26
HETATM   26  O   UNL     1     -11.161   7.910  70.528  1.00  0.00    -0.265 OA 
BRANCH  26  27
HETATM   27  C   UNL     1     -10.495   7.820  71.787  1.00  0.00    -0.216 C  
BRANCH  27  28
HETATM   28  C   UNL     1     -11.358   7.098  72.818  1.00  0.00    -0.245 C  
HETATM   29  O   UNL     1     -10.737   7.093  74.100  1.00  0.00    -0.555 OA 
HETATM   30  H   UNL     1     -11.274   6.644  74.742  1.00  0.00     0.000 HD 
ENDBRANCH  27  28
ENDBRANCH  26  27
ENDBRANCH  14  26
ENDBRANCH   7  11
BRANCH   9  31
HETATM   31  N   UNL     1      -8.726   5.064  65.061  1.00  0.00    -0.149 NA 
HETATM   32  C   UNL     1      -9.829   4.139  64.762  1.00  0.00    -0.188 C  
HETATM   33  C   UNL     1      -8.081   3.801  63.160  1.00  0.00    -0.080 C  
HETATM   34  C   UNL     1      -9.103   3.036  63.994  1.00  0.00    -0.104 C  
HETATM   35  C   UNL     1      -8.018   5.210  63.780  1.00  0.00    -0.102 C  
ENDBRANCH   9  31
ENDBRANCH   2   5
TORSDOF 7
ENDMDL
MODEL       55
REMARK 921   NORMALIZED FREE ENERGY PREDICTED BY IDOCK:   -5.16 KCAL/MOL
REMARK 922        TOTAL FREE ENERGY PREDICTED BY IDOCK:   -8.75 KCAL/MOL
REMARK 923 INTER-LIGAND FREE ENERGY PREDICTED BY IDOCK:   -7.08 KCAL/MOL
REMARK 924 INTRA-LIGAND FREE ENERGY PREDICTED BY IDOCK:   -1.66 KCAL/MOL
REMARK 927      BINDING AFFINITY PREDICTED BY RF-SCORE:    0.00 PKD
ROOT
HETATM    1  C   UNL     1     -10.063   7.062  66.406  1.00  0.00    -0.045 C  
HETATM    2  C   UNL     1      -9.175   6.453  67.515  1.00  0.00    -0.112 C  
HETATM    3  C   UNL     1      -9.882   5.171  68.066  1.00  0.00    -0.199 C  
HETATM    4  C   UNL     1      -7.882   5.845  66.911  1.00  0.00    -0.101 C  
ENDROOT
BRANCH   2   5
HETATM    5  C   UNL     1      -8.980   7.489  68.665  1.00  0.00    -0.132 A  
HETATM    6  C   UNL     1      -9.618   8.762  68.475  1.00  0.00    -0.158 A  
HETATM    7  C   UNL     1      -9.925   9.671  69.503  1.00  0.00    -0.223 A  
HETATM    8  C   UNL     1      -9.606   9.207  70.774  1.00  0.00    -0.338 A  
HETATM    9  C   UNL     1      -8.325   7.262  69.892  1.00  0.00    -0.135 A  
HETATM   10  C   UNL     1      -8.759   8.086  70.953  1.00  0.00    -0.143 A  
BRANCH   7  11
HETATM   11  C   UNL     1     -10.564  11.013  69.221  1.00  0.00    -0.236 A  
HETATM   12  C   UNL     1      -9.736  12.057  68.691  1.00  0.00    -0.104 A  
HETATM   13  C   UNL     1     -10.158  13.391  68.458  1.00  0.00    -0.208 A  
HETATM   14  C   UNL     1     -11.899  11.381  69.519  1.00  0.00    -0.357 A  
HETATM   15  C   UNL     1     -11.514  13.653  68.663  1.00  0.00    -0.342 A  
HETATM   16  C   UNL     1     -12.367  12.667  69.175  1.00  0.00     0.127 A  
BRANCH  13  17
HETATM   17  C   UNL     1      -9.193  14.478  68.104  1.00  0.00    -0.195 A  
HETATM   18  C   UNL     1      -8.297  15.033  69.038  1.00  0.00    -0.194 A  
HETATM   19  C   UNL     1      -7.528  16.707  67.452  1.00  0.00    -0.188 A  
HETATM   20  C   UNL     1      -9.182  15.050  66.812  1.00  0.00    -0.280 A  
HETATM   21  C   UNL     1      -7.474  16.129  68.724  1.00  0.00    -0.189 A  
HETATM   22  O   UNL     1      -6.280  18.069  65.951  1.00  0.00    -0.208 OA 
HETATM   23  C   UNL     1      -8.362  16.142  66.487  1.00  0.00    -0.352 A  
HETATM   24  C   UNL     1      -6.711  17.889  67.076  1.00  0.00    -0.176 C  
HETATM   25  O   UNL     1      -6.542  18.774  68.083  1.00  0.00    -0.215 OA 
ENDBRANCH  13  17
BRANCH  14  26
HETATM   26  O   UNL     1     -12.903  10.619  70.081  1.00  0.00    -0.276 OA 
BRANCH  26  27
HETATM   27  C   UNL     1     -12.944  10.540  71.506  1.00  0.00    -0.460 C  
BRANCH  27  28
HETATM   28  C   UNL     1     -13.344   9.142  71.970  1.00  0.00    -0.445 C  
HETATM   29  O   UNL     1     -13.735   9.145  73.341  1.00  0.00    -0.984 OA 
HETATM   30  H   UNL     1     -13.984   8.275  73.630  1.00  0.00     0.000 HD 
ENDBRANCH  27  28
ENDBRANCH  26  27
ENDBRANCH  14  26
ENDBRANCH   7  11
BRANCH   9  31
HETATM   31  N   UNL     1      -7.351   6.290  70.090  1.00  0.00    -0.083 NA 
HETATM   32  C   UNL     1      -5.921   6.632  70.050  1.00  0.00    -0.023 C  
HETATM   33  C   UNL     1      -6.163   4.418  70.930  1.00  0.00    -0.018 C  
HETATM   34  C   UNL     1      -5.278   5.247  70.006  1.00  0.00    -0.004 C  
HETATM   35  C   UNL     1      -7.446   5.248  71.123  1.00  0.00    -0.084 C  
ENDBRANCH   9  31
ENDBRANCH   2   5
TORSDOF 7
ENDMDL
MODEL       56
REMARK 921   NORMALIZED FREE ENERGY PREDICTED BY IDOCK:   -5.15 KCAL/MOL
REMARK 922        TOTAL FREE ENERGY PREDICTED BY IDOCK:   -8.72 KCAL/MOL
REMARK 923 INTER-LIGAND FREE ENERGY PREDICTED BY IDOCK:   -7.77 KCAL/MOL
REMARK 924 INTRA-LIGAND FREE ENERGY PREDICTED BY IDOCK:   -0.95 KCAL/MOL
REMARK 927      BINDING AFFINITY PREDICTED BY RF-SCORE:    0.00 PKD
ROOT
HETATM    1  C   UNL     1     -10.456  15.368  70.679  1.00  0.00    -0.055 C  
HETATM    2  C   UNL     1     -11.421  15.028  69.520  1.00  0.00    -0.317 C  
HETATM    3  C   UNL     1     -12.122  13.668  69.843  1.00  0.00    -0.406 C  
HETATM    4  C   UNL     1     -12.633  15.995  69.514  1.00  0.00     0.514 C  
ENDROOT
BRANCH   2   5
HETATM    5  C   UNL     1     -10.622  14.911  68.185  1.00  0.00    -0.244 A  
HETATM    6  C   UNL     1     -10.456  13.582  67.669  1.00  0.00    -0.239 A  
HETATM    7  C   UNL     1     -10.151  13.267  66.333  1.00  0.00    -0.290 A  
HETATM    8  C   UNL     1     -10.076  14.377  65.500  1.00  0.00    -0.382 A  
HETATM    9  C   UNL     1     -10.139  15.982  67.404  1.00  0.00    -0.258 A  
HETATM   10  C   UNL     1      -9.986  15.687  66.032  1.00  0.00    -0.359 A  
BRANCH   7  11
HETATM   11  C   UNL     1      -9.952  11.840  65.870  1.00  0.00    -0.266 A  
HETATM   12  C   UNL     1      -9.608  10.854  66.854  1.00  0.00    -0.203 A  
HETATM   13  C   UNL     1      -9.301   9.499  66.573  1.00  0.00    -0.220 A  
HETATM   14  C   UNL     1      -9.980  11.385  64.530  1.00  0.00    -0.271 A  
HETATM   15  C   UNL     1      -9.462   9.092  65.247  1.00  0.00    -0.093 A  
HETATM   16  C   UNL     1      -9.801  10.014  64.249  1.00  0.00    -0.152 A  
BRANCH  13  17
HETATM   17  C   UNL     1      -8.749   8.578  67.615  1.00  0.00    -0.136 A  
HETATM   18  C   UNL     1      -9.189   7.248  67.765  1.00  0.00    -0.127 A  
HETATM   19  C   UNL     1      -7.838   6.923  69.759  1.00  0.00    -0.115 A  
HETATM   20  C   UNL     1      -7.792   9.028  68.552  1.00  0.00    -0.102 A  
HETATM   21  C   UNL     1      -8.745   6.428  68.817  1.00  0.00    -0.122 A  
HETATM   22  O   UNL     1      -6.247   6.223  71.385  1.00  0.00    -0.038 OA 
HETATM   23  C   UNL     1      -7.339   8.216  69.604  1.00  0.00    -0.073 A  
HETATM   24  C   UNL     1      -7.365   6.116  70.913  1.00  0.00    -0.080 C  
HETATM   25  O   UNL     1      -8.307   5.295  71.425  1.00  0.00    -0.116 OA 
ENDBRANCH  13  17
BRANCH  14  26
HETATM   26  O   UNL     1     -10.221  12.103  63.376  1.00  0.00    -0.433 OA 
BRANCH  26  27
HETATM   27  C   UNL     1     -11.448  12.828  63.301  1.00  0.00    -0.251 C  
BRANCH  27  28
HETATM   28  C   UNL     1     -12.648  11.906  63.496  1.00  0.00    -0.459 C  
HETATM   29  O   UNL     1     -13.356  12.226  64.691  1.00  0.00    -0.717 OA 
HETATM   30  H   UNL     1     -14.103  11.651  64.813  1.00  0.00     0.000 HD 
ENDBRANCH  27  28
ENDBRANCH  26  27
ENDBRANCH  14  26
ENDBRANCH   7  11
BRANCH   9  31
HETATM   31  N   UNL     1      -9.859  17.248  67.903  1.00  0.00    -0.273 NA 
HETATM   32  C   UNL     1      -8.471  17.705  68.074  1.00  0.00    -0.244 C  
HETATM   33  C   UNL     1      -9.940  19.580  68.327  1.00  0.00    -0.533 C  
HETATM   34  C   UNL     1      -8.668  18.970  68.907  1.00  0.00    -0.288 C  
HETATM   35  C   UNL     1     -10.591  18.458  67.498  1.00  0.00    -0.416 C  
ENDBRANCH   9  31
ENDBRANCH   2   5
TORSDOF 7
ENDMDL
MODEL       57
REMARK 921   NORMALIZED FREE ENERGY PREDICTED BY IDOCK:   -5.13 KCAL/MOL
REMARK 922        TOTAL FREE ENERGY PREDICTED BY IDOCK:   -8.70 KCAL/MOL
REMARK 923 INTER-LIGAND FREE ENERGY PREDICTED BY IDOCK:   -7.06 KCAL/MOL
REMARK 924 INTRA-LIGAND FREE ENERGY PREDICTED BY IDOCK:   -1.64 KCAL/MOL
REMARK 927      BINDING AFFINITY PREDICTED BY RF-SCORE:    0.00 PKD
ROOT
HETATM    1  C   UNL     1     -11.870  15.063  67.516  1.00  0.00    -0.185 C  
HETATM    2  C   UNL     1     -10.740  14.934  66.469  1.00  0.00    -0.309 C  
HETATM    3  C   UNL     1     -10.828  13.514  65.820  1.00  0.00    -0.280 C  
HETATM    4  C   UNL     1     -11.023  15.841  65.242  1.00  0.00    -0.354 C  
ENDROOT
BRANCH   2   5
HETATM    5  C   UNL     1      -9.354  15.119  67.161  1.00  0.00    -0.223 A  
HETATM    6  C   UNL     1      -8.768  13.931  67.714  1.00  0.00    -0.187 A  
HETATM    7  C   UNL     1      -7.402  13.767  68.005  1.00  0.00    -0.134 A  
HETATM    8  C   UNL     1      -6.619  14.859  67.652  1.00  0.00    -0.189 A  
HETATM    9  C   UNL     1      -8.597  16.307  67.209  1.00  0.00    -0.179 A  
HETATM   10  C   UNL     1      -7.205  16.113  67.349  1.00  0.00    -0.213 A  
BRANCH   7  11
HETATM   11  C   UNL     1      -6.862  12.496  68.625  1.00  0.00    -0.088 A  
HETATM   12  C   UNL     1      -7.265  11.243  68.054  1.00  0.00    -0.079 A  
HETATM   13  C   UNL     1      -6.922   9.967  68.569  1.00  0.00    -0.066 A  
HETATM   14  C   UNL     1      -6.059  12.410  69.788  1.00  0.00    -0.137 A  
HETATM   15  C   UNL     1      -6.034   9.955  69.647  1.00  0.00    -0.041 A  
HETATM   16  C   UNL     1      -5.606  11.151  70.238  1.00  0.00    -0.115 A  
BRANCH  13  17
HETATM   17  C   UNL     1      -7.545   8.709  68.052  1.00  0.00    -0.098 A  
HETATM   18  C   UNL     1      -8.378   8.685  66.916  1.00  0.00    -0.108 A  
HETATM   19  C   UNL     1      -8.900   6.332  67.229  1.00  0.00    -0.107 A  
HETATM   20  C   UNL     1      -7.374   7.480  68.727  1.00  0.00    -0.095 A  
HETATM   21  C   UNL     1      -9.047   7.518  66.506  1.00  0.00    -0.201 A  
HETATM   22  O   UNL     1      -9.138   3.971  67.038  1.00  0.00    -0.127 OA 
HETATM   23  C   UNL     1      -8.035   6.309  68.323  1.00  0.00    -0.108 A  
HETATM   24  C   UNL     1      -9.612   5.080  66.865  1.00  0.00    -0.154 C  
HETATM   25  O   UNL     1     -10.856   5.285  66.379  1.00  0.00    -0.292 OA 
ENDBRANCH  13  17
BRANCH  14  26
HETATM   26  O   UNL     1      -5.569  13.428  70.580  1.00  0.00    -0.147 OA 
BRANCH  26  27
HETATM   27  C   UNL     1      -5.157  13.088  71.903  1.00  0.00    -0.100 C  
BRANCH  27  28
HETATM   28  C   UNL     1      -5.171  14.309  72.818  1.00  0.00    -0.234 C  
HETATM   29  O   UNL     1      -5.890  14.047  74.020  1.00  0.00    -0.553 OA 
HETATM   30  H   UNL     1      -5.899  14.808  74.590  1.00  0.00     0.000 HD 
ENDBRANCH  27  28
ENDBRANCH  26  27
ENDBRANCH  14  26
ENDBRANCH   7  11
BRANCH   9  31
HETATM   31  N   UNL     1      -9.135  17.583  67.096  1.00  0.00    -0.238 NA 
HETATM   32  C   UNL     1      -9.806  18.226  68.236  1.00  0.00    -0.350 C  
HETATM   33  C   UNL     1      -9.447  19.864  66.526  1.00  0.00    -0.516 C  
HETATM   34  C   UNL     1     -10.475  19.421  67.562  1.00  0.00    -0.577 C  
HETATM   35  C   UNL     1      -8.458  18.689  66.403  1.00  0.00    -0.272 C  
ENDBRANCH   9  31
ENDBRANCH   2   5
TORSDOF 7
ENDMDL
MODEL       58
REMARK 921   NORMALIZED FREE ENERGY PREDICTED BY IDOCK:   -5.08 KCAL/MOL
REMARK 922        TOTAL FREE ENERGY PREDICTED BY IDOCK:   -8.62 KCAL/MOL
REMARK 923 INTER-LIGAND FREE ENERGY PREDICTED BY IDOCK:   -7.18 KCAL/MOL
REMARK 924 INTRA-LIGAND FREE ENERGY PREDICTED BY IDOCK:   -1.44 KCAL/MOL
REMARK 927      BINDING AFFINITY PREDICTED BY RF-SCORE:    0.00 PKD
ROOT
HETATM    1  C   UNL     1      -8.073  12.746  68.038  1.00  0.00    -0.162 C  
HETATM    2  C   UNL     1      -8.410  11.349  67.468  1.00  0.00    -0.137 C  
HETATM    3  C   UNL     1      -8.864  11.519  65.981  1.00  0.00    -0.144 C  
HETATM    4  C   UNL     1      -7.123  10.502  67.292  1.00  0.00    -0.088 C  
ENDROOT
BRANCH   2   5
HETATM    5  C   UNL     1      -9.556  10.700  68.304  1.00  0.00    -0.167 A  
HETATM    6  C   UNL     1      -9.451   9.284  68.516  1.00  0.00    -0.150 A  
HETATM    7  C   UNL     1     -10.103   8.571  69.538  1.00  0.00    -0.200 A  
HETATM    8  C   UNL     1     -10.841   9.375  70.398  1.00  0.00    -0.321 A  
HETATM    9  C   UNL     1     -10.617  11.380  68.937  1.00  0.00    -0.202 A  
HETATM   10  C   UNL     1     -11.157  10.714  70.059  1.00  0.00    -0.359 A  
BRANCH   7  11
HETATM   11  C   UNL     1      -9.974   7.070  69.676  1.00  0.00    -0.177 A  
HETATM   12  C   UNL     1      -9.763   6.298  68.485  1.00  0.00    -0.137 A  
HETATM   13  C   UNL     1      -9.712   4.882  68.431  1.00  0.00    -0.212 A  
HETATM   14  C   UNL     1     -10.136   6.324  70.868  1.00  0.00    -0.189 A  
HETATM   15  C   UNL     1      -9.762   4.217  69.658  1.00  0.00    -0.269 A  
HETATM   16  C   UNL     1      -9.962   4.923  70.851  1.00  0.00    -0.287 A  
BRANCH  13  17
HETATM   17  C   UNL     1      -9.700   4.137  67.134  1.00  0.00    -0.224 A  
HETATM   18  C   UNL     1      -9.112   2.865  66.995  1.00  0.00    -0.188 A  
HETATM   19  C   UNL     1      -9.490   2.845  64.594  1.00  0.00    -0.149 A  
HETATM   20  C   UNL     1     -10.228   4.713  65.957  1.00  0.00    -0.306 A  
HETATM   21  C   UNL     1      -9.006   2.223  65.748  1.00  0.00    -0.117 A  
HETATM   22  O   UNL     1     -10.203   2.388  62.369  1.00  0.00    -0.094 OA 
HETATM   23  C   UNL     1     -10.131   4.079  64.709  1.00  0.00    -0.222 A  
HETATM   24  C   UNL     1      -9.371   2.233  63.246  1.00  0.00    -0.093 C  
HETATM   25  O   UNL     1      -8.228   1.537  63.065  1.00  0.00    -0.056 OA 
ENDBRANCH  13  17
BRANCH  14  26
HETATM   26  O   UNL     1     -10.403   6.777  72.144  1.00  0.00    -0.198 OA 
BRANCH  26  27
HETATM   27  C   UNL     1      -9.409   6.547  73.142  1.00  0.00    -0.134 C  
BRANCH  27  28
HETATM   28  C   UNL     1     -10.042   6.141  74.470  1.00  0.00    -0.329 C  
HETATM   29  O   UNL     1     -11.247   5.408  74.265  1.00  0.00    -0.308 OA 
HETATM   30  H   UNL     1     -11.641   5.155  75.092  1.00  0.00     0.000 HD 
ENDBRANCH  27  28
ENDBRANCH  26  27
ENDBRANCH  14  26
ENDBRANCH   7  11
BRANCH   9  31
HETATM   31  N   UNL     1     -11.095  12.623  68.541  1.00  0.00    -0.250 NA 
HETATM   32  C   UNL     1     -12.020  12.751  67.405  1.00  0.00    -0.272 C  
HETATM   33  C   UNL     1     -11.946  14.836  68.581  1.00  0.00    -0.292 C  
HETATM   34  C   UNL     1     -12.008  14.260  67.170  1.00  0.00    -0.449 C  
HETATM   35  C   UNL     1     -11.536  13.660  69.486  1.00  0.00    -0.301 C  
ENDBRANCH   9  31
ENDBRANCH   2   5
TORSDOF 7
ENDMDL
MODEL       59
REMARK 921   NORMALIZED FREE ENERGY PREDICTED BY IDOCK:   -5.07 KCAL/MOL
REMARK 922        TOTAL FREE ENERGY PREDICTED BY IDOCK:   -8.62 KCAL/MOL
REMARK 923 INTER-LIGAND FREE ENERGY PREDICTED BY IDOCK:   -7.10 KCAL/MOL
REMARK 924 INTRA-LIGAND FREE ENERGY PREDICTED BY IDOCK:   -1.52 KCAL/MOL
REMARK 927      BINDING AFFINITY PREDICTED BY RF-SCORE:    0.00 PKD
ROOT
HETATM    1  C   UNL     1     -12.113   6.827  70.152  1.00  0.00    -0.139 C  
HETATM    2  C   UNL     1     -10.977   7.232  71.118  1.00  0.00    -0.267 C  
HETATM    3  C   UNL     1     -11.383   8.567  71.825  1.00  0.00    -0.377 C  
HETATM    4  C   UNL     1     -10.911   6.262  72.326  1.00  0.00    -0.297 C  
ENDROOT
BRANCH   2   5
HETATM    5  C   UNL     1      -9.652   7.434  70.320  1.00  0.00    -0.165 A  
HETATM    6  C   UNL     1      -9.317   8.793  69.997  1.00  0.00    -0.175 A  
HETATM    7  C   UNL     1      -8.028   9.248  69.665  1.00  0.00    -0.096 A  
HETATM    8  C   UNL     1      -7.052   8.261  69.730  1.00  0.00    -0.056 A  
HETATM    9  C   UNL     1      -8.724   6.430  69.974  1.00  0.00    -0.142 A  
HETATM   10  C   UNL     1      -7.401   6.889  69.795  1.00  0.00    -0.085 A  
BRANCH   7  11
HETATM   11  C   UNL     1      -7.758  10.691  69.298  1.00  0.00    -0.142 A  
HETATM   12  C   UNL     1      -8.749  11.389  68.531  1.00  0.00    -0.149 A  
HETATM   13  C   UNL     1      -8.611  12.709  68.032  1.00  0.00    -0.189 A  
HETATM   14  C   UNL     1      -6.566  11.409  69.557  1.00  0.00    -0.129 A  
HETATM   15  C   UNL     1      -7.461  13.398  68.423  1.00  0.00    -0.117 A  
HETATM   16  C   UNL     1      -6.464  12.764  69.176  1.00  0.00    -0.109 A  
BRANCH  13  17
HETATM   17  C   UNL     1      -9.590  13.299  67.067  1.00  0.00    -0.243 A  
HETATM   18  C   UNL     1     -10.773  12.637  66.684  1.00  0.00    -0.275 A  
HETATM   19  C   UNL     1     -11.319  14.352  65.050  1.00  0.00    -0.373 A  
HETATM   20  C   UNL     1      -9.335  14.538  66.436  1.00  0.00    -0.300 A  
HETATM   21  C   UNL     1     -11.628  13.150  65.693  1.00  0.00    -0.371 A  
HETATM   22  O   UNL     1     -12.300  16.119  63.793  1.00  0.00    -0.864 OA 
HETATM   23  C   UNL     1     -10.185  15.060  65.449  1.00  0.00    -0.411 A  
HETATM   24  C   UNL     1     -12.164  14.921  63.970  1.00  0.00    -0.123 C  
HETATM   25  O   UNL     1     -12.721  13.988  63.167  1.00  0.00    -0.676 OA 
ENDBRANCH  13  17
BRANCH  14  26
HETATM   26  O   UNL     1      -5.426  10.989  70.212  1.00  0.00    -0.069 OA 
BRANCH  26  27
HETATM   27  C   UNL     1      -5.385  11.161  71.629  1.00  0.00     0.146 C  
BRANCH  27  28
HETATM   28  C   UNL     1      -5.191   9.825  72.342  1.00  0.00    -0.021 C  
HETATM   29  O   UNL     1      -6.436   9.291  72.786  1.00  0.00    -0.306 OA 
HETATM   30  H   UNL     1      -6.315   8.460  73.230  1.00  0.00     0.000 HD 
ENDBRANCH  27  28
ENDBRANCH  26  27
ENDBRANCH  14  26
ENDBRANCH   7  11
BRANCH   9  31
HETATM   31  N   UNL     1      -9.040   5.084  69.847  1.00  0.00    -0.115 NA 
HETATM   32  C   UNL     1      -8.789   4.363  68.590  1.00  0.00    -0.104 C  
HETATM   33  C   UNL     1      -9.316   2.773  70.302  1.00  0.00    -0.210 C  
HETATM   34  C   UNL     1      -9.558   3.064  68.825  1.00  0.00    -0.081 C  
HETATM   35  C   UNL     1      -8.776   4.087  70.896  1.00  0.00    -0.077 C  
ENDBRANCH   9  31
ENDBRANCH   2   5
TORSDOF 7
ENDMDL
MODEL       60
REMARK 921   NORMALIZED FREE ENERGY PREDICTED BY IDOCK:   -5.05 KCAL/MOL
REMARK 922        TOTAL FREE ENERGY PREDICTED BY IDOCK:   -8.59 KCAL/MOL
REMARK 923 INTER-LIGAND FREE ENERGY PREDICTED BY IDOCK:   -7.27 KCAL/MOL
REMARK 924 INTRA-LIGAND FREE ENERGY PREDICTED BY IDOCK:   -1.32 KCAL/MOL
REMARK 927      BINDING AFFINITY PREDICTED BY RF-SCORE:    0.00 PKD
ROOT
HETATM    1  C   UNL     1      -5.141  15.698  68.234  1.00  0.00    -0.105 C  
HETATM    2  C   UNL     1      -6.409  16.236  68.936  1.00  0.00    -0.139 C  
HETATM    3  C   UNL     1      -6.629  15.420  70.252  1.00  0.00     0.044 C  
HETATM    4  C   UNL     1      -6.161  17.657  69.504  1.00  0.00    -0.250 C  
ENDROOT
BRANCH   2   5
HETATM    5  C   UNL     1      -7.642  16.072  67.995  1.00  0.00    -0.137 A  
HETATM    6  C   UNL     1      -8.323  14.810  68.069  1.00  0.00    -0.143 A  
HETATM    7  C   UNL     1      -9.645  14.581  67.648  1.00  0.00    -0.214 A  
HETATM    8  C   UNL     1     -10.292  15.722  67.190  1.00  0.00    -0.291 A  
HETATM    9  C   UNL     1      -8.195  17.067  67.162  1.00  0.00    -0.191 A  
HETATM   10  C   UNL     1      -9.567  16.899  66.877  1.00  0.00    -0.262 A  
BRANCH   7  11
HETATM   11  C   UNL     1     -10.284  13.211  67.722  1.00  0.00    -0.231 A  
HETATM   12  C   UNL     1      -9.713  12.248  68.619  1.00  0.00    -0.074 A  
HETATM   13  C   UNL     1     -10.134  10.899  68.739  1.00  0.00    -0.205 A  
HETATM   14  C   UNL     1     -11.349  12.742  66.916  1.00  0.00    -0.321 A  
HETATM   15  C   UNL     1     -11.263  10.538  68.001  1.00  0.00    -0.361 A  
HETATM   16  C   UNL     1     -11.862  11.442  67.115  1.00  0.00     0.109 A  
BRANCH  13  17
HETATM   17  C   UNL     1      -9.363   9.895  69.537  1.00  0.00    -0.236 A  
HETATM   18  C   UNL     1      -9.931   8.688  69.991  1.00  0.00    -0.191 A  
HETATM   19  C   UNL     1      -7.933   8.110  71.250  1.00  0.00    -0.107 A  
HETATM   20  C   UNL     1      -8.030  10.146  69.932  1.00  0.00    -0.149 A  
HETATM   21  C   UNL     1      -9.232   7.805  70.833  1.00  0.00    -0.155 A  
HETATM   22  O   UNL     1      -5.952   7.112  72.113  1.00  0.00    -0.038 OA 
HETATM   23  C   UNL     1      -7.323   9.269  70.769  1.00  0.00    -0.134 A  
HETATM   24  C   UNL     1      -7.163   7.235  72.170  1.00  0.00    -0.068 C  
HETATM   25  O   UNL     1      -7.923   6.634  73.111  1.00  0.00    -0.104 OA 
ENDBRANCH  13  17
BRANCH  14  26
HETATM   26  O   UNL     1     -12.053  13.411  65.935  1.00  0.00    -0.391 OA 
BRANCH  26  27
HETATM   27  C   UNL     1     -12.354  12.692  64.740  1.00  0.00    -0.489 C  
BRANCH  27  28
HETATM   28  C   UNL     1     -11.184  12.732  63.761  1.00  0.00    -0.443 C  
HETATM   29  O   UNL     1     -10.154  13.603  64.223  1.00  0.00    -0.738 OA 
HETATM   30  H   UNL     1      -9.425  13.628  63.614  1.00  0.00     0.000 HD 
ENDBRANCH  27  28
ENDBRANCH  26  27
ENDBRANCH  14  26
ENDBRANCH   7  11
BRANCH   9  31
HETATM   31  N   UNL     1      -7.488  18.157  66.672  1.00  0.00    -0.213 NA 
HETATM   32  C   UNL     1      -6.288  17.970  65.842  1.00  0.00    -0.259 C  
HETATM   33  C   UNL     1      -6.951  20.270  65.737  1.00  0.00    -0.289 C  
HETATM   34  C   UNL     1      -5.712  19.385  65.817  1.00  0.00    -0.181 C  
HETATM   35  C   UNL     1      -8.132  19.355  66.114  1.00  0.00    -0.314 C  
ENDBRANCH   9  31
ENDBRANCH   2   5
TORSDOF 7
ENDMDL
MODEL       61
REMARK 921   NORMALIZED FREE ENERGY PREDICTED BY IDOCK:   -4.94 KCAL/MOL
REMARK 922        TOTAL FREE ENERGY PREDICTED BY IDOCK:   -8.43 KCAL/MOL
REMARK 923 INTER-LIGAND FREE ENERGY PREDICTED BY IDOCK:   -7.87 KCAL/MOL
REMARK 924 INTRA-LIGAND FREE ENERGY PREDICTED BY IDOCK:   -0.56 KCAL/MOL
REMARK 927      BINDING AFFINITY PREDICTED BY RF-SCORE:    0.00 PKD
ROOT
HETATM    1  C   UNL     1      -8.622  17.191  66.322  1.00  0.00    -0.276 C  
HETATM    2  C   UNL     1      -9.510  16.059  66.888  1.00  0.00    -0.242 C  
HETATM    3  C   UNL     1     -10.338  16.633  68.084  1.00  0.00    -0.303 C  
HETATM    4  C   UNL     1     -10.640  15.696  65.890  1.00  0.00    -0.354 C  
ENDROOT
BRANCH   2   5
HETATM    5  C   UNL     1      -8.614  14.880  67.379  1.00  0.00    -0.208 A  
HETATM    6  C   UNL     1      -9.205  13.573  67.306  1.00  0.00    -0.233 A  
HETATM    7  C   UNL     1      -8.487  12.364  67.296  1.00  0.00    -0.183 A  
HETATM    8  C   UNL     1      -7.108  12.531  67.305  1.00  0.00    -0.114 A  
HETATM    9  C   UNL     1      -7.269  14.969  67.792  1.00  0.00    -0.168 A  
HETATM   10  C   UNL     1      -6.524  13.781  67.629  1.00  0.00    -0.163 A  
BRANCH   7  11
HETATM   11  C   UNL     1      -9.182  11.020  67.257  1.00  0.00    -0.156 A  
HETATM   12  C   UNL     1      -9.455  10.365  68.503  1.00  0.00    -0.159 A  
HETATM   13  C   UNL     1     -10.015   9.069  68.635  1.00  0.00    -0.187 A  
HETATM   14  C   UNL     1      -9.514  10.286  66.093  1.00  0.00    -0.181 A  
HETATM   15  C   UNL     1     -10.426   8.451  67.452  1.00  0.00    -0.354 A  
HETATM   16  C   UNL     1     -10.187   9.051  66.208  1.00  0.00    -0.237 A  
BRANCH  13  17
HETATM   17  C   UNL     1     -10.079   8.362  69.952  1.00  0.00    -0.195 A  
HETATM   18  C   UNL     1      -9.709   8.978  71.164  1.00  0.00    -0.369 A  
HETATM   19  C   UNL     1      -9.995   6.913  72.413  1.00  0.00    -0.181 A  
HETATM   20  C   UNL     1     -10.458   7.003  70.033  1.00  0.00    -0.233 A  
HETATM   21  C   UNL     1      -9.666   8.271  72.379  1.00  0.00    -0.373 A  
HETATM   22  O   UNL     1     -10.690   5.184  73.895  1.00  0.00    -0.274 OA 
HETATM   23  C   UNL     1     -10.422   6.290  71.241  1.00  0.00    -0.264 A  
HETATM   24  C   UNL     1      -9.930   6.107  73.660  1.00  0.00    -0.203 C  
HETATM   25  O   UNL     1      -8.914   6.455  74.479  1.00  0.00    -0.144 OA 
ENDBRANCH  13  17
BRANCH  14  26
HETATM   26  O   UNL     1      -9.322  10.627  64.769  1.00  0.00    -0.201 OA 
BRANCH  26  27
HETATM   27  C   UNL     1     -10.475  10.997  64.014  1.00  0.00    -0.366 C  
BRANCH  27  28
HETATM   28  C   UNL     1     -11.464  11.786  64.868  1.00  0.00    -0.203 C  
HETATM   29  O   UNL     1     -12.488  12.369  64.067  1.00  0.00    -0.505 OA 
HETATM   30  H   UNL     1     -13.104  12.860  64.598  1.00  0.00     0.000 HD 
ENDBRANCH  27  28
ENDBRANCH  26  27
ENDBRANCH  14  26
ENDBRANCH   7  11
BRANCH   9  31
HETATM   31  N   UNL     1      -6.679  16.124  68.289  1.00  0.00    -0.120 NA 
HETATM   32  C   UNL     1      -6.021  16.132  69.605  1.00  0.00    -0.171 C  
HETATM   33  C   UNL     1      -5.464  18.154  68.448  1.00  0.00    -0.163 C  
HETATM   34  C   UNL     1      -5.819  17.629  69.835  1.00  0.00    -0.247 C  
HETATM   35  C   UNL     1      -5.863  17.034  67.470  1.00  0.00    -0.140 C  
ENDBRANCH   9  31
ENDBRANCH   2   5
TORSDOF 7
ENDMDL
MODEL       62
REMARK 921   NORMALIZED FREE ENERGY PREDICTED BY IDOCK:   -4.93 KCAL/MOL
REMARK 922        TOTAL FREE ENERGY PREDICTED BY IDOCK:   -8.42 KCAL/MOL
REMARK 923 INTER-LIGAND FREE ENERGY PREDICTED BY IDOCK:   -7.98 KCAL/MOL
REMARK 924 INTRA-LIGAND FREE ENERGY PREDICTED BY IDOCK:   -0.44 KCAL/MOL
REMARK 927      BINDING AFFINITY PREDICTED BY RF-SCORE:    0.00 PKD
ROOT
HETATM    1  C   UNL     1     -11.641  16.849  68.387  1.00  0.00     0.357 C  
HETATM    2  C   UNL     1     -10.193  17.039  67.881  1.00  0.00    -0.317 C  
HETATM    3  C   UNL     1     -10.248  17.477  66.380  1.00  0.00    -0.354 C  
HETATM    4  C   UNL     1      -9.543  18.287  68.532  1.00  0.00    -0.358 C  
ENDROOT
BRANCH   2   5
HETATM    5  C   UNL     1      -9.406  15.699  68.016  1.00  0.00    -0.193 A  
HETATM    6  C   UNL     1     -10.123  14.610  68.617  1.00  0.00    -0.238 A  
HETATM    7  C   UNL     1      -9.790  13.251  68.477  1.00  0.00    -0.169 A  
HETATM    8  C   UNL     1      -8.708  13.023  67.635  1.00  0.00    -0.189 A  
HETATM    9  C   UNL     1      -8.109  15.439  67.526  1.00  0.00    -0.167 A  
HETATM   10  C   UNL     1      -7.848  14.080  67.246  1.00  0.00    -0.143 A  
BRANCH   7  11
HETATM   11  C   UNL     1     -10.572  12.158  69.173  1.00  0.00    -0.046 A  
HETATM   12  C   UNL     1     -10.125  10.804  69.018  1.00  0.00    -0.225 A  
HETATM   13  C   UNL     1     -10.794   9.663  69.527  1.00  0.00    -0.253 A  
HETATM   14  C   UNL     1     -11.775  12.326  69.900  1.00  0.00    -0.273 A  
HETATM   15  C   UNL     1     -11.908   9.909  70.332  1.00  0.00    -0.310 A  
HETATM   16  C   UNL     1     -12.384  11.214  70.520  1.00  0.00    -0.454 A  
BRANCH  13  17
HETATM   17  C   UNL     1     -10.389   8.272  69.152  1.00  0.00    -0.225 A  
HETATM   18  C   UNL     1      -9.488   7.999  68.104  1.00  0.00    -0.152 A  
HETATM   19  C   UNL     1      -9.818   5.600  68.315  1.00  0.00    -0.177 A  
HETATM   20  C   UNL     1     -10.952   7.149  69.800  1.00  0.00    -0.256 A  
HETATM   21  C   UNL     1      -9.202   6.687  67.688  1.00  0.00    -0.110 A  
HETATM   22  O   UNL     1      -9.591   3.258  68.669  1.00  0.00    -0.164 OA 
HETATM   23  C   UNL     1     -10.669   5.836  69.394  1.00  0.00    -0.397 A  
HETATM   24  C   UNL     1      -9.584   4.196  67.892  1.00  0.00    -0.148 C  
HETATM   25  O   UNL     1      -9.421   4.050  66.559  1.00  0.00    -0.169 OA 
ENDBRANCH  13  17
BRANCH  14  26
HETATM   26  O   UNL     1     -12.473  13.487  70.165  1.00  0.00    -0.290 OA 
BRANCH  26  27
HETATM   27  C   UNL     1     -12.529  13.922  71.524  1.00  0.00    -0.297 C  
BRANCH  27  28
HETATM   28  C   UNL     1     -13.144  15.314  71.633  1.00  0.00    -0.425 C  
HETATM   29  O   UNL     1     -14.078  15.551  70.583  1.00  0.00    -0.849 OA 
HETATM   30  H   UNL     1     -14.461  16.418  70.651  1.00  0.00     0.000 HD 
ENDBRANCH  27  28
ENDBRANCH  26  27
ENDBRANCH  14  26
ENDBRANCH   7  11
BRANCH   9  31
HETATM   31  N   UNL     1      -7.152  16.417  67.290  1.00  0.00    -0.162 NA 
HETATM   32  C   UNL     1      -7.210  17.258  66.085  1.00  0.00    -0.269 C  
HETATM   33  C   UNL     1      -5.603  18.186  67.599  1.00  0.00    -0.150 C  
HETATM   34  C   UNL     1      -5.837  17.928  66.115  1.00  0.00    -0.238 C  
HETATM   35  C   UNL     1      -6.639  17.316  68.335  1.00  0.00    -0.174 C  
ENDBRANCH   9  31
ENDBRANCH   2   5
TORSDOF 7
ENDMDL
MODEL       63
REMARK 921   NORMALIZED FREE ENERGY PREDICTED BY IDOCK:   -4.92 KCAL/MOL
REMARK 922        TOTAL FREE ENERGY PREDICTED BY IDOCK:   -8.40 KCAL/MOL
REMARK 923 INTER-LIGAND FREE ENERGY PREDICTED BY IDOCK:   -7.12 KCAL/MOL
REMARK 924 INTRA-LIGAND FREE ENERGY PREDICTED BY IDOCK:   -1.29 KCAL/MOL
REMARK 927      BINDING AFFINITY PREDICTED BY RF-SCORE:    0.00 PKD
ROOT
HETATM    1  C   UNL     1     -11.245  12.161  63.762  1.00  0.00    -0.509 C  
HETATM    2  C   UNL     1     -11.296  13.121  64.972  1.00  0.00    -0.325 C  
HETATM    3  C   UNL     1     -10.799  14.529  64.506  1.00  0.00    -0.239 C  
HETATM    4  C   UNL     1     -12.763  13.436  65.363  1.00  0.00    -0.484 C  
ENDROOT
BRANCH   2   5
HETATM    5  C   UNL     1     -10.377  12.583  66.112  1.00  0.00    -0.274 A  
HETATM    6  C   UNL     1     -10.313  11.154  66.243  1.00  0.00    -0.299 A  
HETATM    7  C   UNL     1      -9.283  10.449  66.890  1.00  0.00    -0.170 A  
HETATM    8  C   UNL     1      -8.260  11.262  67.364  1.00  0.00    -0.135 A  
HETATM    9  C   UNL     1      -9.546  13.355  66.950  1.00  0.00    -0.257 A  
HETATM   10  C   UNL     1      -8.429  12.665  67.468  1.00  0.00    -0.176 A  
BRANCH   7  11
HETATM   11  C   UNL     1      -9.303   8.942  67.022  1.00  0.00    -0.194 A  
HETATM   12  C   UNL     1      -9.580   8.382  68.314  1.00  0.00    -0.156 A  
HETATM   13  C   UNL     1      -9.547   6.998  68.624  1.00  0.00    -0.138 A  
HETATM   14  C   UNL     1      -8.981   8.010  66.006  1.00  0.00    -0.163 A  
HETATM   15  C   UNL     1      -9.338   6.130  67.550  1.00  0.00    -0.113 A  
HETATM   16  C   UNL     1      -9.068   6.626  66.267  1.00  0.00    -0.168 A  
BRANCH  13  17
HETATM   17  C   UNL     1      -9.638   6.498  70.031  1.00  0.00    -0.169 A  
HETATM   18  C   UNL     1      -8.617   6.706  70.979  1.00  0.00    -0.137 A  
HETATM   19  C   UNL     1      -9.743   5.332  72.637  1.00  0.00    -0.175 A  
HETATM   20  C   UNL     1     -10.740   5.725  70.460  1.00  0.00    -0.361 A  
HETATM   21  C   UNL     1      -8.663   6.136  72.263  1.00  0.00    -0.137 A  
HETATM   22  O   UNL     1     -10.879   4.477  74.546  1.00  0.00    -0.324 OA 
HETATM   23  C   UNL     1     -10.797   5.155  71.741  1.00  0.00    -0.149 A  
HETATM   24  C   UNL     1      -9.826   4.672  73.965  1.00  0.00    -0.150 C  
HETATM   25  O   UNL     1      -8.632   4.257  74.441  1.00  0.00    -0.095 OA 
ENDBRANCH  13  17
BRANCH  14  26
HETATM   26  O   UNL     1      -8.621   8.248  64.695  1.00  0.00    -0.106 OA 
BRANCH  26  27
HETATM   27  C   UNL     1      -7.339   7.784  64.274  1.00  0.00    -0.089 C  
BRANCH  27  28
HETATM   28  C   UNL     1      -7.431   7.034  62.948  1.00  0.00    -0.089 C  
HETATM   29  O   UNL     1      -8.101   5.786  63.106  1.00  0.00    -0.107 OA 
HETATM   30  H   UNL     1      -8.159   5.319  62.281  1.00  0.00     0.000 HD 
ENDBRANCH  27  28
ENDBRANCH  26  27
ENDBRANCH  14  26
ENDBRANCH   7  11
BRANCH   9  31
HETATM   31  N   UNL     1      -9.757  14.698  67.237  1.00  0.00    -0.228 NA 
HETATM   32  C   UNL     1     -10.944  15.134  67.989  1.00  0.00    -0.295 C  
HETATM   33  C   UNL     1      -9.405  16.964  67.842  1.00  0.00    -0.238 C  
HETATM   34  C   UNL     1     -10.896  16.647  67.784  1.00  0.00    -0.292 C  
HETATM   35  C   UNL     1      -8.691  15.608  67.681  1.00  0.00    -0.175 C  
ENDBRANCH   9  31
ENDBRANCH   2   5
TORSDOF 7
ENDMDL
MODEL       64
REMARK 921   NORMALIZED FREE ENERGY PREDICTED BY IDOCK:   -4.91 KCAL/MOL
REMARK 922        TOTAL FREE ENERGY PREDICTED BY IDOCK:   -8.39 KCAL/MOL
REMARK 923 INTER-LIGAND FREE ENERGY PREDICTED BY IDOCK:   -7.16 KCAL/MOL
REMARK 924 INTRA-LIGAND FREE ENERGY PREDICTED BY IDOCK:   -1.22 KCAL/MOL
REMARK 927      BINDING AFFINITY PREDICTED BY RF-SCORE:    0.00 PKD
ROOT
HETATM    1  C   UNL     1      -9.779   6.296  71.999  1.00  0.00    -0.164 C  
HETATM    2  C   UNL     1     -10.199   6.790  70.596  1.00  0.00    -0.216 C  
HETATM    3  C   UNL     1     -11.677   6.349  70.339  1.00  0.00    -0.389 C  
HETATM    4  C   UNL     1     -10.341   8.335  70.578  1.00  0.00    -0.217 C  
ENDROOT
BRANCH   2   5
HETATM    5  C   UNL     1      -9.262   6.169  69.514  1.00  0.00    -0.143 A  
HETATM    6  C   UNL     1      -9.211   6.863  68.258  1.00  0.00    -0.123 A  
HETATM    7  C   UNL     1      -8.175   6.745  67.314  1.00  0.00    -0.121 A  
HETATM    8  C   UNL     1      -7.134   5.921  67.725  1.00  0.00    -0.071 A  
HETATM    9  C   UNL     1      -8.406   5.062  69.687  1.00  0.00    -0.088 A  
HETATM   10  C   UNL     1      -7.285   5.046  68.829  1.00  0.00    -0.058 A  
BRANCH   7  11
HETATM   11  C   UNL     1      -8.209   7.480  65.992  1.00  0.00    -0.130 A  
HETATM   12  C   UNL     1      -8.939   8.713  65.923  1.00  0.00    -0.245 A  
HETATM   13  C   UNL     1      -9.143   9.473  64.743  1.00  0.00    -0.271 A  
HETATM   14  C   UNL     1      -7.663   7.022  64.768  1.00  0.00    -0.115 A  
HETATM   15  C   UNL     1      -8.479   9.025  63.599  1.00  0.00    -0.173 A  
HETATM   16  C   UNL     1      -7.749   7.829  63.614  1.00  0.00    -0.131 A  
BRANCH  13  17
HETATM   17  C   UNL     1     -10.086  10.633  64.700  1.00  0.00    -0.417 A  
HETATM   18  C   UNL     1     -10.362  11.344  63.515  1.00  0.00    -0.476 A  
HETATM   19  C   UNL     1     -11.711  12.983  64.698  1.00  0.00    -0.408 A  
HETATM   20  C   UNL     1     -10.702  11.117  65.876  1.00  0.00    -0.261 A  
HETATM   21  C   UNL     1     -11.162  12.501  63.507  1.00  0.00    -0.525 A  
HETATM   22  O   UNL     1     -13.452  14.372  65.539  1.00  0.00    -0.475 OA 
HETATM   23  C   UNL     1     -11.504  12.268  65.878  1.00  0.00    -0.428 A  
HETATM   24  C   UNL     1     -12.530  14.221  64.756  1.00  0.00    -0.374 C  
HETATM   25  O   UNL     1     -12.121  15.184  63.902  1.00  0.00    -0.507 OA 
ENDBRANCH  13  17
BRANCH  14  26
HETATM   26  O   UNL     1      -6.966   5.859  64.512  1.00  0.00    -0.049 OA 
BRANCH  26  27
HETATM   27  C   UNL     1      -6.823   5.468  63.146  1.00  0.00    -0.036 C  
BRANCH  27  28
HETATM   28  C   UNL     1      -6.280   4.047  63.032  1.00  0.00    -0.018 C  
HETATM   29  O   UNL     1      -6.453   3.328  64.250  1.00  0.00    -0.029 OA 
HETATM   30  H   UNL     1      -6.115   2.443  64.179  1.00  0.00     0.000 HD 
ENDBRANCH  27  28
ENDBRANCH  26  27
ENDBRANCH  14  26
ENDBRANCH   7  11
BRANCH   9  31
HETATM   31  N   UNL     1      -8.597   4.068  70.638  1.00  0.00    -0.070 NA 
HETATM   32  C   UNL     1      -9.506   2.941  70.383  1.00  0.00    -0.131 C  
HETATM   33  C   UNL     1      -8.209   2.461  72.339  1.00  0.00    -0.055 C  
HETATM   34  C   UNL     1      -9.619   2.319  71.774  1.00  0.00    -0.207 C  
HETATM   35  C   UNL     1      -7.502   3.480  71.426  1.00  0.00    -0.044 C  
ENDBRANCH   9  31
ENDBRANCH   2   5
TORSDOF 7
ENDMDL
MODEL       65
REMARK 921   NORMALIZED FREE ENERGY PREDICTED BY IDOCK:   -4.90 KCAL/MOL
REMARK 922        TOTAL FREE ENERGY PREDICTED BY IDOCK:   -8.38 KCAL/MOL
REMARK 923 INTER-LIGAND FREE ENERGY PREDICTED BY IDOCK:   -6.69 KCAL/MOL
REMARK 924 INTRA-LIGAND FREE ENERGY PREDICTED BY IDOCK:   -1.69 KCAL/MOL
REMARK 927      BINDING AFFINITY PREDICTED BY RF-SCORE:    0.00 PKD
ROOT
HETATM    1  C   UNL     1     -10.068  14.964  69.399  1.00  0.00    -0.166 C  
HETATM    2  C   UNL     1     -11.217  14.001  69.021  1.00  0.00    -0.311 C  
HETATM    3  C   UNL     1     -11.881  13.485  70.340  1.00  0.00    -0.293 C  
HETATM    4  C   UNL     1     -12.396  14.779  68.378  1.00  0.00     0.047 C  
ENDROOT
BRANCH   2   5
HETATM    5  C   UNL     1     -10.653  12.799  68.203  1.00  0.00    -0.242 A  
HETATM    6  C   UNL     1      -9.831  11.876  68.934  1.00  0.00     0.008 A  
HETATM    7  C   UNL     1      -9.560  10.553  68.541  1.00  0.00    -0.164 A  
HETATM    8  C   UNL     1     -10.217  10.169  67.378  1.00  0.00    -0.267 A  
HETATM    9  C   UNL     1     -10.947  12.493  66.858  1.00  0.00    -0.257 A  
HETATM   10  C   UNL     1     -10.816  11.128  66.524  1.00  0.00    -0.302 A  
BRANCH   7  11
HETATM   11  C   UNL     1      -8.651   9.648  69.344  1.00  0.00    -0.160 A  
HETATM   12  C   UNL     1      -9.172   8.386  69.782  1.00  0.00    -0.157 A  
HETATM   13  C   UNL     1      -8.485   7.467  70.616  1.00  0.00    -0.132 A  
HETATM   14  C   UNL     1      -7.347   9.964  69.796  1.00  0.00    -0.129 A  
HETATM   15  C   UNL     1      -7.162   7.788  70.927  1.00  0.00    -0.054 A  
HETATM   16  C   UNL     1      -6.603   9.007  70.519  1.00  0.00    -0.054 A  
BRANCH  13  17
HETATM   17  C   UNL     1      -9.161   6.270  71.205  1.00  0.00    -0.148 A  
HETATM   18  C   UNL     1     -10.045   6.358  72.298  1.00  0.00    -0.193 A  
HETATM   19  C   UNL     1     -10.253   3.941  72.449  1.00  0.00    -0.227 A  
HETATM   20  C   UNL     1      -8.888   4.969  70.726  1.00  0.00    -0.156 A  
HETATM   21  C   UNL     1     -10.587   5.216  72.914  1.00  0.00    -0.280 A  
HETATM   22  O   UNL     1     -10.999   1.681  72.460  1.00  0.00    -0.132 OA 
HETATM   23  C   UNL     1      -9.427   3.823  71.332  1.00  0.00    -0.225 A  
HETATM   24  C   UNL     1     -10.764   2.700  73.085  1.00  0.00    -0.160 C  
HETATM   25  O   UNL     1     -10.887   2.788  74.427  1.00  0.00    -0.153 OA 
ENDBRANCH  13  17
BRANCH  14  26
HETATM   26  O   UNL     1      -6.612  11.113  69.587  1.00  0.00    -0.111 OA 
BRANCH  26  27
HETATM   27  C   UNL     1      -5.833  11.183  68.394  1.00  0.00    -0.042 C  
BRANCH  27  28
HETATM   28  C   UNL     1      -6.367  12.255  67.448  1.00  0.00    -0.152 C  
HETATM   29  O   UNL     1      -7.094  11.674  66.368  1.00  0.00    -0.358 OA 
HETATM   30  H   UNL     1      -7.427  12.341  65.778  1.00  0.00     0.000 HD 
ENDBRANCH  27  28
ENDBRANCH  26  27
ENDBRANCH  14  26
ENDBRANCH   7  11
BRANCH   9  31
HETATM   31  N   UNL     1     -11.369  13.425  65.919  1.00  0.00    -0.305 NA 
HETATM   32  C   UNL     1     -10.423  14.379  65.320  1.00  0.00    -0.390 C  
HETATM   33  C   UNL     1     -12.476  14.449  64.088  1.00  0.00    -0.236 C  
HETATM   34  C   UNL     1     -11.371  15.353  64.625  1.00  0.00    -0.361 C  
HETATM   35  C   UNL     1     -12.304  13.109  64.829  1.00  0.00    -0.423 C  
ENDBRANCH   9  31
ENDBRANCH   2   5
TORSDOF 7
ENDMDL
MODEL       66
REMARK 921   NORMALIZED FREE ENERGY PREDICTED BY IDOCK:   -4.87 KCAL/MOL
REMARK 922        TOTAL FREE ENERGY PREDICTED BY IDOCK:   -8.34 KCAL/MOL
REMARK 923 INTER-LIGAND FREE ENERGY PREDICTED BY IDOCK:   -6.61 KCAL/MOL
REMARK 924 INTRA-LIGAND FREE ENERGY PREDICTED BY IDOCK:   -1.73 KCAL/MOL
REMARK 927      BINDING AFFINITY PREDICTED BY RF-SCORE:    0.00 PKD
ROOT
HETATM    1  C   UNL     1     -10.738   5.525  66.632  1.00  0.00    -0.332 C  
HETATM    2  C   UNL     1      -9.780   5.457  67.843  1.00  0.00    -0.165 C  
HETATM    3  C   UNL     1     -10.487   6.120  69.070  1.00  0.00    -0.305 C  
HETATM    4  C   UNL     1      -9.626   3.996  68.340  1.00  0.00    -0.186 C  
ENDROOT
BRANCH   2   5
HETATM    5  C   UNL     1      -8.459   6.219  67.514  1.00  0.00    -0.108 A  
HETATM    6  C   UNL     1      -8.446   7.618  67.837  1.00  0.00    -0.123 A  
HETATM    7  C   UNL     1      -7.287   8.394  68.014  1.00  0.00    -0.096 A  
HETATM    8  C   UNL     1      -6.106   7.669  67.907  1.00  0.00    -0.044 A  
HETATM    9  C   UNL     1      -7.266   5.649  67.024  1.00  0.00    -0.075 A  
HETATM   10  C   UNL     1      -6.095   6.368  67.347  1.00  0.00    -0.024 A  
BRANCH   7  11
HETATM   11  C   UNL     1      -7.353   9.876  68.316  1.00  0.00    -0.079 A  
HETATM   12  C   UNL     1      -8.392  10.645  67.696  1.00  0.00    -0.114 A  
HETATM   13  C   UNL     1      -8.536  12.052  67.802  1.00  0.00    -0.157 A  
HETATM   14  C   UNL     1      -6.422  10.612  69.088  1.00  0.00    -0.056 A  
HETATM   15  C   UNL     1      -7.656  12.698  68.672  1.00  0.00    -0.083 A  
HETATM   16  C   UNL     1      -6.626  11.992  69.307  1.00  0.00    -0.109 A  
BRANCH  13  17
HETATM   17  C   UNL     1      -9.513  12.815  66.964  1.00  0.00    -0.233 A  
HETATM   18  C   UNL     1     -10.758  12.284  66.575  1.00  0.00    -0.279 A  
HETATM   19  C   UNL     1     -11.251  14.209  65.176  1.00  0.00    -0.337 A  
HETATM   20  C   UNL     1      -9.198  14.098  66.464  1.00  0.00    -0.247 A  
HETATM   21  C   UNL     1     -11.619  12.965  65.696  1.00  0.00    -0.401 A  
HETATM   22  O   UNL     1     -12.157  16.172  64.180  1.00  0.00    -0.753 OA 
HETATM   23  C   UNL     1     -10.052  14.788  65.589  1.00  0.00    -0.393 A  
HETATM   24  C   UNL     1     -12.102  14.956  64.214  1.00  0.00    -0.353 C  
HETATM   25  O   UNL     1     -12.762  14.162  63.343  1.00  0.00    -0.767 OA 
ENDBRANCH  13  17
BRANCH  14  26
HETATM   26  O   UNL     1      -5.299  10.163  69.752  1.00  0.00    -0.037 OA 
BRANCH  26  27
HETATM   27  C   UNL     1      -5.345  10.144  71.179  1.00  0.00    -0.081 C  
BRANCH  27  28
HETATM   28  C   UNL     1      -5.986   8.859  71.694  1.00  0.00    -0.063 C  
HETATM   29  O   UNL     1      -7.303   9.099  72.185  1.00  0.00    -0.328 OA 
HETATM   30  H   UNL     1      -7.702   8.299  72.506  1.00  0.00     0.000 HD 
ENDBRANCH  27  28
ENDBRANCH  26  27
ENDBRANCH  14  26
ENDBRANCH   7  11
BRANCH   9  31
HETATM   31  N   UNL     1      -7.204   4.460  66.309  1.00  0.00    -0.074 NA 
HETATM   32  C   UNL     1      -7.681   4.386  64.919  1.00  0.00    -0.081 C  
HETATM   33  C   UNL     1      -6.462   2.388  65.426  1.00  0.00    -0.024 C  
HETATM   34  C   UNL     1      -7.701   2.877  64.683  1.00  0.00    -0.077 C  
HETATM   35  C   UNL     1      -6.047   3.553  66.344  1.00  0.00    -0.024 C  
ENDBRANCH   9  31
ENDBRANCH   2   5
TORSDOF 7
ENDMDL
MODEL       67
REMARK 921   NORMALIZED FREE ENERGY PREDICTED BY IDOCK:   -4.87 KCAL/MOL
REMARK 922        TOTAL FREE ENERGY PREDICTED BY IDOCK:   -8.33 KCAL/MOL
REMARK 923 INTER-LIGAND FREE ENERGY PREDICTED BY IDOCK:   -7.18 KCAL/MOL
REMARK 924 INTRA-LIGAND FREE ENERGY PREDICTED BY IDOCK:   -1.16 KCAL/MOL
REMARK 927      BINDING AFFINITY PREDICTED BY RF-SCORE:    0.00 PKD
ROOT
HETATM    1  C   UNL     1      -9.782   2.114  70.623  1.00  0.00    -0.080 C  
HETATM    2  C   UNL     1      -8.996   2.852  69.516  1.00  0.00    -0.171 C  
HETATM    3  C   UNL     1      -7.482   2.487  69.659  1.00  0.00    -0.043 C  
HETATM    4  C   UNL     1      -9.317   2.252  68.122  1.00  0.00    -0.263 C  
ENDROOT
BRANCH   2   5
HETATM    5  C   UNL     1      -9.189   4.392  69.667  1.00  0.00    -0.200 A  
HETATM    6  C   UNL     1      -8.899   5.177  68.500  1.00  0.00    -0.109 A  
HETATM    7  C   UNL     1      -9.372   6.481  68.267  1.00  0.00    -0.118 A  
HETATM    8  C   UNL     1     -10.223   6.953  69.260  1.00  0.00    -0.197 A  
HETATM    9  C   UNL     1      -9.703   5.063  70.797  1.00  0.00    -0.196 A  
HETATM   10  C   UNL     1     -10.313   6.304  70.516  1.00  0.00    -0.255 A  
BRANCH   7  11
HETATM   11  C   UNL     1      -8.992   7.262  67.029  1.00  0.00    -0.140 A  
HETATM   12  C   UNL     1      -9.662   8.507  66.784  1.00  0.00    -0.303 A  
HETATM   13  C   UNL     1      -9.487   9.311  65.630  1.00  0.00    -0.324 A  
HETATM   14  C   UNL     1      -8.094   6.841  66.019  1.00  0.00    -0.119 A  
HETATM   15  C   UNL     1      -8.502   8.896  64.732  1.00  0.00    -0.193 A  
HETATM   16  C   UNL     1      -7.815   7.690  64.927  1.00  0.00    -0.128 A  
BRANCH  13  17
HETATM   17  C   UNL     1     -10.368  10.486  65.340  1.00  0.00    -0.292 A  
HETATM   18  C   UNL     1     -10.526  11.015  64.044  1.00  0.00    -0.433 A  
HETATM   19  C   UNL     1     -11.873  12.867  64.860  1.00  0.00    -0.409 A  
HETATM   20  C   UNL     1     -11.039  11.168  66.379  1.00  0.00    -0.204 A  
HETATM   21  C   UNL     1     -11.266  12.186  63.801  1.00  0.00    -0.509 A  
HETATM   22  O   UNL     1     -13.598  14.433  65.346  1.00  0.00    -0.428 OA 
HETATM   23  C   UNL     1     -11.783  12.335  66.146  1.00  0.00    -0.440 A  
HETATM   24  C   UNL     1     -12.633  14.128  64.667  1.00  0.00    -0.258 C  
HETATM   25  O   UNL     1     -12.119  14.932  63.711  1.00  0.00    -0.427 OA 
ENDBRANCH  13  17
BRANCH  14  26
HETATM   26  O   UNL     1      -7.354   5.678  65.947  1.00  0.00    -0.071 OA 
BRANCH  26  27
HETATM   27  C   UNL     1      -5.937   5.794  66.078  1.00  0.00    -0.025 C  
BRANCH  27  28
HETATM   28  C   UNL     1      -5.459   5.239  67.416  1.00  0.00    -0.012 C  
HETATM   29  O   UNL     1      -5.378   6.265  68.402  1.00  0.00    -0.007 OA 
HETATM   30  H   UNL     1      -5.080   5.920  69.236  1.00  0.00     0.000 HD 
ENDBRANCH  27  28
ENDBRANCH  26  27
ENDBRANCH  14  26
ENDBRANCH   7  11
BRANCH   9  31
HETATM   31  N   UNL     1      -9.663   4.557  72.090  1.00  0.00    -0.156 NA 
HETATM   32  C   UNL     1      -8.455   4.692  72.918  1.00  0.00    -0.110 C  
HETATM   33  C   UNL     1     -10.267   3.962  74.305  1.00  0.00    -0.236 C  
HETATM   34  C   UNL     1      -8.774   3.749  74.077  1.00  0.00    -0.089 C  
HETATM   35  C   UNL     1     -10.774   4.688  73.045  1.00  0.00    -0.233 C  
ENDBRANCH   9  31
ENDBRANCH   2   5
TORSDOF 7
ENDMDL
MODEL       68
REMARK 921   NORMALIZED FREE ENERGY PREDICTED BY IDOCK:   -4.85 KCAL/MOL
REMARK 922        TOTAL FREE ENERGY PREDICTED BY IDOCK:   -8.31 KCAL/MOL
REMARK 923 INTER-LIGAND FREE ENERGY PREDICTED BY IDOCK:   -6.90 KCAL/MOL
REMARK 924 INTRA-LIGAND FREE ENERGY PREDICTED BY IDOCK:   -1.41 KCAL/MOL
REMARK 927      BINDING AFFINITY PREDICTED BY RF-SCORE:    0.00 PKD
ROOT
HETATM    1  C   UNL     1     -11.247   9.227  71.410  1.00  0.00    -0.433 C  
HETATM    2  C   UNL     1     -10.971   7.709  71.502  1.00  0.00    -0.263 C  
HETATM    3  C   UNL     1     -10.396   7.396  72.923  1.00  0.00    -0.328 C  
HETATM    4  C   UNL     1     -12.300   6.910  71.535  1.00  0.00    -0.420 C  
ENDROOT
BRANCH   2   5
HETATM    5  C   UNL     1      -9.940   7.292  70.407  1.00  0.00    -0.192 A  
HETATM    6  C   UNL     1      -9.875   8.143  69.253  1.00  0.00    -0.182 A  
HETATM    7  C   UNL     1      -8.788   8.214  68.363  1.00  0.00    -0.133 A  
HETATM    8  C   UNL     1      -7.714   7.411  68.728  1.00  0.00    -0.119 A  
HETATM    9  C   UNL     1      -9.018   6.228  70.490  1.00  0.00    -0.151 A  
HETATM   10  C   UNL     1      -7.858   6.393  69.703  1.00  0.00    -0.108 A  
BRANCH   7  11
HETATM   11  C   UNL     1      -8.808   9.109  67.143  1.00  0.00    -0.130 A  
HETATM   12  C   UNL     1      -9.038  10.511  67.339  1.00  0.00    -0.147 A  
HETATM   13  C   UNL     1      -9.175  11.465  66.299  1.00  0.00    -0.220 A  
HETATM   14  C   UNL     1      -8.713   8.685  65.796  1.00  0.00    -0.181 A  
HETATM   15  C   UNL     1      -8.954  10.999  65.001  1.00  0.00    -0.137 A  
HETATM   16  C   UNL     1      -8.721   9.640  64.756  1.00  0.00    -0.219 A  
BRANCH  13  17
HETATM   17  C   UNL     1      -9.621  12.869  66.564  1.00  0.00    -0.259 A  
HETATM   18  C   UNL     1     -10.051  13.735  65.539  1.00  0.00    -0.303 A  
HETATM   19  C   UNL     1     -10.244  15.610  67.074  1.00  0.00    -0.274 A  
HETATM   20  C   UNL     1      -9.567  13.418  67.864  1.00  0.00    -0.216 A  
HETATM   21  C   UNL     1     -10.360  15.085  65.784  1.00  0.00    -0.354 A  
HETATM   22  O   UNL     1     -10.986  17.409  68.445  1.00  0.00    -0.285 OA 
HETATM   23  C   UNL     1      -9.877  14.763  68.119  1.00  0.00    -0.221 A  
HETATM   24  C   UNL     1     -10.519  17.037  67.383  1.00  0.00    -0.322 C  
HETATM   25  O   UNL     1     -10.149  17.887  66.401  1.00  0.00    -0.337 OA 
ENDBRANCH  13  17
BRANCH  14  26
HETATM   26  O   UNL     1      -8.551   7.408  65.298  1.00  0.00    -0.104 OA 
BRANCH  26  27
HETATM   27  C   UNL     1      -7.343   7.130  64.590  1.00  0.00    -0.079 C  
BRANCH  27  28
HETATM   28  C   UNL     1      -7.605   6.955  63.097  1.00  0.00    -0.096 C  
HETATM   29  O   UNL     1      -6.426   7.194  62.334  1.00  0.00    -0.051 OA 
HETATM   30  H   UNL     1      -6.589   7.085  61.404  1.00  0.00     0.000 HD 
ENDBRANCH  27  28
ENDBRANCH  26  27
ENDBRANCH  14  26
ENDBRANCH   7  11
BRANCH   9  31
HETATM   31  N   UNL     1      -9.186   5.110  71.297  1.00  0.00    -0.143 NA 
HETATM   32  C   UNL     1     -10.001   3.970  70.850  1.00  0.00    -0.097 C  
HETATM   33  C   UNL     1      -8.772   3.325  72.802  1.00  0.00    -0.092 C  
HETATM   34  C   UNL     1     -10.138   3.169  72.143  1.00  0.00    -0.200 C  
HETATM   35  C   UNL     1      -8.094   4.495  72.066  1.00  0.00    -0.100 C  
ENDBRANCH   9  31
ENDBRANCH   2   5
TORSDOF 7
ENDMDL
MODEL       69
REMARK 921   NORMALIZED FREE ENERGY PREDICTED BY IDOCK:   -4.85 KCAL/MOL
REMARK 922        TOTAL FREE ENERGY PREDICTED BY IDOCK:   -8.30 KCAL/MOL
REMARK 923 INTER-LIGAND FREE ENERGY PREDICTED BY IDOCK:   -8.01 KCAL/MOL
REMARK 924 INTRA-LIGAND FREE ENERGY PREDICTED BY IDOCK:   -0.29 KCAL/MOL
REMARK 927      BINDING AFFINITY PREDICTED BY RF-SCORE:    0.00 PKD
ROOT
HETATM    1  C   UNL     1      -8.503   8.481  65.305  1.00  0.00    -0.192 C  
HETATM    2  C   UNL     1      -8.924   7.937  66.689  1.00  0.00    -0.179 C  
HETATM    3  C   UNL     1     -10.317   7.241  66.544  1.00  0.00    -0.104 C  
HETATM    4  C   UNL     1      -8.032   6.736  67.101  1.00  0.00    -0.116 C  
ENDROOT
BRANCH   2   5
HETATM    5  C   UNL     1      -9.018   9.111  67.712  1.00  0.00    -0.132 A  
HETATM    6  C   UNL     1      -9.059  10.431  67.148  1.00  0.00    -0.152 A  
HETATM    7  C   UNL     1      -9.541  11.575  67.808  1.00  0.00    -0.177 A  
HETATM    8  C   UNL     1     -10.049  11.317  69.076  1.00  0.00    -0.147 A  
HETATM    9  C   UNL     1      -9.159   8.991  69.110  1.00  0.00    -0.140 A  
HETATM   10  C   UNL     1      -9.787  10.091  69.734  1.00  0.00    -0.270 A  
BRANCH   7  11
HETATM   11  C   UNL     1      -9.516  12.943  67.162  1.00  0.00    -0.229 A  
HETATM   12  C   UNL     1      -8.628  13.930  67.705  1.00  0.00    -0.182 A  
HETATM   13  C   UNL     1      -8.551  15.279  67.276  1.00  0.00    -0.210 A  
HETATM   14  C   UNL     1     -10.361  13.388  66.116  1.00  0.00    -0.295 A  
HETATM   15  C   UNL     1      -9.326  15.618  66.165  1.00  0.00    -0.382 A  
HETATM   16  C   UNL     1     -10.207  14.690  65.593  1.00  0.00    -0.382 A  
BRANCH  13  17
HETATM   17  C   UNL     1      -7.757  16.305  68.021  1.00  0.00    -0.154 A  
HETATM   18  C   UNL     1      -6.604  15.982  68.763  1.00  0.00    -0.126 A  
HETATM   19  C   UNL     1      -6.401  18.249  69.617  1.00  0.00    -0.189 A  
HETATM   20  C   UNL     1      -8.172  17.655  68.067  1.00  0.00    -0.242 A  
HETATM   21  C   UNL     1      -5.932  16.934  69.550  1.00  0.00    -0.213 A  
HETATM   22  O   UNL     1      -5.716  20.464  70.155  1.00  0.00    -0.308 OA 
HETATM   23  C   UNL     1      -7.505  18.613  68.847  1.00  0.00    -0.298 A  
HETATM   24  C   UNL     1      -5.754  19.286  70.461  1.00  0.00    -0.215 C  
HETATM   25  O   UNL     1      -5.265  18.810  71.627  1.00  0.00    -0.449 OA 
ENDBRANCH  13  17
BRANCH  14  26
HETATM   26  O   UNL     1     -11.344  12.693  65.441  1.00  0.00    -0.293 OA 
BRANCH  26  27
HETATM   27  C   UNL     1     -12.180  13.436  64.556  1.00  0.00    -0.398 C  
BRANCH  27  28
HETATM   28  C   UNL     1     -12.028  12.954  63.116  1.00  0.00    -0.256 C  
HETATM   29  O   UNL     1     -12.175  11.539  63.027  1.00  0.00    -0.968 OA 
HETATM   30  H   UNL     1     -12.080  11.239  62.130  1.00  0.00     0.000 HD 
ENDBRANCH  27  28
ENDBRANCH  26  27
ENDBRANCH  14  26
ENDBRANCH   7  11
BRANCH   9  31
HETATM   31  N   UNL     1      -8.758   7.882  69.844  1.00  0.00    -0.139 NA 
HETATM   32  C   UNL     1      -9.601   6.679  69.920  1.00  0.00    -0.155 C  
HETATM   33  C   UNL     1      -7.435   6.163  70.804  1.00  0.00    -0.091 C  
HETATM   34  C   UNL     1      -8.918   5.899  71.042  1.00  0.00    -0.148 C  
HETATM   35  C   UNL     1      -7.383   7.361  69.837  1.00  0.00    -0.083 C  
ENDBRANCH   9  31
ENDBRANCH   2   5
TORSDOF 7
ENDMDL
MODEL       70
REMARK 921   NORMALIZED FREE ENERGY PREDICTED BY IDOCK:   -4.84 KCAL/MOL
REMARK 922        TOTAL FREE ENERGY PREDICTED BY IDOCK:   -8.29 KCAL/MOL
REMARK 923 INTER-LIGAND FREE ENERGY PREDICTED BY IDOCK:   -6.65 KCAL/MOL
REMARK 924 INTRA-LIGAND FREE ENERGY PREDICTED BY IDOCK:   -1.64 KCAL/MOL
REMARK 927      BINDING AFFINITY PREDICTED BY RF-SCORE:    0.00 PKD
ROOT
HETATM    1  C   UNL     1      -5.966   7.690  70.301  1.00  0.00    -0.026 C  
HETATM    2  C   UNL     1      -7.151   7.194  71.160  1.00  0.00    -0.072 C  
HETATM    3  C   UNL     1      -6.915   5.686  71.503  1.00  0.00    -0.068 C  
HETATM    4  C   UNL     1      -7.111   7.831  72.573  1.00  0.00    -0.089 C  
ENDROOT
BRANCH   2   5
HETATM    5  C   UNL     1      -8.484   7.356  70.365  1.00  0.00    -0.142 A  
HETATM    6  C   UNL     1      -8.398   8.114  69.149  1.00  0.00    -0.131 A  
HETATM    7  C   UNL     1      -9.326   8.052  68.094  1.00  0.00    -0.145 A  
HETATM    8  C   UNL     1     -10.342   7.126  68.295  1.00  0.00    -0.227 A  
HETATM    9  C   UNL     1      -9.722   6.759  70.680  1.00  0.00    -0.172 A  
HETATM   10  C   UNL     1     -10.579   6.566  69.575  1.00  0.00    -0.293 A  
BRANCH   7  11
HETATM   11  C   UNL     1      -9.190   8.912  66.856  1.00  0.00    -0.185 A  
HETATM   12  C   UNL     1      -9.390  10.326  66.991  1.00  0.00    -0.177 A  
HETATM   13  C   UNL     1      -9.387  11.254  65.918  1.00  0.00    -0.240 A  
HETATM   14  C   UNL     1      -8.974   8.447  65.536  1.00  0.00    -0.098 A  
HETATM   15  C   UNL     1      -9.052  10.744  64.663  1.00  0.00    -0.223 A  
HETATM   16  C   UNL     1      -8.843   9.371  64.477  1.00  0.00    -0.235 A  
BRANCH  13  17
HETATM   17  C   UNL     1      -9.808  12.678  66.100  1.00  0.00    -0.265 A  
HETATM   18  C   UNL     1     -10.406  13.431  65.070  1.00  0.00    -0.361 A  
HETATM   19  C   UNL     1     -10.387  15.459  66.410  1.00  0.00    -0.303 A  
HETATM   20  C   UNL     1      -9.562  13.362  67.312  1.00  0.00    -0.234 A  
HETATM   21  C   UNL     1     -10.694  14.799  65.217  1.00  0.00    -0.406 A  
HETATM   22  O   UNL     1     -10.935  17.394  67.684  1.00  0.00    -0.294 OA 
HETATM   23  C   UNL     1      -9.849  14.727  67.468  1.00  0.00    -0.218 A  
HETATM   24  C   UNL     1     -10.633  16.910  66.607  1.00  0.00    -0.189 C  
HETATM   25  O   UNL     1     -10.434  17.651  65.495  1.00  0.00    -0.636 OA 
ENDBRANCH  13  17
BRANCH  14  26
HETATM   26  O   UNL     1      -8.807   7.151  65.090  1.00  0.00     0.065 OA 
BRANCH  26  27
HETATM   27  C   UNL     1      -7.813   6.926  64.091  1.00  0.00    -0.104 C  
BRANCH  27  28
HETATM   28  C   UNL     1      -7.104   5.592  64.308  1.00  0.00    -0.053 C  
HETATM   29  O   UNL     1      -7.712   4.849  65.362  1.00  0.00    -0.084 OA 
HETATM   30  H   UNL     1      -7.270   4.019  65.497  1.00  0.00     0.000 HD 
ENDBRANCH  27  28
ENDBRANCH  26  27
ENDBRANCH  14  26
ENDBRANCH   7  11
BRANCH   9  31
HETATM   31  N   UNL     1     -10.090   6.348  71.955  1.00  0.00    -0.183 NA 
HETATM   32  C   UNL     1     -10.846   7.239  72.849  1.00  0.00    -0.337 C  
HETATM   33  C   UNL     1     -10.845   5.030  73.775  1.00  0.00    -0.366 C  
HETATM   34  C   UNL     1     -10.738   6.496  74.180  1.00  0.00     0.046 C  
HETATM   35  C   UNL     1     -10.612   5.006  72.253  1.00  0.00    -0.206 C  
ENDBRANCH   9  31
ENDBRANCH   2   5
TORSDOF 7
ENDMDL
MODEL       71
REMARK 921   NORMALIZED FREE ENERGY PREDICTED BY IDOCK:   -4.76 KCAL/MOL
REMARK 922        TOTAL FREE ENERGY PREDICTED BY IDOCK:   -8.18 KCAL/MOL
REMARK 923 INTER-LIGAND FREE ENERGY PREDICTED BY IDOCK:   -6.62 KCAL/MOL
REMARK 924 INTRA-LIGAND FREE ENERGY PREDICTED BY IDOCK:   -1.56 KCAL/MOL
REMARK 927      BINDING AFFINITY PREDICTED BY RF-SCORE:    0.00 PKD
ROOT
HETATM    1  C   UNL     1     -11.120  12.206  65.193  1.00  0.00    -0.369 C  
HETATM    2  C   UNL     1     -11.024  13.594  65.866  1.00  0.00    -0.284 C  
HETATM    3  C   UNL     1     -10.994  14.685  64.746  1.00  0.00    -0.399 C  
HETATM    4  C   UNL     1     -12.350  13.946  66.590  1.00  0.00    -0.411 C  
ENDROOT
BRANCH   2   5
HETATM    5  C   UNL     1      -9.724  13.676  66.725  1.00  0.00    -0.275 A  
HETATM    6  C   UNL     1      -9.204  12.422  67.194  1.00  0.00    -0.199 A  
HETATM    7  C   UNL     1      -7.879  12.206  67.613  1.00  0.00    -0.153 A  
HETATM    8  C   UNL     1      -7.061  13.322  67.482  1.00  0.00    -0.156 A  
HETATM    9  C   UNL     1      -8.976  14.840  66.999  1.00  0.00    -0.238 A  
HETATM   10  C   UNL     1      -7.610  14.611  67.267  1.00  0.00    -0.173 A  
BRANCH   7  11
HETATM   11  C   UNL     1      -7.412  10.864  68.132  1.00  0.00    -0.091 A  
HETATM   12  C   UNL     1      -7.632   9.709  67.310  1.00  0.00    -0.091 A  
HETATM   13  C   UNL     1      -7.338   8.374  67.688  1.00  0.00    -0.093 A  
HETATM   14  C   UNL     1      -6.853  10.610  69.408  1.00  0.00    -0.095 A  
HETATM   15  C   UNL     1      -6.682   8.209  68.910  1.00  0.00    -0.049 A  
HETATM   16  C   UNL     1      -6.438   9.305  69.748  1.00  0.00    -0.040 A  
BRANCH  13  17
HETATM   17  C   UNL     1      -7.784   7.202  66.872  1.00  0.00    -0.106 A  
HETATM   18  C   UNL     1      -7.517   7.091  65.493  1.00  0.00    -0.086 A  
HETATM   19  C   UNL     1      -8.847   5.065  65.302  1.00  0.00    -0.153 A  
HETATM   20  C   UNL     1      -8.560   6.169  67.444  1.00  0.00    -0.106 A  
HETATM   21  C   UNL     1      -8.037   6.041  64.715  1.00  0.00    -0.132 A  
HETATM   22  O   UNL     1      -9.647   2.846  64.984  1.00  0.00    -0.135 OA 
HETATM   23  C   UNL     1      -9.079   5.115  66.676  1.00  0.00    -0.120 A  
HETATM   24  C   UNL     1      -9.455   3.956  64.521  1.00  0.00    -0.166 C  
HETATM   25  O   UNL     1      -9.827   4.312  63.272  1.00  0.00    -0.129 OA 
ENDBRANCH  13  17
BRANCH  14  26
HETATM   26  O   UNL     1      -6.581  11.501  70.427  1.00  0.00    -0.185 OA 
BRANCH  26  27
HETATM   27  C   UNL     1      -5.365  12.243  70.340  1.00  0.00    -0.131 C  
BRANCH  27  28
HETATM   28  C   UNL     1      -5.541  13.659  70.881  1.00  0.00    -0.200 C  
HETATM   29  O   UNL     1      -6.015  13.643  72.225  1.00  0.00    -0.509 OA 
HETATM   30  H   UNL     1      -6.126  14.524  72.562  1.00  0.00     0.000 HD 
ENDBRANCH  27  28
ENDBRANCH  26  27
ENDBRANCH  14  26
ENDBRANCH   7  11
BRANCH   9  31
HETATM   31  N   UNL     1      -9.499  16.127  66.979  1.00  0.00    -0.218 NA 
HETATM   32  C   UNL     1     -10.284  16.642  68.111  1.00  0.00    -0.280 C  
HETATM   33  C   UNL     1      -9.745  18.462  66.650  1.00  0.00    -0.342 C  
HETATM   34  C   UNL     1     -10.878  17.917  67.514  1.00  0.00    -0.239 C  
HETATM   35  C   UNL     1      -8.751  17.297  66.494  1.00  0.00    -0.262 C  
ENDBRANCH   9  31
ENDBRANCH   2   5
TORSDOF 7
ENDMDL
MODEL       72
REMARK 921   NORMALIZED FREE ENERGY PREDICTED BY IDOCK:   -4.69 KCAL/MOL
REMARK 922        TOTAL FREE ENERGY PREDICTED BY IDOCK:   -8.09 KCAL/MOL
REMARK 923 INTER-LIGAND FREE ENERGY PREDICTED BY IDOCK:   -6.72 KCAL/MOL
REMARK 924 INTRA-LIGAND FREE ENERGY PREDICTED BY IDOCK:   -1.37 KCAL/MOL
REMARK 927      BINDING AFFINITY PREDICTED BY RF-SCORE:    0.00 PKD
ROOT
HETATM    1  C   UNL     1      -9.178  14.539  66.400  1.00  0.00    -0.264 C  
HETATM    2  C   UNL     1      -9.588  13.929  67.760  1.00  0.00    -0.222 C  
HETATM    3  C   UNL     1      -8.488  14.288  68.813  1.00  0.00    -0.094 C  
HETATM    4  C   UNL     1     -10.816  14.672  68.347  1.00  0.00    -0.250 C  
ENDROOT
BRANCH   2   5
HETATM    5  C   UNL     1      -9.714  12.380  67.628  1.00  0.00    -0.195 A  
HETATM    6  C   UNL     1      -8.916  11.608  68.539  1.00  0.00    -0.138 A  
HETATM    7  C   UNL     1      -9.157  10.265  68.883  1.00  0.00    -0.168 A  
HETATM    8  C   UNL     1     -10.303   9.736  68.300  1.00  0.00    -0.231 A  
HETATM    9  C   UNL     1     -10.595  11.683  66.776  1.00  0.00    -0.244 A  
HETATM   10  C   UNL     1     -10.946  10.391  67.221  1.00  0.00    -0.306 A  
BRANCH   7  11
HETATM   11  C   UNL     1      -8.248   9.503  69.822  1.00  0.00    -0.156 A  
HETATM   12  C   UNL     1      -8.734   8.275  70.382  1.00  0.00    -0.139 A  
HETATM   13  C   UNL     1      -8.046   7.492  71.343  1.00  0.00    -0.096 A  
HETATM   14  C   UNL     1      -6.981   9.930  70.286  1.00  0.00    -0.146 A  
HETATM   15  C   UNL     1      -6.753   7.909  71.668  1.00  0.00    -0.052 A  
HETATM   16  C   UNL     1      -6.230   9.098  71.145  1.00  0.00    -0.070 A  
BRANCH  13  17
HETATM   17  C   UNL     1      -8.696   6.338  72.039  1.00  0.00    -0.134 A  
HETATM   18  C   UNL     1      -8.183   5.780  73.227  1.00  0.00    -0.117 A  
HETATM   19  C   UNL     1      -9.832   3.994  73.215  1.00  0.00    -0.173 A  
HETATM   20  C   UNL     1      -9.836   5.706  71.494  1.00  0.00    -0.213 A  
HETATM   21  C   UNL     1      -8.737   4.627  73.810  1.00  0.00    -0.105 A  
HETATM   22  O   UNL     1     -11.622   2.497  73.683  1.00  0.00    -0.225 OA 
HETATM   23  C   UNL     1     -10.399   4.557  72.072  1.00  0.00    -0.216 A  
HETATM   24  C   UNL     1     -10.433   2.752  73.765  1.00  0.00    -0.151 C  
HETATM   25  O   UNL     1      -9.532   1.908  74.312  1.00  0.00    -0.070 OA 
ENDBRANCH  13  17
BRANCH  14  26
HETATM   26  O   UNL     1      -6.286  11.081  69.975  1.00  0.00    -0.121 OA 
BRANCH  26  27
HETATM   27  C   UNL     1      -5.580  11.726  71.035  1.00  0.00    -0.013 C  
BRANCH  27  28
HETATM   28  C   UNL     1      -5.675  13.245  70.919  1.00  0.00    -0.167 C  
HETATM   29  O   UNL     1      -6.021  13.837  72.168  1.00  0.00    -0.534 OA 
HETATM   30  H   UNL     1      -6.080  14.783  72.096  1.00  0.00     0.000 HD 
ENDBRANCH  27  28
ENDBRANCH  26  27
ENDBRANCH  14  26
ENDBRANCH   7  11
BRANCH   9  31
HETATM   31  N   UNL     1     -11.125  12.207  65.603  1.00  0.00    -0.306 NA 
HETATM   32  C   UNL     1     -10.763  11.646  64.292  1.00  0.00    -0.341 C  
HETATM   33  C   UNL     1     -12.622  13.130  64.012  1.00  0.00    -0.249 C  
HETATM   34  C   UNL     1     -11.319  12.705  63.343  1.00  0.00    -0.456 C  
HETATM   35  C   UNL     1     -12.535  12.596  65.454  1.00  0.00    -0.355 C  
ENDBRANCH   9  31
ENDBRANCH   2   5
TORSDOF 7
ENDMDL
MODEL       73
REMARK 921   NORMALIZED FREE ENERGY PREDICTED BY IDOCK:   -4.64 KCAL/MOL
REMARK 922        TOTAL FREE ENERGY PREDICTED BY IDOCK:   -8.00 KCAL/MOL
REMARK 923 INTER-LIGAND FREE ENERGY PREDICTED BY IDOCK:   -6.61 KCAL/MOL
REMARK 924 INTRA-LIGAND FREE ENERGY PREDICTED BY IDOCK:   -1.40 KCAL/MOL
REMARK 927      BINDING AFFINITY PREDICTED BY RF-SCORE:    0.00 PKD
ROOT
HETATM    1  C   UNL     1      -8.787  14.338  66.480  1.00  0.00    -0.095 C  
HETATM    2  C   UNL     1      -9.036  13.692  67.862  1.00  0.00    -0.195 C  
HETATM    3  C   UNL     1      -7.657  13.510  68.577  1.00  0.00    -0.129 C  
HETATM    4  C   UNL     1      -9.737  14.693  68.817  1.00  0.00    -0.217 C  
ENDROOT
BRANCH   2   5
HETATM    5  C   UNL     1      -9.729  12.307  67.681  1.00  0.00    -0.194 A  
HETATM    6  C   UNL     1      -9.147  11.215  68.410  1.00  0.00    -0.168 A  
HETATM    7  C   UNL     1      -9.807  10.014  68.726  1.00  0.00    -0.173 A  
HETATM    8  C   UNL     1     -11.134   9.980  68.316  1.00  0.00    -0.247 A  
HETATM    9  C   UNL     1     -10.910  12.052  66.952  1.00  0.00    -0.259 A  
HETATM   10  C   UNL     1     -11.638  10.925  67.389  1.00  0.00    -0.027 A  
BRANCH   7  11
HETATM   11  C   UNL     1      -9.114   8.891  69.467  1.00  0.00    -0.146 A  
HETATM   12  C   UNL     1      -8.291   7.992  68.711  1.00  0.00    -0.127 A  
HETATM   13  C   UNL     1      -7.649   6.841  69.235  1.00  0.00    -0.096 A  
HETATM   14  C   UNL     1      -9.271   8.573  70.837  1.00  0.00    -0.175 A  
HETATM   15  C   UNL     1      -7.751   6.654  70.615  1.00  0.00    -0.104 A  
HETATM   16  C   UNL     1      -8.539   7.506  71.400  1.00  0.00    -0.124 A  
BRANCH  13  17
HETATM   17  C   UNL     1      -6.980   5.834  68.354  1.00  0.00    -0.068 A  
HETATM   18  C   UNL     1      -6.050   6.195  67.359  1.00  0.00    -0.018 A  
HETATM   19  C   UNL     1      -5.896   3.912  66.539  1.00  0.00    -0.023 A  
HETATM   20  C   UNL     1      -7.303   4.462  68.438  1.00  0.00    -0.064 A  
HETATM   21  C   UNL     1      -5.513   5.254  66.462  1.00  0.00    -0.013 A  
HETATM   22  O   UNL     1      -5.207   1.721  65.915  1.00  0.00    -0.004 OA 
HETATM   23  C   UNL     1      -6.769   3.514  67.551  1.00  0.00    -0.042 A  
HETATM   24  C   UNL     1      -5.392   2.882  65.595  1.00  0.00    -0.009 C  
HETATM   25  O   UNL     1      -5.213   3.339  64.337  1.00  0.00    -0.008 OA 
ENDBRANCH  13  17
BRANCH  14  26
HETATM   26  O   UNL     1     -10.036   9.211  71.793  1.00  0.00    -0.329 OA 
BRANCH  26  27
HETATM   27  C   UNL     1     -11.101   8.466  72.383  1.00  0.00    -0.361 C  
BRANCH  27  28
HETATM   28  C   UNL     1     -12.436   9.187  72.220  1.00  0.00    -0.333 C  
HETATM   29  O   UNL     1     -13.308   8.913  73.314  1.00  0.00    -0.912 OA 
HETATM   30  H   UNL     1     -14.140   9.362  73.212  1.00  0.00     0.000 HD 
ENDBRANCH  27  28
ENDBRANCH  26  27
ENDBRANCH  14  26
ENDBRANCH   7  11
BRANCH   9  31
HETATM   31  N   UNL     1     -11.369  12.845  65.908  1.00  0.00    -0.301 NA 
HETATM   32  C   UNL     1     -11.839  12.243  64.651  1.00  0.00    -0.367 C  
HETATM   33  C   UNL     1     -12.452  14.558  64.677  1.00  0.00    -0.339 C  
HETATM   34  C   UNL     1     -11.935  13.468  63.744  1.00  0.00    -0.475 C  
HETATM   35  C   UNL     1     -12.245  14.011  66.101  1.00  0.00    -0.465 C  
ENDBRANCH   9  31
ENDBRANCH   2   5
TORSDOF 7
ENDMDL
MODEL       74
REMARK 921   NORMALIZED FREE ENERGY PREDICTED BY IDOCK:   -4.60 KCAL/MOL
REMARK 922        TOTAL FREE ENERGY PREDICTED BY IDOCK:   -7.96 KCAL/MOL
REMARK 923 INTER-LIGAND FREE ENERGY PREDICTED BY IDOCK:   -6.26 KCAL/MOL
REMARK 924 INTRA-LIGAND FREE ENERGY PREDICTED BY IDOCK:   -1.70 KCAL/MOL
REMARK 927      BINDING AFFINITY PREDICTED BY RF-SCORE:    0.00 PKD
ROOT
HETATM    1  C   UNL     1     -12.052  14.678  66.467  1.00  0.00    -0.230 C  
HETATM    2  C   UNL     1     -11.513  14.402  67.889  1.00  0.00    -0.346 C  
HETATM    3  C   UNL     1     -12.207  15.392  68.881  1.00  0.00    -0.118 C  
HETATM    4  C   UNL     1     -12.029  13.038  68.417  1.00  0.00    -0.309 C  
ENDROOT
BRANCH   2   5
HETATM    5  C   UNL     1      -9.968  14.616  67.918  1.00  0.00    -0.221 A  
HETATM    6  C   UNL     1      -9.198  13.537  68.470  1.00  0.00    -0.101 A  
HETATM    7  C   UNL     1      -7.827  13.322  68.237  1.00  0.00    -0.143 A  
HETATM    8  C   UNL     1      -7.261  14.232  67.352  1.00  0.00    -0.137 A  
HETATM    9  C   UNL     1      -9.265  15.712  67.377  1.00  0.00    -0.198 A  
HETATM   10  C   UNL     1      -7.933  15.431  67.006  1.00  0.00    -0.259 A  
BRANCH   7  11
HETATM   11  C   UNL     1      -7.072  12.183  68.885  1.00  0.00    -0.098 A  
HETATM   12  C   UNL     1      -7.618  10.861  68.772  1.00  0.00    -0.121 A  
HETATM   13  C   UNL     1      -7.085   9.704  69.395  1.00  0.00    -0.062 A  
HETATM   14  C   UNL     1      -5.911  12.300  69.687  1.00  0.00    -0.121 A  
HETATM   15  C   UNL     1      -5.875   9.872  70.073  1.00  0.00    -0.046 A  
HETATM   16  C   UNL     1      -5.297  11.141  70.209  1.00  0.00    -0.092 A  
BRANCH  13  17
HETATM   17  C   UNL     1      -7.817   8.400  69.408  1.00  0.00    -0.103 A  
HETATM   18  C   UNL     1      -8.958   8.177  70.204  1.00  0.00    -0.146 A  
HETATM   19  C   UNL     1      -9.052   5.829  69.582  1.00  0.00    -0.148 A  
HETATM   20  C   UNL     1      -7.352   7.295  68.660  1.00  0.00    -0.100 A  
HETATM   21  C   UNL     1      -9.571   6.915  70.293  1.00  0.00    -0.170 A  
HETATM   22  O   UNL     1      -9.638   3.684  68.734  1.00  0.00    -0.163 OA 
HETATM   23  C   UNL     1      -7.959   6.033  68.739  1.00  0.00    -0.104 A  
HETATM   24  C   UNL     1      -9.635   4.466  69.668  1.00  0.00    -0.205 C  
HETATM   25  O   UNL     1     -10.106   4.153  70.895  1.00  0.00    -0.172 OA 
ENDBRANCH  13  17
BRANCH  14  26
HETATM   26  O   UNL     1      -5.201  13.434  70.022  1.00  0.00    -0.084 OA 
BRANCH  26  27
HETATM   27  C   UNL     1      -5.841  14.379  70.879  1.00  0.00    -0.195 C  
BRANCH  27  28
HETATM   28  C   UNL     1      -5.398  15.804  70.561  1.00  0.00    -0.159 C  
HETATM   29  O   UNL     1      -6.402  16.507  69.834  1.00  0.00    -0.206 OA 
HETATM   30  H   UNL     1      -6.126  17.394  69.635  1.00  0.00     0.000 HD 
ENDBRANCH  27  28
ENDBRANCH  26  27
ENDBRANCH  14  26
ENDBRANCH   7  11
BRANCH   9  31
HETATM   31  N   UNL     1      -9.817  16.971  67.175  1.00  0.00    -0.262 NA 
HETATM   32  C   UNL     1      -9.645  18.041  68.170  1.00  0.00    -0.301 C  
HETATM   33  C   UNL     1     -10.532  18.990  66.158  1.00  0.00    -0.541 C  
HETATM   34  C   UNL     1     -10.649  19.081  67.676  1.00  0.00    -0.526 C  
HETATM   35  C   UNL     1      -9.788  17.670  65.882  1.00  0.00    -0.073 C  
ENDBRANCH   9  31
ENDBRANCH   2   5
TORSDOF 7
ENDMDL
MODEL       75
REMARK 921   NORMALIZED FREE ENERGY PREDICTED BY IDOCK:   -4.57 KCAL/MOL
REMARK 922        TOTAL FREE ENERGY PREDICTED BY IDOCK:   -7.91 KCAL/MOL
REMARK 923 INTER-LIGAND FREE ENERGY PREDICTED BY IDOCK:   -6.23 KCAL/MOL
REMARK 924 INTRA-LIGAND FREE ENERGY PREDICTED BY IDOCK:   -1.68 KCAL/MOL
REMARK 927      BINDING AFFINITY PREDICTED BY RF-SCORE:    0.00 PKD
ROOT
HETATM    1  C   UNL     1      -6.459   9.972  64.547  1.00  0.00    -0.130 C  
HETATM    2  C   UNL     1      -7.413   8.859  65.037  1.00  0.00    -0.097 C  
HETATM    3  C   UNL     1      -8.549   8.681  63.976  1.00  0.00    -0.026 C  
HETATM    4  C   UNL     1      -6.721   7.473  64.969  1.00  0.00    -0.047 C  
ENDROOT
BRANCH   2   5
HETATM    5  C   UNL     1      -8.029   9.259  66.413  1.00  0.00    -0.107 A  
HETATM    6  C   UNL     1      -7.519  10.467  66.999  1.00  0.00    -0.097 A  
HETATM    7  C   UNL     1      -8.176  11.224  67.985  1.00  0.00    -0.134 A  
HETATM    8  C   UNL     1      -9.431  10.733  68.324  1.00  0.00    -0.164 A  
HETATM    9  C   UNL     1      -9.087   8.604  67.077  1.00  0.00    -0.138 A  
HETATM   10  C   UNL     1      -9.832   9.427  67.950  1.00  0.00    -0.197 A  
BRANCH   7  11
HETATM   11  C   UNL     1      -7.557  12.468  68.585  1.00  0.00    -0.080 A  
HETATM   12  C   UNL     1      -8.238  13.717  68.400  1.00  0.00    -0.146 A  
HETATM   13  C   UNL     1      -7.749  14.980  68.818  1.00  0.00    -0.141 A  
HETATM   14  C   UNL     1      -6.306  12.544  69.243  1.00  0.00    -0.110 A  
HETATM   15  C   UNL     1      -6.568  14.968  69.563  1.00  0.00    -0.155 A  
HETATM   16  C   UNL     1      -5.866  13.774  69.777  1.00  0.00    -0.115 A  
BRANCH  13  17
HETATM   17  C   UNL     1      -8.406  16.261  68.410  1.00  0.00    -0.190 A  
HETATM   18  C   UNL     1      -9.677  16.303  67.804  1.00  0.00    -0.233 A  
HETATM   19  C   UNL     1      -9.528  18.701  67.436  1.00  0.00    -0.315 A  
HETATM   20  C   UNL     1      -7.743  17.500  68.558  1.00  0.00    -0.272 A  
HETATM   21  C   UNL     1     -10.235  17.501  67.323  1.00  0.00    -0.335 A  
HETATM   22  O   UNL     1      -9.822  21.063  67.438  1.00  0.00    -0.393 OA 
HETATM   23  C   UNL     1      -8.293  18.701  68.084  1.00  0.00    -0.332 A  
HETATM   24  C   UNL     1     -10.051  19.989  66.912  1.00  0.00    -0.467 C  
HETATM   25  O   UNL     1     -10.754  19.863  65.765  1.00  0.00    -0.479 OA 
ENDBRANCH  13  17
BRANCH  14  26
HETATM   26  O   UNL     1      -5.406  11.533  69.514  1.00  0.00    -0.051 OA 
BRANCH  26  27
HETATM   27  C   UNL     1      -5.210  11.181  70.883  1.00  0.00    -0.117 C  
BRANCH  27  28
HETATM   28  C   UNL     1      -5.583   9.723  71.137  1.00  0.00    -0.074 C  
HETATM   29  O   UNL     1      -6.263   9.161  70.019  1.00  0.00    -0.036 OA 
HETATM   30  H   UNL     1      -6.495   8.253  70.177  1.00  0.00     0.000 HD 
ENDBRANCH  27  28
ENDBRANCH  26  27
ENDBRANCH  14  26
ENDBRANCH   7  11
BRANCH   9  31
HETATM   31  N   UNL     1      -9.422   7.270  66.886  1.00  0.00    -0.156 NA 
HETATM   32  C   UNL     1      -8.647   6.196  67.526  1.00  0.00    -0.106 C  
HETATM   33  C   UNL     1     -10.661   5.265  66.622  1.00  0.00    -0.334 C  
HETATM   34  C   UNL     1      -9.176   4.962  66.796  1.00  0.00    -0.122 C  
HETATM   35  C   UNL     1     -10.806   6.774  66.895  1.00  0.00    -0.331 C  
ENDBRANCH   9  31
ENDBRANCH   2   5
TORSDOF 7
ENDMDL
MODEL       76
REMARK 921   NORMALIZED FREE ENERGY PREDICTED BY IDOCK:   -4.57 KCAL/MOL
REMARK 922        TOTAL FREE ENERGY PREDICTED BY IDOCK:   -7.91 KCAL/MOL
REMARK 923 INTER-LIGAND FREE ENERGY PREDICTED BY IDOCK:   -6.63 KCAL/MOL
REMARK 924 INTRA-LIGAND FREE ENERGY PREDICTED BY IDOCK:   -1.28 KCAL/MOL
REMARK 927      BINDING AFFINITY PREDICTED BY RF-SCORE:    0.00 PKD
ROOT
HETATM    1  C   UNL     1     -13.442   7.269  70.966  1.00  0.00    -0.125 C  
HETATM    2  C   UNL     1     -12.659   8.562  71.287  1.00  0.00    -0.248 C  
HETATM    3  C   UNL     1     -13.356   9.756  70.556  1.00  0.00     0.113 C  
HETATM    4  C   UNL     1     -12.852   8.967  72.772  1.00  0.00    -0.169 C  
ENDROOT
BRANCH   2   5
HETATM    5  C   UNL     1     -11.185   8.423  70.794  1.00  0.00    -0.290 A  
HETATM    6  C   UNL     1     -10.850   9.162  69.609  1.00  0.00    -0.210 A  
HETATM    7  C   UNL     1      -9.545   9.516  69.223  1.00  0.00    -0.179 A  
HETATM    8  C   UNL     1      -8.568   9.135  70.135  1.00  0.00    -0.195 A  
HETATM    9  C   UNL     1     -10.148   7.726  71.448  1.00  0.00    -0.182 A  
HETATM   10  C   UNL     1      -8.849   8.201  71.162  1.00  0.00    -0.171 A  
BRANCH   7  11
HETATM   11  C   UNL     1      -9.265  10.263  67.937  1.00  0.00    -0.143 A  
HETATM   12  C   UNL     1      -9.227  11.696  67.984  1.00  0.00    -0.178 A  
HETATM   13  C   UNL     1      -9.068  12.543  66.858  1.00  0.00    -0.213 A  
HETATM   14  C   UNL     1      -9.125   9.688  66.651  1.00  0.00    -0.148 A  
HETATM   15  C   UNL     1      -8.819  11.908  65.639  1.00  0.00     0.191 A  
HETATM   16  C   UNL     1      -8.839  10.511  65.540  1.00  0.00    -0.200 A  
BRANCH  13  17
HETATM   17  C   UNL     1      -9.248  14.026  66.948  1.00  0.00    -0.271 A  
HETATM   18  C   UNL     1     -10.510  14.644  66.865  1.00  0.00    -0.270 A  
HETATM   19  C   UNL     1      -9.530  16.868  66.892  1.00  0.00    -0.261 A  
HETATM   20  C   UNL     1      -8.135  14.889  67.056  1.00  0.00    -0.200 A  
HETATM   21  C   UNL     1     -10.657  16.043  66.838  1.00  0.00    -0.300 A  
HETATM   22  O   UNL     1      -8.850  19.089  67.413  1.00  0.00    -0.283 OA 
HETATM   23  C   UNL     1      -8.271  16.286  67.034  1.00  0.00    -0.238 A  
HETATM   24  C   UNL     1      -9.622  18.350  66.828  1.00  0.00    -0.307 C  
HETATM   25  O   UNL     1     -10.602  18.799  66.015  1.00  0.00    -0.459 OA 
ENDBRANCH  13  17
BRANCH  14  26
HETATM   26  O   UNL     1      -9.173   8.358  66.286  1.00  0.00    -0.182 OA 
BRANCH  26  27
HETATM   27  C   UNL     1      -8.015   7.808  65.659  1.00  0.00    -0.118 C  
BRANCH  27  28
HETATM   28  C   UNL     1      -8.394   6.943  64.461  1.00  0.00     0.089 C  
HETATM   29  O   UNL     1      -8.659   7.741  63.310  1.00  0.00    -0.378 OA 
HETATM   30  H   UNL     1      -8.895   7.202  62.564  1.00  0.00     0.000 HD 
ENDBRANCH  27  28
ENDBRANCH  26  27
ENDBRANCH  14  26
ENDBRANCH   7  11
BRANCH   9  31
HETATM   31  N   UNL     1     -10.350   6.677  72.335  1.00  0.00    -0.192 NA 
HETATM   32  C   UNL     1     -11.085   5.470  71.926  1.00  0.00    -0.166 C  
HETATM   33  C   UNL     1     -10.013   5.049  74.026  1.00  0.00    -0.205 C  
HETATM   34  C   UNL     1     -11.310   4.780  73.270  1.00  0.00    -0.408 C  
HETATM   35  C   UNL     1      -9.311   6.177  73.248  1.00  0.00    -0.134 C  
ENDBRANCH   9  31
ENDBRANCH   2   5
TORSDOF 7
ENDMDL
MODEL       77
REMARK 921   NORMALIZED FREE ENERGY PREDICTED BY IDOCK:   -4.55 KCAL/MOL
REMARK 922        TOTAL FREE ENERGY PREDICTED BY IDOCK:   -7.88 KCAL/MOL
REMARK 923 INTER-LIGAND FREE ENERGY PREDICTED BY IDOCK:   -6.71 KCAL/MOL
REMARK 924 INTRA-LIGAND FREE ENERGY PREDICTED BY IDOCK:   -1.17 KCAL/MOL
REMARK 927      BINDING AFFINITY PREDICTED BY RF-SCORE:    0.00 PKD
ROOT
HETATM    1  C   UNL     1      -7.688   7.156  68.438  1.00  0.00    -0.120 C  
HETATM    2  C   UNL     1      -7.177   8.600  68.233  1.00  0.00    -0.086 C  
HETATM    3  C   UNL     1      -5.929   8.817  69.150  1.00  0.00    -0.042 C  
HETATM    4  C   UNL     1      -6.545   8.764  66.825  1.00  0.00    -0.061 C  
ENDROOT
BRANCH   2   5
HETATM    5  C   UNL     1      -8.298   9.617  68.610  1.00  0.00    -0.114 A  
HETATM    6  C   UNL     1      -8.515  10.685  67.674  1.00  0.00    -0.118 A  
HETATM    7  C   UNL     1      -9.690  11.452  67.585  1.00  0.00    -0.183 A  
HETATM    8  C   UNL     1     -10.689  11.050  68.463  1.00  0.00    -0.236 A  
HETATM    9  C   UNL     1      -9.165   9.531  69.719  1.00  0.00    -0.208 A  
HETATM   10  C   UNL     1     -10.406  10.182  69.547  1.00  0.00    -0.263 A  
BRANCH   7  11
HETATM   11  C   UNL     1      -9.832  12.589  66.597  1.00  0.00    -0.245 A  
HETATM   12  C   UNL     1      -9.258  13.858  66.942  1.00  0.00    -0.269 A  
HETATM   13  C   UNL     1      -9.380  15.042  66.172  1.00  0.00    -0.327 A  
HETATM   14  C   UNL     1     -10.565  12.557  65.387  1.00  0.00    -0.281 A  
HETATM   15  C   UNL     1     -10.015  14.910  64.935  1.00  0.00    -0.081 A  
HETATM   16  C   UNL     1     -10.589  13.692  64.548  1.00  0.00    -0.428 A  
BRANCH  13  17
HETATM   17  C   UNL     1      -8.937  16.374  66.689  1.00  0.00    -0.289 A  
HETATM   18  C   UNL     1      -9.846  17.377  67.080  1.00  0.00    -0.286 A  
HETATM   19  C   UNL     1      -8.062  18.985  67.453  1.00  0.00    -0.287 A  
HETATM   20  C   UNL     1      -7.568  16.716  66.748  1.00  0.00    -0.292 A  
HETATM   21  C   UNL     1      -9.422  18.664  67.457  1.00  0.00    -0.311 A  
HETATM   22  O   UNL     1      -6.491  20.527  68.359  1.00  0.00    -0.299 OA 
HETATM   23  C   UNL     1      -7.134  17.996  67.128  1.00  0.00    -0.212 A  
HETATM   24  C   UNL     1      -7.559  20.338  67.804  1.00  0.00    -0.275 C  
HETATM   25  O   UNL     1      -8.369  21.340  67.400  1.00  0.00    -0.102 OA 
ENDBRANCH  13  17
BRANCH  14  26
HETATM   26  O   UNL     1     -11.267  11.509  64.826  1.00  0.00    -0.274 OA 
BRANCH  26  27
HETATM   27  C   UNL     1     -10.626  10.774  63.784  1.00  0.00    -0.046 C  
BRANCH  27  28
HETATM   28  C   UNL     1      -9.184  10.438  64.152  1.00  0.00    -0.259 C  
HETATM   29  O   UNL     1      -9.075   9.108  64.652  1.00  0.00    -0.392 OA 
HETATM   30  H   UNL     1      -8.177   8.898  64.881  1.00  0.00     0.000 HD 
ENDBRANCH  27  28
ENDBRANCH  26  27
ENDBRANCH  14  26
ENDBRANCH   7  11
BRANCH   9  31
HETATM   31  N   UNL     1      -8.871   8.841  70.888  1.00  0.00    -0.180 NA 
HETATM   32  C   UNL     1      -7.778   9.277  71.770  1.00  0.00     0.468 C  
HETATM   33  C   UNL     1      -9.092   7.636  72.919  1.00  0.00    -0.231 C  
HETATM   34  C   UNL     1      -7.648   8.078  72.708  1.00  0.00    -0.160 C  
HETATM   35  C   UNL     1      -9.900   8.334  71.809  1.00  0.00    -0.218 C  
ENDBRANCH   9  31
ENDBRANCH   2   5
TORSDOF 7
ENDMDL
MODEL       78
REMARK 921   NORMALIZED FREE ENERGY PREDICTED BY IDOCK:   -4.54 KCAL/MOL
REMARK 922        TOTAL FREE ENERGY PREDICTED BY IDOCK:   -7.87 KCAL/MOL
REMARK 923 INTER-LIGAND FREE ENERGY PREDICTED BY IDOCK:   -6.38 KCAL/MOL
REMARK 924 INTRA-LIGAND FREE ENERGY PREDICTED BY IDOCK:   -1.49 KCAL/MOL
REMARK 927      BINDING AFFINITY PREDICTED BY RF-SCORE:    0.00 PKD
ROOT
HETATM    1  C   UNL     1     -11.968  14.330  66.876  1.00  0.00    -0.467 C  
HETATM    2  C   UNL     1     -11.316  14.481  68.269  1.00  0.00    -0.319 C  
HETATM    3  C   UNL     1     -11.928  15.739  68.968  1.00  0.00    -0.294 C  
HETATM    4  C   UNL     1     -11.788  13.351  69.222  1.00  0.00    -0.385 C  
ENDROOT
BRANCH   2   5
HETATM    5  C   UNL     1      -9.773  14.655  68.115  1.00  0.00    -0.220 A  
HETATM    6  C   UNL     1      -8.987  13.471  68.316  1.00  0.00    -0.180 A  
HETATM    7  C   UNL     1      -7.674  13.286  67.846  1.00  0.00    -0.152 A  
HETATM    8  C   UNL     1      -7.194  14.350  67.092  1.00  0.00     0.163 A  
HETATM    9  C   UNL     1      -9.102  15.828  67.712  1.00  0.00    -0.188 A  
HETATM   10  C   UNL     1      -7.849  15.607  67.100  1.00  0.00    -0.253 A  
BRANCH   7  11
HETATM   11  C   UNL     1      -6.892  12.022  68.130  1.00  0.00    -0.069 A  
HETATM   12  C   UNL     1      -7.363  10.794  67.559  1.00  0.00    -0.092 A  
HETATM   13  C   UNL     1      -6.799   9.515  67.801  1.00  0.00    -0.078 A  
HETATM   14  C   UNL     1      -5.776  11.908  68.994  1.00  0.00    -0.053 A  
HETATM   15  C   UNL     1      -5.632   9.491  68.567  1.00  0.00    -0.040 A  
HETATM   16  C   UNL     1      -5.127  10.664  69.144  1.00  0.00    -0.041 A  
BRANCH  13  17
HETATM   17  C   UNL     1      -7.463   8.255  67.343  1.00  0.00    -0.094 A  
HETATM   18  C   UNL     1      -6.761   7.047  67.168  1.00  0.00    -0.060 A  
HETATM   19  C   UNL     1      -8.715   5.932  66.249  1.00  0.00    -0.136 A  
HETATM   20  C   UNL     1      -8.833   8.237  66.998  1.00  0.00    -0.146 A  
HETATM   21  C   UNL     1      -7.371   5.900  66.630  1.00  0.00    -0.079 A  
HETATM   22  O   UNL     1     -10.581   4.519  65.817  1.00  0.00    -0.285 OA 
HETATM   23  C   UNL     1      -9.452   7.096  66.465  1.00  0.00    -0.208 A  
HETATM   24  C   UNL     1      -9.401   4.763  65.640  1.00  0.00    -0.163 C  
HETATM   25  O   UNL     1      -8.609   4.032  64.826  1.00  0.00    -0.111 OA 
ENDBRANCH  13  17
BRANCH  14  26
HETATM   26  O   UNL     1      -5.140  12.893  69.723  1.00  0.00    -0.076 OA 
BRANCH  26  27
HETATM   27  C   UNL     1      -5.772  13.326  70.928  1.00  0.00    -0.167 C  
BRANCH  27  28
HETATM   28  C   UNL     1      -5.616  14.832  71.122  1.00  0.00    -0.095 C  
HETATM   29  O   UNL     1      -5.753  15.529  69.887  1.00  0.00    -0.122 OA 
HETATM   30  H   UNL     1      -5.656  16.467  70.008  1.00  0.00     0.000 HD 
ENDBRANCH  27  28
ENDBRANCH  26  27
ENDBRANCH  14  26
ENDBRANCH   7  11
BRANCH   9  31
HETATM   31  N   UNL     1      -9.615  17.111  67.855  1.00  0.00    -0.260 NA 
HETATM   32  C   UNL     1      -8.902  18.128  68.643  1.00  0.00    -0.262 C  
HETATM   33  C   UNL     1     -10.651  19.195  67.402  1.00  0.00    -0.577 C  
HETATM   34  C   UNL     1      -9.964  19.219  68.763  1.00  0.00    -0.511 C  
HETATM   35  C   UNL     1     -10.222  17.868  66.750  1.00  0.00    -0.360 C  
ENDBRANCH   9  31
ENDBRANCH   2   5
TORSDOF 7
ENDMDL
MODEL       79
REMARK 921   NORMALIZED FREE ENERGY PREDICTED BY IDOCK:   -4.54 KCAL/MOL
REMARK 922        TOTAL FREE ENERGY PREDICTED BY IDOCK:   -7.87 KCAL/MOL
REMARK 923 INTER-LIGAND FREE ENERGY PREDICTED BY IDOCK:   -6.84 KCAL/MOL
REMARK 924 INTRA-LIGAND FREE ENERGY PREDICTED BY IDOCK:   -1.03 KCAL/MOL
REMARK 927      BINDING AFFINITY PREDICTED BY RF-SCORE:    0.00 PKD
ROOT
HETATM    1  C   UNL     1      -6.921   8.776  70.251  1.00  0.00    -0.043 C  
HETATM    2  C   UNL     1      -7.604   8.577  68.879  1.00  0.00    -0.096 C  
HETATM    3  C   UNL     1      -6.608   9.026  67.761  1.00  0.00    -0.061 C  
HETATM    4  C   UNL     1      -7.756   7.067  68.555  1.00  0.00    -0.120 C  
ENDROOT
BRANCH   2   5
HETATM    5  C   UNL     1      -8.906   9.433  68.808  1.00  0.00    -0.132 A  
HETATM    6  C   UNL     1      -8.861  10.568  67.930  1.00  0.00    -0.133 A  
HETATM    7  C   UNL     1      -9.988  11.222  67.400  1.00  0.00    -0.206 A  
HETATM    8  C   UNL     1     -11.195  10.634  67.755  1.00  0.00    -0.383 A  
HETATM    9  C   UNL     1     -10.131   9.146  69.446  1.00  0.00    -0.197 A  
HETATM   10  C   UNL     1     -11.267   9.687  68.807  1.00  0.00    -0.011 A  
BRANCH   7  11
HETATM   11  C   UNL     1      -9.863  12.439  66.509  1.00  0.00    -0.244 A  
HETATM   12  C   UNL     1      -9.208  13.600  67.041  1.00  0.00    -0.254 A  
HETATM   13  C   UNL     1      -9.089  14.844  66.372  1.00  0.00    -0.293 A  
HETATM   14  C   UNL     1     -10.416  12.587  65.215  1.00  0.00    -0.287 A  
HETATM   15  C   UNL     1      -9.553  14.883  65.055  1.00  0.00     0.334 A  
HETATM   16  C   UNL     1     -10.196  13.776  64.487  1.00  0.00    -0.206 A  
BRANCH  13  17
HETATM   17  C   UNL     1      -8.582  16.071  67.061  1.00  0.00    -0.238 A  
HETATM   18  C   UNL     1      -8.222  17.241  66.364  1.00  0.00    -0.317 A  
HETATM   19  C   UNL     1      -7.403  18.311  68.387  1.00  0.00    -0.285 A  
HETATM   20  C   UNL     1      -8.378  16.090  68.459  1.00  0.00    -0.191 A  
HETATM   21  C   UNL     1      -7.642  18.347  67.010  1.00  0.00    -0.233 A  
HETATM   22  O   UNL     1      -7.028  19.721  70.267  1.00  0.00    -0.112 OA 
HETATM   23  C   UNL     1      -7.803  17.190  69.114  1.00  0.00    -0.063 A  
HETATM   24  C   UNL     1      -6.757  19.433  69.115  1.00  0.00    -0.333 C  
HETATM   25  O   UNL     1      -5.802  20.067  68.401  1.00  0.00    -0.221 OA 
ENDBRANCH  13  17
BRANCH  14  26
HETATM   26  O   UNL     1     -11.142  11.676  64.474  1.00  0.00    -0.321 OA 
BRANCH  26  27
HETATM   27  C   UNL     1     -12.320  12.152  63.823  1.00  0.00    -0.532 C  
BRANCH  27  28
HETATM   28  C   UNL     1     -13.268  12.819  64.815  1.00  0.00     0.340 C  
HETATM   29  O   UNL     1     -13.095  14.233  64.824  1.00  0.00    -0.599 OA 
HETATM   30  H   UNL     1     -13.685  14.649  65.442  1.00  0.00     0.000 HD 
ENDBRANCH  27  28
ENDBRANCH  26  27
ENDBRANCH  14  26
ENDBRANCH   7  11
BRANCH   9  31
HETATM   31  N   UNL     1     -10.252   8.367  70.590  1.00  0.00    -0.192 NA 
HETATM   32  C   UNL     1     -10.428   8.987  71.912  1.00  0.00    -0.303 C  
HETATM   33  C   UNL     1     -10.862   6.638  72.094  1.00  0.00    -0.259 C  
HETATM   34  C   UNL     1     -10.203   7.794  72.840  1.00  0.00    -0.377 C  
HETATM   35  C   UNL     1     -11.063   7.142  70.653  1.00  0.00    -0.267 C  
ENDBRANCH   9  31
ENDBRANCH   2   5
TORSDOF 7
ENDMDL
MODEL       80
REMARK 921   NORMALIZED FREE ENERGY PREDICTED BY IDOCK:   -4.49 KCAL/MOL
REMARK 922        TOTAL FREE ENERGY PREDICTED BY IDOCK:   -7.79 KCAL/MOL
REMARK 923 INTER-LIGAND FREE ENERGY PREDICTED BY IDOCK:   -8.06 KCAL/MOL
REMARK 924 INTRA-LIGAND FREE ENERGY PREDICTED BY IDOCK:    0.27 KCAL/MOL
REMARK 927      BINDING AFFINITY PREDICTED BY RF-SCORE:    0.00 PKD
ROOT
HETATM    1  C   UNL     1     -10.180  15.478  70.411  1.00  0.00    -0.036 C  
HETATM    2  C   UNL     1     -10.411  15.339  68.889  1.00  0.00    -0.243 C  
HETATM    3  C   UNL     1     -11.369  16.485  68.428  1.00  0.00    -0.209 C  
HETATM    4  C   UNL     1      -9.121  15.694  68.103  1.00  0.00    -0.181 C  
ENDROOT
BRANCH   2   5
HETATM    5  C   UNL     1     -11.051  13.951  68.575  1.00  0.00    -0.289 A  
HETATM    6  C   UNL     1     -10.573  13.294  67.391  1.00  0.00    -0.250 A  
HETATM    7  C   UNL     1     -10.684  11.917  67.133  1.00  0.00    -0.280 A  
HETATM    8  C   UNL     1     -11.262  11.197  68.172  1.00  0.00    -0.356 A  
HETATM    9  C   UNL     1     -11.971  13.254  69.385  1.00  0.00    -0.301 A  
HETATM   10  C   UNL     1     -11.958  11.853  69.218  1.00  0.00    -0.342 A  
BRANCH   7  11
HETATM   11  C   UNL     1     -10.190  11.301  65.842  1.00  0.00    -0.298 A  
HETATM   12  C   UNL     1      -9.683   9.960  65.885  1.00  0.00    -0.326 A  
HETATM   13  C   UNL     1      -9.102   9.274  64.788  1.00  0.00    -0.201 A  
HETATM   14  C   UNL     1     -10.089  11.954  64.590  1.00  0.00    -0.269 A  
HETATM   15  C   UNL     1      -9.140   9.934  63.558  1.00  0.00    -0.289 A  
HETATM   16  C   UNL     1      -9.630  11.243  63.460  1.00  0.00    -0.324 A  
BRANCH  13  17
HETATM   17  C   UNL     1      -8.404   7.961  64.952  1.00  0.00    -0.087 A  
HETATM   18  C   UNL     1      -8.200   7.361  66.211  1.00  0.00    -0.126 A  
HETATM   19  C   UNL     1      -6.869   5.569  65.248  1.00  0.00    -0.052 A  
HETATM   20  C   UNL     1      -7.854   7.284  63.841  1.00  0.00    -0.111 A  
HETATM   21  C   UNL     1      -7.446   6.184  66.363  1.00  0.00    -0.086 A  
HETATM   22  O   UNL     1      -5.996   3.489  64.491  1.00  0.00    -0.020 OA 
HETATM   23  C   UNL     1      -7.103   6.106  63.983  1.00  0.00    -0.053 A  
HETATM   24  C   UNL     1      -6.031   4.347  65.354  1.00  0.00    -0.023 C  
HETATM   25  O   UNL     1      -5.269   4.306  66.469  1.00  0.00    -0.008 OA 
ENDBRANCH  13  17
BRANCH  14  26
HETATM   26  O   UNL     1     -10.437  13.248  64.257  1.00  0.00    -0.424 OA 
BRANCH  26  27
HETATM   27  C   UNL     1     -11.743  13.456  63.720  1.00  0.00    -0.376 C  
BRANCH  27  28
HETATM   28  C   UNL     1     -12.485  14.552  64.480  1.00  0.00    -0.324 C  
HETATM   29  O   UNL     1     -13.147  14.027  65.627  1.00  0.00    -0.639 OA 
HETATM   30  H   UNL     1     -13.609  14.710  66.101  1.00  0.00     0.000 HD 
ENDBRANCH  27  28
ENDBRANCH  26  27
ENDBRANCH  14  26
ENDBRANCH   7  11
BRANCH   9  31
HETATM   31  N   UNL     1     -12.814  13.859  70.309  1.00  0.00    -0.175 NA 
HETATM   32  C   UNL     1     -12.637  13.640  71.752  1.00  0.00    -0.198 C  
HETATM   33  C   UNL     1     -14.176  15.446  71.427  1.00  0.00    -0.519 C  
HETATM   34  C   UNL     1     -13.932  14.227  72.311  1.00  0.00    -0.629 C  
HETATM   35  C   UNL     1     -13.257  15.258  70.206  1.00  0.00    -0.016 C  
ENDBRANCH   9  31
ENDBRANCH   2   5
TORSDOF 7
ENDMDL
MODEL       81
REMARK 921   NORMALIZED FREE ENERGY PREDICTED BY IDOCK:   -4.47 KCAL/MOL
REMARK 922        TOTAL FREE ENERGY PREDICTED BY IDOCK:   -7.77 KCAL/MOL
REMARK 923 INTER-LIGAND FREE ENERGY PREDICTED BY IDOCK:   -6.49 KCAL/MOL
REMARK 924 INTRA-LIGAND FREE ENERGY PREDICTED BY IDOCK:   -1.28 KCAL/MOL
REMARK 927      BINDING AFFINITY PREDICTED BY RF-SCORE:    0.00 PKD
ROOT
HETATM    1  C   UNL     1     -11.353   7.697  72.887  1.00  0.00    -0.394 C  
HETATM    2  C   UNL     1      -9.900   7.172  72.869  1.00  0.00    -0.221 C  
HETATM    3  C   UNL     1      -8.931   8.399  72.905  1.00  0.00    -0.266 C  
HETATM    4  C   UNL     1      -9.551   6.477  74.211  1.00  0.00    -0.280 C  
ENDROOT
BRANCH   2   5
HETATM    5  C   UNL     1      -9.655   6.338  71.574  1.00  0.00    -0.168 A  
HETATM    6  C   UNL     1      -9.651   7.079  70.344  1.00  0.00    -0.169 A  
HETATM    7  C   UNL     1      -9.066   6.642  69.142  1.00  0.00    -0.137 A  
HETATM    8  C   UNL     1      -8.416   5.418  69.248  1.00  0.00    -0.099 A  
HETATM    9  C   UNL     1      -9.351   4.962  71.511  1.00  0.00    -0.149 A  
HETATM   10  C   UNL     1      -8.626   4.572  70.364  1.00  0.00    -0.104 A  
BRANCH   7  11
HETATM   11  C   UNL     1      -9.135   7.463  67.872  1.00  0.00    -0.129 A  
HETATM   12  C   UNL     1      -9.361   8.874  67.993  1.00  0.00    -0.153 A  
HETATM   13  C   UNL     1      -9.541   9.765  66.905  1.00  0.00    -0.228 A  
HETATM   14  C   UNL     1      -9.091   6.960  66.550  1.00  0.00    -0.155 A  
HETATM   15  C   UNL     1      -9.369   9.223  65.629  1.00  0.00    -0.308 A  
HETATM   16  C   UNL     1      -9.141   7.851  65.456  1.00  0.00     0.057 A  
BRANCH  13  17
HETATM   17  C   UNL     1      -9.980  11.182  67.103  1.00  0.00    -0.215 A  
HETATM   18  C   UNL     1      -9.593  12.225  66.238  1.00  0.00    -0.248 A  
HETATM   19  C   UNL     1     -10.647  13.907  67.640  1.00  0.00    -0.247 A  
HETATM   20  C   UNL     1     -10.761  11.553  68.219  1.00  0.00    -0.247 A  
HETATM   21  C   UNL     1      -9.918  13.568  66.497  1.00  0.00    -0.287 A  
HETATM   22  O   UNL     1     -12.013  15.627  68.557  1.00  0.00    -0.313 OA 
HETATM   23  C   UNL     1     -11.095  12.891  68.483  1.00  0.00    -0.299 A  
HETATM   24  C   UNL     1     -10.985  15.312  67.984  1.00  0.00    -0.299 C  
HETATM   25  O   UNL     1     -10.022  16.200  67.654  1.00  0.00    -0.235 OA 
ENDBRANCH  13  17
BRANCH  14  26
HETATM   26  O   UNL     1      -8.944   5.656  66.123  1.00  0.00    -0.142 OA 
BRANCH  26  27
HETATM   27  C   UNL     1     -10.131   4.944  65.773  1.00  0.00    -0.170 C  
BRANCH  27  28
HETATM   28  C   UNL     1      -9.801   3.576  65.184  1.00  0.00    -0.086 C  
HETATM   29  O   UNL     1      -9.634   2.598  66.208  1.00  0.00    -0.383 OA 
HETATM   30  H   UNL     1      -9.429   1.746  65.841  1.00  0.00     0.000 HD 
ENDBRANCH  27  28
ENDBRANCH  26  27
ENDBRANCH  14  26
ENDBRANCH   7  11
BRANCH   9  31
HETATM   31  N   UNL     1      -9.688   4.042  72.495  1.00  0.00    -0.143 NA 
HETATM   32  C   UNL     1     -11.094   3.702  72.765  1.00  0.00     0.167 C  
HETATM   33  C   UNL     1      -9.686   2.133  73.902  1.00  0.00    -0.119 C  
HETATM   34  C   UNL     1     -10.974   2.930  74.078  1.00  0.00    -0.233 C  
HETATM   35  C   UNL     1      -8.963   2.780  72.707  1.00  0.00    -0.085 C  
ENDBRANCH   9  31
ENDBRANCH   2   5
TORSDOF 7
ENDMDL
MODEL       82
REMARK 921   NORMALIZED FREE ENERGY PREDICTED BY IDOCK:   -4.39 KCAL/MOL
REMARK 922        TOTAL FREE ENERGY PREDICTED BY IDOCK:   -7.66 KCAL/MOL
REMARK 923 INTER-LIGAND FREE ENERGY PREDICTED BY IDOCK:   -6.55 KCAL/MOL
REMARK 924 INTRA-LIGAND FREE ENERGY PREDICTED BY IDOCK:   -1.12 KCAL/MOL
REMARK 927      BINDING AFFINITY PREDICTED BY RF-SCORE:    0.00 PKD
ROOT
HETATM    1  C   UNL     1      -8.143  17.972  65.900  1.00  0.00    -0.009 C  
HETATM    2  C   UNL     1      -9.129  17.269  66.861  1.00  0.00    -0.250 C  
HETATM    3  C   UNL     1      -9.612  18.310  67.923  1.00  0.00    -0.297 C  
HETATM    4  C   UNL     1     -10.462  16.942  66.137  1.00  0.00    -0.276 C  
ENDROOT
BRANCH   2   5
HETATM    5  C   UNL     1      -8.417  16.076  67.570  1.00  0.00    -0.178 A  
HETATM    6  C   UNL     1      -9.100  14.814  67.511  1.00  0.00    -0.191 A  
HETATM    7  C   UNL     1      -8.494  13.560  67.703  1.00  0.00    -0.184 A  
HETATM    8  C   UNL     1      -7.121  13.626  67.905  1.00  0.00    -0.151 A  
HETATM    9  C   UNL     1      -7.141  16.103  68.171  1.00  0.00    -0.131 A  
HETATM   10  C   UNL     1      -6.485  14.854  68.215  1.00  0.00    -0.120 A  
BRANCH   7  11
HETATM   11  C   UNL     1      -9.289  12.272  67.665  1.00  0.00    -0.186 A  
HETATM   12  C   UNL     1      -8.678  11.087  68.195  1.00  0.00    -0.141 A  
HETATM   13  C   UNL     1      -9.249   9.790  68.153  1.00  0.00    -0.132 A  
HETATM   14  C   UNL     1     -10.558  12.092  67.065  1.00  0.00    -0.228 A  
HETATM   15  C   UNL     1     -10.551   9.705  67.654  1.00  0.00    -0.334 A  
HETATM   16  C   UNL     1     -11.194  10.833  67.128  1.00  0.00    -0.222 A  
BRANCH  13  17
HETATM   17  C   UNL     1      -8.474   8.569  68.534  1.00  0.00    -0.131 A  
HETATM   18  C   UNL     1      -7.150   8.346  68.107  1.00  0.00    -0.085 A  
HETATM   19  C   UNL     1      -7.105   6.123  69.088  1.00  0.00    -0.070 A  
HETATM   20  C   UNL     1      -9.065   7.537  69.296  1.00  0.00    -0.138 A  
HETATM   21  C   UNL     1      -6.470   7.145  68.376  1.00  0.00    -0.040 A  
HETATM   22  O   UNL     1      -6.659   4.174  70.380  1.00  0.00    -0.030 OA 
HETATM   23  C   UNL     1      -8.394   6.336  69.574  1.00  0.00    -0.118 A  
HETATM   24  C   UNL     1      -6.450   4.819  69.368  1.00  0.00    -0.036 C  
HETATM   25  O   UNL     1      -5.649   4.388  68.370  1.00  0.00    -0.015 OA 
ENDBRANCH  13  17
BRANCH  14  26
HETATM   26  O   UNL     1     -11.356  13.022  66.430  1.00  0.00    -0.295 OA 
BRANCH  26  27
HETATM   27  C   UNL     1     -12.142  12.567  65.328  1.00  0.00    -0.444 C  
BRANCH  27  28
HETATM   28  C   UNL     1     -12.257  13.641  64.251  1.00  0.00    -0.396 C  
HETATM   29  O   UNL     1     -11.802  13.159  62.989  1.00  0.00    -0.834 OA 
HETATM   30  H   UNL     1     -11.873  13.828  62.318  1.00  0.00     0.000 HD 
ENDBRANCH  27  28
ENDBRANCH  26  27
ENDBRANCH  14  26
ENDBRANCH   7  11
BRANCH   9  31
HETATM   31  N   UNL     1      -6.532  17.252  68.660  1.00  0.00    -0.170 NA 
HETATM   32  C   UNL     1      -6.083  17.335  70.058  1.00  0.00    -0.116 C  
HETATM   33  C   UNL     1      -5.178  19.190  68.843  1.00  0.00    -0.196 C  
HETATM   34  C   UNL     1      -5.785  18.827  70.194  1.00  0.00    -0.251 C  
HETATM   35  C   UNL     1      -5.524  18.015  67.909  1.00  0.00    -0.151 C  
ENDBRANCH   9  31
ENDBRANCH   2   5
TORSDOF 7
ENDMDL
MODEL       83
REMARK 921   NORMALIZED FREE ENERGY PREDICTED BY IDOCK:   -4.28 KCAL/MOL
REMARK 922        TOTAL FREE ENERGY PREDICTED BY IDOCK:   -7.50 KCAL/MOL
REMARK 923 INTER-LIGAND FREE ENERGY PREDICTED BY IDOCK:   -6.81 KCAL/MOL
REMARK 924 INTRA-LIGAND FREE ENERGY PREDICTED BY IDOCK:   -0.69 KCAL/MOL
REMARK 927      BINDING AFFINITY PREDICTED BY RF-SCORE:    0.00 PKD
ROOT
HETATM    1  C   UNL     1      -9.332   2.224  68.998  1.00  0.00    -0.198 C  
HETATM    2  C   UNL     1      -8.492   2.692  67.787  1.00  0.00    -0.104 C  
HETATM    3  C   UNL     1      -7.220   1.787  67.690  1.00  0.00    -0.046 C  
HETATM    4  C   UNL     1      -9.207   2.345  66.456  1.00  0.00    -0.037 C  
ENDROOT
BRANCH   2   5
HETATM    5  C   UNL     1      -8.072   4.182  67.979  1.00  0.00    -0.089 A  
HETATM    6  C   UNL     1      -8.151   5.010  66.809  1.00  0.00    -0.108 A  
HETATM    7  C   UNL     1      -8.223   6.414  66.819  1.00  0.00    -0.110 A  
HETATM    8  C   UNL     1      -8.272   6.964  68.095  1.00  0.00    -0.119 A  
HETATM    9  C   UNL     1      -7.717   4.800  69.197  1.00  0.00    -0.071 A  
HETATM   10  C   UNL     1      -7.943   6.192  69.237  1.00  0.00    -0.108 A  
BRANCH   7  11
HETATM   11  C   UNL     1      -8.265   7.224  65.541  1.00  0.00    -0.139 A  
HETATM   12  C   UNL     1      -8.852   8.532  65.590  1.00  0.00    -0.214 A  
HETATM   13  C   UNL     1      -9.049   9.377  64.468  1.00  0.00    -0.205 A  
HETATM   14  C   UNL     1      -7.861   6.780  64.258  1.00  0.00    -0.109 A  
HETATM   15  C   UNL     1      -8.523   8.926  63.256  1.00  0.00    -0.155 A  
HETATM   16  C   UNL     1      -7.935   7.658  63.155  1.00  0.00    -0.108 A  
BRANCH  13  17
HETATM   17  C   UNL     1      -9.854  10.635  64.554  1.00  0.00    -0.388 A  
HETATM   18  C   UNL     1     -10.178  11.247  65.781  1.00  0.00    -0.301 A  
HETATM   19  C   UNL     1     -11.584  12.905  64.694  1.00  0.00    -0.392 A  
HETATM   20  C   UNL     1     -10.389  11.239  63.395  1.00  0.00    -0.449 A  
HETATM   21  C   UNL     1     -11.028  12.365  65.857  1.00  0.00    -0.323 A  
HETATM   22  O   UNL     1     -12.569  14.891  63.828  1.00  0.00    -0.791 OA 
HETATM   23  C   UNL     1     -11.235  12.357  63.459  1.00  0.00    -0.540 A  
HETATM   24  C   UNL     1     -12.518  14.059  64.717  1.00  0.00    -0.365 C  
HETATM   25  O   UNL     1     -13.345  14.068  65.785  1.00  0.00    -0.543 OA 
ENDBRANCH  13  17
BRANCH  14  26
HETATM   26  O   UNL     1      -7.322   5.564  63.892  1.00  0.00    -0.049 OA 
BRANCH  26  27
HETATM   27  C   UNL     1      -7.986   4.837  62.859  1.00  0.00    -0.075 C  
BRANCH  27  28
HETATM   28  C   UNL     1      -9.192   4.079  63.405  1.00  0.00    -0.130 C  
HETATM   29  O   UNL     1     -10.413   4.625  62.912  1.00  0.00    -0.383 OA 
HETATM   30  H   UNL     1     -11.164   4.153  63.252  1.00  0.00     0.000 HD 
ENDBRANCH  27  28
ENDBRANCH  26  27
ENDBRANCH  14  26
ENDBRANCH   7  11
BRANCH   9  31
HETATM   31  N   UNL     1      -7.218   4.121  70.301  1.00  0.00    -0.041 NA 
HETATM   32  C   UNL     1      -6.080   4.652  71.066  1.00  0.00    -0.018 C  
HETATM   33  C   UNL     1      -7.072   2.857  72.303  1.00  0.00    -0.038 C  
HETATM   34  C   UNL     1      -5.716   3.456  71.942  1.00  0.00    -0.008 C  
HETATM   35  C   UNL     1      -8.073   3.488  71.317  1.00  0.00    -0.060 C  
ENDBRANCH   9  31
ENDBRANCH   2   5
TORSDOF 7
ENDMDL
MODEL       84
REMARK 921   NORMALIZED FREE ENERGY PREDICTED BY IDOCK:   -4.24 KCAL/MOL
REMARK 922        TOTAL FREE ENERGY PREDICTED BY IDOCK:   -7.44 KCAL/MOL
REMARK 923 INTER-LIGAND FREE ENERGY PREDICTED BY IDOCK:   -7.74 KCAL/MOL
REMARK 924 INTRA-LIGAND FREE ENERGY PREDICTED BY IDOCK:    0.30 KCAL/MOL
REMARK 927      BINDING AFFINITY PREDICTED BY RF-SCORE:    0.00 PKD
ROOT
HETATM    1  C   UNL     1      -7.983  17.209  68.795  1.00  0.00    -0.255 C  
HETATM    2  C   UNL     1      -9.133  16.178  68.870  1.00  0.00    -0.246 C  
HETATM    3  C   UNL     1      -8.688  15.010  69.811  1.00  0.00     0.120 C  
HETATM    4  C   UNL     1     -10.337  16.755  69.660  1.00  0.00    -0.151 C  
ENDROOT
BRANCH   2   5
HETATM    5  C   UNL     1      -9.442  15.626  67.445  1.00  0.00    -0.217 A  
HETATM    6  C   UNL     1      -9.427  14.196  67.311  1.00  0.00    -0.229 A  
HETATM    7  C   UNL     1     -10.054  13.477  66.278  1.00  0.00    -0.298 A  
HETATM    8  C   UNL     1     -10.765  14.276  65.391  1.00  0.00    -0.353 A  
HETATM    9  C   UNL     1      -9.818  16.385  66.318  1.00  0.00    -0.314 A  
HETATM   10  C   UNL     1     -10.581  15.681  65.361  1.00  0.00    -0.436 A  
BRANCH   7  11
HETATM   11  C   UNL     1      -9.963  11.969  66.181  1.00  0.00    -0.254 A  
HETATM   12  C   UNL     1      -9.836  11.222  67.399  1.00  0.00    -0.201 A  
HETATM   13  C   UNL     1      -9.650   9.818  67.476  1.00  0.00    -0.178 A  
HETATM   14  C   UNL     1      -9.895  11.212  64.987  1.00  0.00    -0.266 A  
HETATM   15  C   UNL     1      -9.710   9.121  66.267  1.00  0.00    -0.344 A  
HETATM   16  C   UNL     1      -9.837   9.803  65.050  1.00  0.00    -0.243 A  
BRANCH  13  17
HETATM   17  C   UNL     1      -9.316   9.131  68.762  1.00  0.00    -0.139 A  
HETATM   18  C   UNL     1      -8.426   9.678  69.707  1.00  0.00    -0.200 A  
HETATM   19  C   UNL     1      -8.526   7.687  71.098  1.00  0.00    -0.116 A  
HETATM   20  C   UNL     1      -9.837   7.852  69.062  1.00  0.00    -0.171 A  
HETATM   21  C   UNL     1      -8.033   8.973  70.859  1.00  0.00    -0.194 A  
HETATM   22  O   UNL     1      -8.860   6.095  72.835  1.00  0.00    -0.127 OA 
HETATM   23  C   UNL     1      -9.454   7.143  70.211  1.00  0.00    -0.162 A  
HETATM   24  C   UNL     1      -8.116   6.881  72.276  1.00  0.00    -0.093 C  
HETATM   25  O   UNL     1      -6.825   7.058  72.633  1.00  0.00    -0.068 OA 
ENDBRANCH  13  17
BRANCH  14  26
HETATM   26  O   UNL     1      -9.931  11.651  63.679  1.00  0.00    -0.315 OA 
BRANCH  26  27
HETATM   27  C   UNL     1     -11.216  11.868  63.096  1.00  0.00    -0.161 C  
BRANCH  27  28
HETATM   28  C   UNL     1     -12.330  11.375  64.016  1.00  0.00     0.385 C  
HETATM   29  O   UNL     1     -13.492  12.192  63.903  1.00  0.00    -0.544 OA 
HETATM   30  H   UNL     1     -14.186  11.886  64.475  1.00  0.00     0.000 HD 
ENDBRANCH  27  28
ENDBRANCH  26  27
ENDBRANCH  14  26
ENDBRANCH   7  11
BRANCH   9  31
HETATM   31  N   UNL     1      -9.514  17.730  66.144  1.00  0.00    -0.501 NA 
HETATM   32  C   UNL     1     -10.384  18.780  66.695  1.00  0.00    -0.420 C  
HETATM   33  C   UNL     1      -8.327  19.776  65.977  1.00  0.00    -0.314 C  
HETATM   34  C   UNL     1      -9.831  20.026  66.004  1.00  0.00    -0.512 C  
HETATM   35  C   UNL     1      -8.155  18.276  66.280  1.00  0.00    -0.223 C  
ENDBRANCH   9  31
ENDBRANCH   2   5
TORSDOF 7
ENDMDL
MODEL       85
REMARK 921   NORMALIZED FREE ENERGY PREDICTED BY IDOCK:   -4.23 KCAL/MOL
REMARK 922        TOTAL FREE ENERGY PREDICTED BY IDOCK:   -7.43 KCAL/MOL
REMARK 923 INTER-LIGAND FREE ENERGY PREDICTED BY IDOCK:   -6.07 KCAL/MOL
REMARK 924 INTRA-LIGAND FREE ENERGY PREDICTED BY IDOCK:   -1.36 KCAL/MOL
REMARK 927      BINDING AFFINITY PREDICTED BY RF-SCORE:    0.00 PKD
ROOT
HETATM    1  C   UNL     1     -12.389  12.072  69.455  1.00  0.00    -0.012 C  
HETATM    2  C   UNL     1     -11.483  13.121  68.771  1.00  0.00    -0.348 C  
HETATM    3  C   UNL     1     -12.127  13.511  67.400  1.00  0.00    -0.360 C  
HETATM    4  C   UNL     1     -11.544  14.474  69.526  1.00  0.00    -0.350 C  
ENDROOT
BRANCH   2   5
HETATM    5  C   UNL     1     -10.062  12.521  68.540  1.00  0.00    -0.186 A  
HETATM    6  C   UNL     1      -9.922  11.119  68.817  1.00  0.00    -0.207 A  
HETATM    7  C   UNL     1      -8.899  10.296  68.313  1.00  0.00    -0.126 A  
HETATM    8  C   UNL     1      -8.030  10.950  67.448  1.00  0.00    -0.113 A  
HETATM    9  C   UNL     1      -8.946  13.198  68.006  1.00  0.00    -0.195 A  
HETATM   10  C   UNL     1      -8.003  12.364  67.367  1.00  0.00    -0.178 A  
BRANCH   7  11
HETATM   11  C   UNL     1      -8.794   8.832  68.680  1.00  0.00    -0.138 A  
HETATM   12  C   UNL     1      -8.788   7.869  67.617  1.00  0.00    -0.128 A  
HETATM   13  C   UNL     1      -8.787   6.462  67.794  1.00  0.00    -0.112 A  
HETATM   14  C   UNL     1      -8.794   8.297  69.991  1.00  0.00    -0.134 A  
HETATM   15  C   UNL     1      -8.669   6.006  69.109  1.00  0.00    -0.120 A  
HETATM   16  C   UNL     1      -8.665   6.905  70.183  1.00  0.00    -0.141 A  
BRANCH  13  17
HETATM   17  C   UNL     1      -8.992   5.517  66.652  1.00  0.00    -0.118 A  
HETATM   18  C   UNL     1     -10.266   5.057  66.267  1.00  0.00    -0.306 A  
HETATM   19  C   UNL     1      -9.326   3.540  64.617  1.00  0.00    -0.150 A  
HETATM   20  C   UNL     1      -7.894   4.987  65.938  1.00  0.00    -0.092 A  
HETATM   21  C   UNL     1     -10.438   4.084  65.266  1.00  0.00    -0.079 A  
HETATM   22  O   UNL     1      -8.682   2.390  62.635  1.00  0.00    -0.074 OA 
HETATM   23  C   UNL     1      -8.056   4.018  64.935  1.00  0.00    -0.093 A  
HETATM   24  C   UNL     1      -9.445   2.482  63.580  1.00  0.00    -0.107 C  
HETATM   25  O   UNL     1     -10.439   1.599  63.816  1.00  0.00    -0.110 OA 
ENDBRANCH  13  17
BRANCH  14  26
HETATM   26  O   UNL     1      -8.852   8.964  71.198  1.00  0.00    -0.201 OA 
BRANCH  26  27
HETATM   27  C   UNL     1      -9.654   8.385  72.228  1.00  0.00    -0.304 C  
BRANCH  27  28
HETATM   28  C   UNL     1     -11.074   8.943  72.202  1.00  0.00    -0.285 C  
HETATM   29  O   UNL     1     -11.556   9.068  70.867  1.00  0.00    -0.279 OA 
HETATM   30  H   UNL     1     -12.440   9.415  70.850  1.00  0.00     0.000 HD 
ENDBRANCH  27  28
ENDBRANCH  26  27
ENDBRANCH  14  26
ENDBRANCH   7  11
BRANCH   9  31
HETATM   31  N   UNL     1      -8.772  14.575  68.052  1.00  0.00    -0.160 NA 
HETATM   32  C   UNL     1      -7.748  15.180  68.917  1.00  0.00    -0.159 C  
HETATM   33  C   UNL     1      -8.583  16.853  67.420  1.00  0.00    -0.214 C  
HETATM   34  C   UNL     1      -8.139  16.656  68.866  1.00  0.00    -0.235 C  
HETATM   35  C   UNL     1      -8.793  15.434  66.859  1.00  0.00    -0.253 C  
ENDBRANCH   9  31
ENDBRANCH   2   5
TORSDOF 7
ENDMDL
MODEL       86
REMARK 921   NORMALIZED FREE ENERGY PREDICTED BY IDOCK:   -4.20 KCAL/MOL
REMARK 922        TOTAL FREE ENERGY PREDICTED BY IDOCK:   -7.39 KCAL/MOL
REMARK 923 INTER-LIGAND FREE ENERGY PREDICTED BY IDOCK:   -6.03 KCAL/MOL
REMARK 924 INTRA-LIGAND FREE ENERGY PREDICTED BY IDOCK:   -1.36 KCAL/MOL
REMARK 927      BINDING AFFINITY PREDICTED BY RF-SCORE:    0.00 PKD
ROOT
HETATM    1  C   UNL     1      -9.385   2.508  69.702  1.00  0.00    -0.171 C  
HETATM    2  C   UNL     1      -8.226   3.530  69.667  1.00  0.00    -0.071 C  
HETATM    3  C   UNL     1      -7.224   3.182  70.816  1.00  0.00    -0.033 C  
HETATM    4  C   UNL     1      -7.335   3.308  68.416  1.00  0.00    -0.050 C  
ENDROOT
BRANCH   2   5
HETATM    5  C   UNL     1      -8.787   4.972  69.868  1.00  0.00    -0.130 A  
HETATM    6  C   UNL     1      -8.484   5.912  68.826  1.00  0.00    -0.111 A  
HETATM    7  C   UNL     1      -9.194   7.102  68.584  1.00  0.00    -0.135 A  
HETATM    8  C   UNL     1     -10.288   7.283  69.422  1.00  0.00    -0.212 A  
HETATM    9  C   UNL     1      -9.627   5.402  70.916  1.00  0.00    -0.173 A  
HETATM   10  C   UNL     1     -10.445   6.508  70.598  1.00  0.00    -0.257 A  
BRANCH   7  11
HETATM   11  C   UNL     1      -8.791   8.066  67.489  1.00  0.00    -0.129 A  
HETATM   12  C   UNL     1      -9.120   9.452  67.656  1.00  0.00    -0.131 A  
HETATM   13  C   UNL     1      -8.895  10.464  66.688  1.00  0.00    -0.144 A  
HETATM   14  C   UNL     1      -8.196   7.722  66.251  1.00  0.00    -0.122 A  
HETATM   15  C   UNL     1      -8.200  10.076  65.541  1.00  0.00    -0.146 A  
HETATM   16  C   UNL     1      -7.851   8.735  65.331  1.00  0.00    -0.100 A  
BRANCH  13  17
HETATM   17  C   UNL     1      -9.449  11.845  66.840  1.00  0.00    -0.205 A  
HETATM   18  C   UNL     1      -9.756  12.666  65.737  1.00  0.00    -0.183 A  
HETATM   19  C   UNL     1     -10.287  14.557  67.169  1.00  0.00    -0.265 A  
HETATM   20  C   UNL     1      -9.630  12.422  68.117  1.00  0.00    -0.218 A  
HETATM   21  C   UNL     1     -10.170  14.001  65.892  1.00  0.00    -0.332 A  
HETATM   22  O   UNL     1     -11.328  16.338  68.357  1.00  0.00    -0.367 OA 
HETATM   23  C   UNL     1     -10.046  13.752  68.282  1.00  0.00    -0.239 A  
HETATM   24  C   UNL     1     -10.681  15.972  67.392  1.00  0.00    -0.306 C  
HETATM   25  O   UNL     1     -10.205  16.822  66.456  1.00  0.00    -0.296 OA 
ENDBRANCH  13  17
BRANCH  14  26
HETATM   26  O   UNL     1      -7.824   6.478  65.785  1.00  0.00    -0.094 OA 
BRANCH  26  27
HETATM   27  C   UNL     1      -8.222   6.129  64.459  1.00  0.00    -0.079 C  
BRANCH  27  28
HETATM   28  C   UNL     1      -8.878   4.752  64.422  1.00  0.00    -0.142 C  
HETATM   29  O   UNL     1     -10.091   4.738  65.170  1.00  0.00    -0.371 OA 
HETATM   30  H   UNL     1     -10.500   3.881  65.148  1.00  0.00     0.000 HD 
ENDBRANCH  27  28
ENDBRANCH  26  27
ENDBRANCH  14  26
ENDBRANCH   7  11
BRANCH   9  31
HETATM   31  N   UNL     1      -9.699   4.791  72.161  1.00  0.00    -0.160 NA 
HETATM   32  C   UNL     1      -8.764   5.153  73.237  1.00  0.00    -0.115 C  
HETATM   33  C   UNL     1     -10.529   3.823  74.161  1.00  0.00    -0.268 C  
HETATM   34  C   UNL     1      -9.022   4.042  74.253  1.00  0.00    -0.098 C  
HETATM   35  C   UNL     1     -10.965   4.518  72.858  1.00  0.00    -0.180 C  
ENDBRANCH   9  31
ENDBRANCH   2   5
TORSDOF 7
ENDMDL
MODEL       87
REMARK 921   NORMALIZED FREE ENERGY PREDICTED BY IDOCK:   -4.13 KCAL/MOL
REMARK 922        TOTAL FREE ENERGY PREDICTED BY IDOCK:   -7.29 KCAL/MOL
REMARK 923 INTER-LIGAND FREE ENERGY PREDICTED BY IDOCK:   -6.13 KCAL/MOL
REMARK 924 INTRA-LIGAND FREE ENERGY PREDICTED BY IDOCK:   -1.16 KCAL/MOL
REMARK 927      BINDING AFFINITY PREDICTED BY RF-SCORE:    0.00 PKD
ROOT
HETATM    1  C   UNL     1      -5.983   8.458  63.296  1.00  0.00    -0.077 C  
HETATM    2  C   UNL     1      -6.794   7.155  63.480  1.00  0.00    -0.052 C  
HETATM    3  C   UNL     1      -7.862   7.073  62.340  1.00  0.00    -0.127 C  
HETATM    4  C   UNL     1      -5.919   5.915  63.159  1.00  0.00    -0.021 C  
ENDROOT
BRANCH   2   5
HETATM    5  C   UNL     1      -7.499   7.163  64.871  1.00  0.00    -0.095 A  
HETATM    6  C   UNL     1      -7.369   8.374  65.632  1.00  0.00    -0.076 A  
HETATM    7  C   UNL     1      -8.221   8.761  66.682  1.00  0.00    -0.107 A  
HETATM    8  C   UNL     1      -9.274   7.882  66.902  1.00  0.00    -0.191 A  
HETATM    9  C   UNL     1      -8.315   6.141  65.400  1.00  0.00    -0.150 A  
HETATM   10  C   UNL     1      -9.269   6.580  66.343  1.00  0.00    -0.178 A  
BRANCH   7  11
HETATM   11  C   UNL     1      -7.998  10.037  67.465  1.00  0.00    -0.106 A  
HETATM   12  C   UNL     1      -8.757  11.197  67.095  1.00  0.00    -0.141 A  
HETATM   13  C   UNL     1      -8.603  12.486  67.665  1.00  0.00    -0.178 A  
HETATM   14  C   UNL     1      -7.035  10.234  68.483  1.00  0.00    -0.066 A  
HETATM   15  C   UNL     1      -7.719  12.581  68.742  1.00  0.00     0.003 A  
HETATM   16  C   UNL     1      -6.957  11.477  69.147  1.00  0.00    -0.113 A  
BRANCH  13  17
HETATM   17  C   UNL     1      -9.274  13.693  67.092  1.00  0.00    -0.244 A  
HETATM   18  C   UNL     1     -10.528  13.634  66.453  1.00  0.00    -0.288 A  
HETATM   19  C   UNL     1     -10.419  15.974  65.807  1.00  0.00    -0.391 A  
HETATM   20  C   UNL     1      -8.641  14.956  67.108  1.00  0.00    -0.248 A  
HETATM   21  C   UNL     1     -11.098  14.753  65.820  1.00  0.00    -0.338 A  
HETATM   22  O   UNL     1     -10.761  18.313  65.521  1.00  0.00    -0.596 OA 
HETATM   23  C   UNL     1      -9.203  16.080  66.482  1.00  0.00    -0.307 A  
HETATM   24  C   UNL     1     -10.954  17.178  65.120  1.00  0.00     0.048 C  
HETATM   25  O   UNL     1     -11.622  16.901  63.980  1.00  0.00    -1.123 OA 
ENDBRANCH  13  17
BRANCH  14  26
HETATM   26  O   UNL     1      -6.130   9.333  69.006  1.00  0.00    -0.042 OA 
BRANCH  26  27
HETATM   27  C   UNL     1      -6.291   8.963  70.376  1.00  0.00    -0.041 C  
BRANCH  27  28
HETATM   28  C   UNL     1      -5.460   9.858  71.291  1.00  0.00    -0.075 C  
HETATM   29  O   UNL     1      -5.870   9.730  72.650  1.00  0.00    -0.298 OA 
HETATM   30  H   UNL     1      -5.353  10.288  73.220  1.00  0.00     0.000 HD 
ENDBRANCH  27  28
ENDBRANCH  26  27
ENDBRANCH  14  26
ENDBRANCH   7  11
BRANCH   9  31
HETATM   31  N   UNL     1      -8.239   4.807  65.021  1.00  0.00    -0.120 NA 
HETATM   32  C   UNL     1      -7.781   3.777  65.966  1.00  0.00    -0.089 C  
HETATM   33  C   UNL     1      -8.733   2.701  64.049  1.00  0.00    -0.087 C  
HETATM   34  C   UNL     1      -7.577   2.581  65.038  1.00  0.00    -0.072 C  
HETATM   35  C   UNL     1      -9.274   4.132  64.223  1.00  0.00    -0.150 C  
ENDBRANCH   9  31
ENDBRANCH   2   5
TORSDOF 7
ENDMDL
MODEL       88
REMARK 921   NORMALIZED FREE ENERGY PREDICTED BY IDOCK:   -4.04 KCAL/MOL
REMARK 922        TOTAL FREE ENERGY PREDICTED BY IDOCK:   -7.17 KCAL/MOL
REMARK 923 INTER-LIGAND FREE ENERGY PREDICTED BY IDOCK:   -5.34 KCAL/MOL
REMARK 924 INTRA-LIGAND FREE ENERGY PREDICTED BY IDOCK:   -1.83 KCAL/MOL
REMARK 927      BINDING AFFINITY PREDICTED BY RF-SCORE:    0.00 PKD
ROOT
HETATM    1  C   UNL     1     -10.216   5.680  68.214  1.00  0.00    -0.239 C  
HETATM    2  C   UNL     1      -9.561   5.102  66.940  1.00  0.00    -0.157 C  
HETATM    3  C   UNL     1      -8.902   3.730  67.301  1.00  0.00    -0.137 C  
HETATM    4  C   UNL     1     -10.641   4.655  65.921  1.00  0.00    -0.265 C  
ENDROOT
BRANCH   2   5
HETATM    5  C   UNL     1      -8.476   6.090  66.409  1.00  0.00    -0.118 A  
HETATM    6  C   UNL     1      -8.341   7.320  67.137  1.00  0.00    -0.118 A  
HETATM    7  C   UNL     1      -7.206   8.151  67.111  1.00  0.00    -0.084 A  
HETATM    8  C   UNL     1      -6.161   7.648  66.346  1.00  0.00    -0.045 A  
HETATM    9  C   UNL     1      -7.570   5.848  65.356  1.00  0.00    -0.085 A  
HETATM   10  C   UNL     1      -6.367   6.583  65.434  1.00  0.00    -0.038 A  
BRANCH   7  11
HETATM   11  C   UNL     1      -7.151   9.456  67.876  1.00  0.00    -0.081 A  
HETATM   12  C   UNL     1      -7.858  10.583  67.339  1.00  0.00    -0.106 A  
HETATM   13  C   UNL     1      -7.832  11.893  67.882  1.00  0.00    -0.138 A  
HETATM   14  C   UNL     1      -6.385   9.710  69.039  1.00  0.00    -0.041 A  
HETATM   15  C   UNL     1      -7.154  12.045  69.093  1.00  0.00    -0.032 A  
HETATM   16  C   UNL     1      -6.452  10.975  69.662  1.00  0.00    -0.123 A  
BRANCH  13  17
HETATM   17  C   UNL     1      -8.418  13.064  67.158  1.00  0.00    -0.176 A  
HETATM   18  C   UNL     1      -7.958  14.381  67.347  1.00  0.00    -0.220 A  
HETATM   19  C   UNL     1      -9.710  15.299  65.935  1.00  0.00    -0.390 A  
HETATM   20  C   UNL     1      -9.520  12.906  66.288  1.00  0.00    -0.205 A  
HETATM   21  C   UNL     1      -8.589  15.486  66.748  1.00  0.00    -0.307 A  
HETATM   22  O   UNL     1     -10.987  16.350  64.223  1.00  0.00    -0.788 OA 
HETATM   23  C   UNL     1     -10.154  14.002  65.682  1.00  0.00    -0.342 A  
HETATM   24  C   UNL     1     -10.440  16.431  65.308  1.00  0.00    -0.261 C  
HETATM   25  O   UNL     1     -10.489  17.540  66.079  1.00  0.00    -0.367 OA 
ENDBRANCH  13  17
BRANCH  14  26
HETATM   26  O   UNL     1      -5.568   8.850  69.743  1.00  0.00    -0.029 OA 
BRANCH  26  27
HETATM   27  C   UNL     1      -6.161   8.108  70.809  1.00  0.00    -0.033 C  
BRANCH  27  28
HETATM   28  C   UNL     1      -6.128   6.609  70.523  1.00  0.00    -0.027 C  
HETATM   29  O   UNL     1      -5.333   6.318  69.377  1.00  0.00    -0.011 OA 
HETATM   30  H   UNL     1      -5.312   5.385  69.199  1.00  0.00     0.000 HD 
ENDBRANCH  27  28
ENDBRANCH  26  27
ENDBRANCH  14  26
ENDBRANCH   7  11
BRANCH   9  31
HETATM   31  N   UNL     1      -7.792   4.942  64.327  1.00  0.00    -0.084 NA 
HETATM   32  C   UNL     1      -8.350   5.380  63.039  1.00  0.00    -0.099 C  
HETATM   33  C   UNL     1      -7.537   3.139  62.807  1.00  0.00    -0.054 C  
HETATM   34  C   UNL     1      -8.689   4.043  62.383  1.00  0.00    -0.090 C  
HETATM   35  C   UNL     1      -6.843   3.877  63.967  1.00  0.00    -0.045 C  
ENDBRANCH   9  31
ENDBRANCH   2   5
TORSDOF 7
ENDMDL
MODEL       89
REMARK 921   NORMALIZED FREE ENERGY PREDICTED BY IDOCK:   -3.96 KCAL/MOL
REMARK 922        TOTAL FREE ENERGY PREDICTED BY IDOCK:   -7.06 KCAL/MOL
REMARK 923 INTER-LIGAND FREE ENERGY PREDICTED BY IDOCK:   -5.42 KCAL/MOL
REMARK 924 INTRA-LIGAND FREE ENERGY PREDICTED BY IDOCK:   -1.63 KCAL/MOL
REMARK 927      BINDING AFFINITY PREDICTED BY RF-SCORE:    0.00 PKD
ROOT
HETATM    1  C   UNL     1     -10.437   4.720  66.558  1.00  0.00    -0.251 C  
HETATM    2  C   UNL     1      -9.186   3.964  66.056  1.00  0.00    -0.158 C  
HETATM    3  C   UNL     1      -9.094   2.601  66.817  1.00  0.00    -0.149 C  
HETATM    4  C   UNL     1      -9.386   3.478  64.597  1.00  0.00    -0.150 C  
ENDROOT
BRANCH   2   5
HETATM    5  C   UNL     1      -7.908   4.815  66.332  1.00  0.00    -0.099 A  
HETATM    6  C   UNL     1      -8.128   6.090  66.956  1.00  0.00    -0.106 A  
HETATM    7  C   UNL     1      -7.153   6.825  67.654  1.00  0.00    -0.085 A  
HETATM    8  C   UNL     1      -5.927   6.178  67.750  1.00  0.00    -0.017 A  
HETATM    9  C   UNL     1      -6.574   4.415  66.114  1.00  0.00    -0.042 A  
HETATM   10  C   UNL     1      -5.624   5.058  66.936  1.00  0.00    -0.013 A  
BRANCH   7  11
HETATM   11  C   UNL     1      -7.450   8.183  68.253  1.00  0.00    -0.097 A  
HETATM   12  C   UNL     1      -8.431   9.005  67.607  1.00  0.00    -0.117 A  
HETATM   13  C   UNL     1      -8.758  10.332  67.987  1.00  0.00    -0.122 A  
HETATM   14  C   UNL     1      -6.781   8.774  69.351  1.00  0.00    -0.049 A  
HETATM   15  C   UNL     1      -8.146  10.809  69.148  1.00  0.00    -0.133 A  
HETATM   16  C   UNL     1      -7.183  10.044  69.819  1.00  0.00    -0.127 A  
BRANCH  13  17
HETATM   17  C   UNL     1      -9.635  11.206  67.146  1.00  0.00    -0.192 A  
HETATM   18  C   UNL     1     -10.292  12.341  67.660  1.00  0.00    -0.214 A  
HETATM   19  C   UNL     1     -11.481  12.716  65.573  1.00  0.00    -0.375 A  
HETATM   20  C   UNL     1      -9.899  10.889  65.795  1.00  0.00    -0.286 A  
HETATM   21  C   UNL     1     -11.201  13.089  66.891  1.00  0.00    -0.331 A  
HETATM   22  O   UNL     1     -12.340  13.562  63.521  1.00  0.00    -0.711 OA 
HETATM   23  C   UNL     1     -10.802  11.631  65.018  1.00  0.00    -0.346 A  
HETATM   24  C   UNL     1     -12.461  13.444  64.728  1.00  0.00    -0.365 C  
HETATM   25  O   UNL     1     -13.528  13.912  65.412  1.00  0.00    -0.672 OA 
ENDBRANCH  13  17
BRANCH  14  26
HETATM   26  O   UNL     1      -5.764   8.257  70.127  1.00  0.00    -0.022 OA 
BRANCH  26  27
HETATM   27  C   UNL     1      -6.111   7.774  71.425  1.00  0.00    -0.035 C  
BRANCH  27  28
HETATM   28  C   UNL     1      -6.994   6.533  71.334  1.00  0.00    -0.075 C  
HETATM   29  O   UNL     1      -6.230   5.341  71.507  1.00  0.00    -0.028 OA 
HETATM   30  H   UNL     1      -6.780   4.568  71.450  1.00  0.00     0.000 HD 
ENDBRANCH  27  28
ENDBRANCH  26  27
ENDBRANCH  14  26
ENDBRANCH   7  11
BRANCH   9  31
HETATM   31  N   UNL     1      -6.190   3.443  65.199  1.00  0.00    -0.023 NA 
HETATM   32  C   UNL     1      -5.689   3.813  63.866  1.00  0.00    -0.014 C  
HETATM   33  C   UNL     1      -5.260   1.485  64.235  1.00  0.00    -0.004 C  
HETATM   34  C   UNL     1      -5.700   2.464  63.151  1.00  0.00    -0.009 C  
HETATM   35  C   UNL     1      -5.407   2.252  65.563  1.00  0.00    -0.008 C  
ENDBRANCH   9  31
ENDBRANCH   2   5
TORSDOF 7
ENDMDL
MODEL       90
REMARK 921   NORMALIZED FREE ENERGY PREDICTED BY IDOCK:   -3.87 KCAL/MOL
REMARK 922        TOTAL FREE ENERGY PREDICTED BY IDOCK:   -6.93 KCAL/MOL
REMARK 923 INTER-LIGAND FREE ENERGY PREDICTED BY IDOCK:   -5.98 KCAL/MOL
REMARK 924 INTRA-LIGAND FREE ENERGY PREDICTED BY IDOCK:   -0.95 KCAL/MOL
REMARK 927      BINDING AFFINITY PREDICTED BY RF-SCORE:    0.00 PKD
ROOT
HETATM    1  C   UNL     1      -6.936  19.160  65.866  1.00  0.00    -0.301 C  
HETATM    2  C   UNL     1      -6.207  18.120  66.747  1.00  0.00    -0.206 C  
HETATM    3  C   UNL     1      -5.177  17.352  65.855  1.00  0.00    -0.033 C  
HETATM    4  C   UNL     1      -5.263  18.821  67.757  1.00  0.00    -0.170 C  
ENDROOT
BRANCH   2   5
HETATM    5  C   UNL     1      -7.242  17.118  67.347  1.00  0.00    -0.178 A  
HETATM    6  C   UNL     1      -6.725  15.829  67.714  1.00  0.00    -0.178 A  
HETATM    7  C   UNL     1      -7.338  14.942  68.617  1.00  0.00    -0.120 A  
HETATM    8  C   UNL     1      -8.496  15.446  69.197  1.00  0.00    -0.241 A  
HETATM    9  C   UNL     1      -8.593  17.391  67.644  1.00  0.00    -0.217 A  
HETATM   10  C   UNL     1      -9.145  16.587  68.665  1.00  0.00    -0.239 A  
BRANCH   7  11
HETATM   11  C   UNL     1      -6.753  13.581  68.925  1.00  0.00    -0.109 A  
HETATM   12  C   UNL     1      -7.289  12.444  68.234  1.00  0.00    -0.113 A  
HETATM   13  C   UNL     1      -6.916  11.097  68.473  1.00  0.00    -0.072 A  
HETATM   14  C   UNL     1      -5.777  13.296  69.910  1.00  0.00    -0.122 A  
HETATM   15  C   UNL     1      -5.866  10.899  69.372  1.00  0.00    -0.045 A  
HETATM   16  C   UNL     1      -5.304  11.976  70.070  1.00  0.00    -0.097 A  
BRANCH  13  17
HETATM   17  C   UNL     1      -7.660   9.948  67.869  1.00  0.00    -0.090 A  
HETATM   18  C   UNL     1      -8.870  10.112  67.167  1.00  0.00    -0.138 A  
HETATM   19  C   UNL     1      -9.171   7.712  66.931  1.00  0.00    -0.179 A  
HETATM   20  C   UNL     1      -7.210   8.620  68.036  1.00  0.00    -0.087 A  
HETATM   21  C   UNL     1      -9.618   9.016  66.702  1.00  0.00    -0.274 A  
HETATM   22  O   UNL     1      -9.408   5.478  66.146  1.00  0.00    -0.155 OA 
HETATM   23  C   UNL     1      -7.947   7.519  67.572  1.00  0.00    -0.116 A  
HETATM   24  C   UNL     1      -9.938   6.516  66.498  1.00  0.00    -0.092 C  
HETATM   25  O   UNL     1     -11.278   6.669  66.586  1.00  0.00    -0.231 OA 
ENDBRANCH  13  17
BRANCH  14  26
HETATM   26  O   UNL     1      -5.127  14.164  70.764  1.00  0.00    -0.100 OA 
BRANCH  26  27
HETATM   27  C   UNL     1      -5.796  14.513  71.976  1.00  0.00     0.138 C  
BRANCH  27  28
HETATM   28  C   UNL     1      -5.144  13.839  73.180  1.00  0.00    -0.199 C  
HETATM   29  O   UNL     1      -5.965  13.948  74.340  1.00  0.00    -0.669 OA 
HETATM   30  H   UNL     1      -5.559  13.528  75.090  1.00  0.00     0.000 HD 
ENDBRANCH  27  28
ENDBRANCH  26  27
ENDBRANCH  14  26
ENDBRANCH   7  11
BRANCH   9  31
HETATM   31  N   UNL     1      -9.343  18.385  67.028  1.00  0.00    -0.274 NA 
HETATM   32  C   UNL     1     -10.515  18.050  66.205  1.00  0.00    -0.331 C  
HETATM   33  C   UNL     1     -10.504  20.410  66.610  1.00  0.00    -0.183 C  
HETATM   34  C   UNL     1     -10.798  19.385  65.520  1.00  0.00    -0.204 C  
HETATM   35  C   UNL     1      -9.713  19.646  67.688  1.00  0.00    -0.358 C  
ENDBRANCH   9  31
ENDBRANCH   2   5
TORSDOF 7
ENDMDL
MODEL       91
REMARK 921   NORMALIZED FREE ENERGY PREDICTED BY IDOCK:   -3.84 KCAL/MOL
REMARK 922        TOTAL FREE ENERGY PREDICTED BY IDOCK:   -6.89 KCAL/MOL
REMARK 923 INTER-LIGAND FREE ENERGY PREDICTED BY IDOCK:   -6.57 KCAL/MOL
REMARK 924 INTRA-LIGAND FREE ENERGY PREDICTED BY IDOCK:   -0.31 KCAL/MOL
REMARK 927      BINDING AFFINITY PREDICTED BY RF-SCORE:    0.00 PKD
ROOT
HETATM    1  C   UNL     1     -11.138  16.959  70.668  1.00  0.00     0.429 C  
HETATM    2  C   UNL     1     -10.706  16.141  69.430  1.00  0.00    -0.307 C  
HETATM    3  C   UNL     1     -11.244  16.862  68.150  1.00  0.00    -0.093 C  
HETATM    4  C   UNL     1      -9.174  16.246  69.210  1.00  0.00    -0.192 C  
ENDROOT
BRANCH   2   5
HETATM    5  C   UNL     1     -11.296  14.700  69.517  1.00  0.00    -0.314 A  
HETATM    6  C   UNL     1     -11.120  13.881  68.350  1.00  0.00    -0.278 A  
HETATM    7  C   UNL     1     -11.190  12.476  68.334  1.00  0.00    -0.313 A  
HETATM    8  C   UNL     1     -11.392  11.911  69.587  1.00  0.00    -0.266 A  
HETATM    9  C   UNL     1     -11.892  14.108  70.649  1.00  0.00    -0.263 A  
HETATM   10  C   UNL     1     -11.815  12.699  70.686  1.00  0.00    -0.016 A  
BRANCH   7  11
HETATM   11  C   UNL     1     -11.032  11.681  67.056  1.00  0.00    -0.338 A  
HETATM   12  C   UNL     1     -10.765  10.276  67.165  1.00  0.00    -0.303 A  
HETATM   13  C   UNL     1     -10.503   9.411  66.072  1.00  0.00     0.088 A  
HETATM   14  C   UNL     1     -11.028  12.205  65.741  1.00  0.00    -0.297 A  
HETATM   15  C   UNL     1     -10.631   9.970  64.799  1.00  0.00     0.806 A  
HETATM   16  C   UNL     1     -10.895  11.336  64.638  1.00  0.00    -0.335 A  
BRANCH  13  17
HETATM   17  C   UNL     1     -10.027   8.006  66.269  1.00  0.00    -0.116 A  
HETATM   18  C   UNL     1      -8.763   7.564  65.833  1.00  0.00    -0.170 A  
HETATM   19  C   UNL     1      -9.244   5.264  66.453  1.00  0.00    -0.145 A  
HETATM   20  C   UNL     1     -10.864   7.028  66.851  1.00  0.00    -0.350 A  
HETATM   21  C   UNL     1      -8.371   6.217  65.921  1.00  0.00    -0.140 A  
HETATM   22  O   UNL     1      -9.291   3.095  67.431  1.00  0.00    -0.193 OA 
HETATM   23  C   UNL     1     -10.480   5.681  66.947  1.00  0.00    -0.349 A  
HETATM   24  C   UNL     1      -8.900   3.822  66.535  1.00  0.00    -0.125 C  
HETATM   25  O   UNL     1      -8.161   3.379  65.494  1.00  0.00    -0.096 OA 
ENDBRANCH  13  17
BRANCH  14  26
HETATM   26  O   UNL     1     -11.197  13.512  65.329  1.00  0.00    -0.288 OA 
BRANCH  26  27
HETATM   27  C   UNL     1     -10.051  14.190  64.817  1.00  0.00    -0.165 C  
BRANCH  27  28
HETATM   28  C   UNL     1      -9.438  15.111  65.869  1.00  0.00    -0.299 C  
HETATM   29  O   UNL     1      -8.308  14.505  66.491  1.00  0.00    -0.399 OA 
HETATM   30  H   UNL     1      -7.927  15.078  67.146  1.00  0.00     0.000 HD 
ENDBRANCH  27  28
ENDBRANCH  26  27
ENDBRANCH  14  26
ENDBRANCH   7  11
BRANCH   9  31
HETATM   31  N   UNL     1     -12.486  14.822  71.682  1.00  0.00    -0.319 NA 
HETATM   32  C   UNL     1     -13.949  14.913  71.797  1.00  0.00    -0.489 C  
HETATM   33  C   UNL     1     -12.962  15.733  73.820  1.00  0.00    -0.633 C  
HETATM   34  C   UNL     1     -14.105  16.010  72.849  1.00  0.00    -0.177 C  
HETATM   35  C   UNL     1     -12.015  14.774  73.075  1.00  0.00    -0.127 C  
ENDBRANCH   9  31
ENDBRANCH   2   5
TORSDOF 7
ENDMDL
MODEL       92
REMARK 921   NORMALIZED FREE ENERGY PREDICTED BY IDOCK:   -3.80 KCAL/MOL
REMARK 922        TOTAL FREE ENERGY PREDICTED BY IDOCK:   -6.83 KCAL/MOL
REMARK 923 INTER-LIGAND FREE ENERGY PREDICTED BY IDOCK:   -6.10 KCAL/MOL
REMARK 924 INTRA-LIGAND FREE ENERGY PREDICTED BY IDOCK:   -0.74 KCAL/MOL
REMARK 927      BINDING AFFINITY PREDICTED BY RF-SCORE:    0.00 PKD
ROOT
HETATM    1  C   UNL     1      -9.324   5.321  69.520  1.00  0.00    -0.176 C  
HETATM    2  C   UNL     1      -7.889   5.750  69.139  1.00  0.00    -0.090 C  
HETATM    3  C   UNL     1      -7.183   6.303  70.421  1.00  0.00    -0.083 C  
HETATM    4  C   UNL     1      -7.011   4.510  68.826  1.00  0.00    -0.052 C  
ENDROOT
BRANCH   2   5
HETATM    5  C   UNL     1      -7.942   6.856  68.041  1.00  0.00    -0.115 A  
HETATM    6  C   UNL     1      -7.737   8.202  68.497  1.00  0.00    -0.112 A  
HETATM    7  C   UNL     1      -7.342   9.278  67.683  1.00  0.00    -0.084 A  
HETATM    8  C   UNL     1      -7.098   8.920  66.362  1.00  0.00    -0.083 A  
HETATM    9  C   UNL     1      -8.078   6.648  66.652  1.00  0.00    -0.110 A  
HETATM   10  C   UNL     1      -7.534   7.674  65.849  1.00  0.00    -0.082 A  
BRANCH   7  11
HETATM   11  C   UNL     1      -7.183  10.680  68.229  1.00  0.00    -0.083 A  
HETATM   12  C   UNL     1      -7.963  11.727  67.636  1.00  0.00    -0.143 A  
HETATM   13  C   UNL     1      -7.866  13.102  67.968  1.00  0.00    -0.147 A  
HETATM   14  C   UNL     1      -6.259  11.090  69.220  1.00  0.00    -0.059 A  
HETATM   15  C   UNL     1      -7.021  13.420  69.034  1.00  0.00    -0.084 A  
HETATM   16  C   UNL     1      -6.241  12.434  69.651  1.00  0.00    -0.130 A  
BRANCH  13  17
HETATM   17  C   UNL     1      -8.554  14.163  67.169  1.00  0.00    -0.230 A  
HETATM   18  C   UNL     1      -7.978  15.427  66.929  1.00  0.00    -0.230 A  
HETATM   19  C   UNL     1      -9.990  16.243  65.836  1.00  0.00    -0.366 A  
HETATM   20  C   UNL     1      -9.859  13.966  66.665  1.00  0.00    -0.288 A  
HETATM   21  C   UNL     1      -8.680  16.454  66.273  1.00  0.00    -0.369 A  
HETATM   22  O   UNL     1     -11.619  17.068  64.309  1.00  0.00    -0.996 OA 
HETATM   23  C   UNL     1     -10.565  14.984  66.006  1.00  0.00    -0.329 A  
HETATM   24  C   UNL     1     -10.792  17.303  65.173  1.00  0.00     0.058 C  
HETATM   25  O   UNL     1     -10.560  18.542  65.657  1.00  0.00    -0.616 OA 
ENDBRANCH  13  17
BRANCH  14  26
HETATM   26  O   UNL     1      -5.346  10.329  69.922  1.00  0.00    -0.037 OA 
BRANCH  26  27
HETATM   27  C   UNL     1      -5.377  10.417  71.346  1.00  0.00    -0.055 C  
BRANCH  27  28
HETATM   28  C   UNL     1      -5.968   9.153  71.964  1.00  0.00    -0.040 C  
HETATM   29  O   UNL     1      -7.392   9.163  71.899  1.00  0.00    -0.334 OA 
HETATM   30  H   UNL     1      -7.760   8.376  72.284  1.00  0.00     0.000 HD 
ENDBRANCH  27  28
ENDBRANCH  26  27
ENDBRANCH  14  26
ENDBRANCH   7  11
BRANCH   9  31
HETATM   31  N   UNL     1      -8.660   5.522  66.084  1.00  0.00    -0.125 NA 
HETATM   32  C   UNL     1      -7.969   4.224  66.097  1.00  0.00    -0.098 C  
HETATM   33  C   UNL     1     -10.242   3.884  65.423  1.00  0.00    -0.051 C  
HETATM   34  C   UNL     1      -8.822   3.414  65.123  1.00  0.00    -0.124 C  
HETATM   35  C   UNL     1     -10.081   5.178  66.242  1.00  0.00    -0.231 C  
ENDBRANCH   9  31
ENDBRANCH   2   5
TORSDOF 7
ENDMDL
MODEL       93
REMARK 921   NORMALIZED FREE ENERGY PREDICTED BY IDOCK:   -3.75 KCAL/MOL
REMARK 922        TOTAL FREE ENERGY PREDICTED BY IDOCK:   -6.75 KCAL/MOL
REMARK 923 INTER-LIGAND FREE ENERGY PREDICTED BY IDOCK:   -5.50 KCAL/MOL
REMARK 924 INTRA-LIGAND FREE ENERGY PREDICTED BY IDOCK:   -1.25 KCAL/MOL
REMARK 927      BINDING AFFINITY PREDICTED BY RF-SCORE:    0.00 PKD
ROOT
HETATM    1  C   UNL     1      -5.816   8.304  70.135  1.00  0.00    -0.025 C  
HETATM    2  C   UNL     1      -6.496   7.897  68.808  1.00  0.00    -0.048 C  
HETATM    3  C   UNL     1      -5.596   8.381  67.624  1.00  0.00    -0.039 C  
HETATM    4  C   UNL     1      -6.444   6.359  68.613  1.00  0.00    -0.049 C  
ENDROOT
BRANCH   2   5
HETATM    5  C   UNL     1      -7.905   8.560  68.712  1.00  0.00    -0.110 A  
HETATM    6  C   UNL     1      -8.123   9.403  67.570  1.00  0.00    -0.110 A  
HETATM    7  C   UNL     1      -9.384   9.762  67.062  1.00  0.00    -0.178 A  
HETATM    8  C   UNL     1     -10.447   9.173  67.737  1.00  0.00    -0.306 A  
HETATM    9  C   UNL     1      -8.994   8.336  69.579  1.00  0.00    -0.150 A  
HETATM   10  C   UNL     1     -10.262   8.556  68.999  1.00  0.00    -0.218 A  
BRANCH   7  11
HETATM   11  C   UNL     1      -9.536  10.688  65.875  1.00  0.00    -0.253 A  
HETATM   12  C   UNL     1      -9.665  12.094  66.129  1.00  0.00    -0.254 A  
HETATM   13  C   UNL     1      -9.905  13.080  65.138  1.00  0.00    -0.078 A  
HETATM   14  C   UNL     1      -9.660  10.296  64.521  1.00  0.00    -0.316 A  
HETATM   15  C   UNL     1      -9.899  12.638  63.814  1.00  0.00     0.117 A  
HETATM   16  C   UNL     1      -9.772  11.276  63.512  1.00  0.00    -0.364 A  
BRANCH  13  17
HETATM   17  C   UNL     1     -10.237  14.496  65.492  1.00  0.00    -0.394 A  
HETATM   18  C   UNL     1     -11.046  15.312  64.678  1.00  0.00    -0.346 A  
HETATM   19  C   UNL     1     -10.660  17.260  66.080  1.00  0.00    -0.217 A  
HETATM   20  C   UNL     1      -9.692  15.107  66.643  1.00  0.00    -0.274 A  
HETATM   21  C   UNL     1     -11.259  16.673  64.962  1.00  0.00    -0.030 A  
HETATM   22  O   UNL     1     -10.842  19.124  67.549  1.00  0.00    -0.473 OA 
HETATM   23  C   UNL     1      -9.902  16.463  66.937  1.00  0.00    -0.266 A  
HETATM   24  C   UNL     1     -10.818  18.700  66.407  1.00  0.00    -0.061 C  
HETATM   25  O   UNL     1     -10.874  19.501  65.321  1.00  0.00    -0.449 OA 
ENDBRANCH  13  17
BRANCH  14  26
HETATM   26  O   UNL     1      -9.636   9.026  63.981  1.00  0.00     0.649 OA 
BRANCH  26  27
HETATM   27  C   UNL     1      -8.361   8.402  63.830  1.00  0.00    -0.057 C  
BRANCH  27  28
HETATM   28  C   UNL     1      -7.255   9.441  63.665  1.00  0.00    -0.101 C  
HETATM   29  O   UNL     1      -6.051   9.019  64.301  1.00  0.00    -0.070 OA 
HETATM   30  H   UNL     1      -5.362   9.666  64.199  1.00  0.00     0.000 HD 
ENDBRANCH  27  28
ENDBRANCH  26  27
ENDBRANCH  14  26
ENDBRANCH   7  11
BRANCH   9  31
HETATM   31  N   UNL     1      -8.871   7.899  70.892  1.00  0.00    -0.136 NA 
HETATM   32  C   UNL     1      -9.524   8.621  71.994  1.00  0.00    -0.300 C  
HETATM   33  C   UNL     1      -8.736   6.511  72.810  1.00  0.00    -0.126 C  
HETATM   34  C   UNL     1      -8.866   7.977  73.213  1.00  0.00    -0.330 C  
HETATM   35  C   UNL     1      -8.952   6.485  71.285  1.00  0.00    -0.141 C  
ENDBRANCH   9  31
ENDBRANCH   2   5
TORSDOF 7
ENDMDL
MODEL       94
REMARK 921   NORMALIZED FREE ENERGY PREDICTED BY IDOCK:   -3.37 KCAL/MOL
REMARK 922        TOTAL FREE ENERGY PREDICTED BY IDOCK:   -6.22 KCAL/MOL
REMARK 923 INTER-LIGAND FREE ENERGY PREDICTED BY IDOCK:   -5.25 KCAL/MOL
REMARK 924 INTRA-LIGAND FREE ENERGY PREDICTED BY IDOCK:   -0.97 KCAL/MOL
REMARK 927      BINDING AFFINITY PREDICTED BY RF-SCORE:    0.00 PKD
ROOT
HETATM    1  C   UNL     1     -10.075  14.587  68.129  1.00  0.00    -0.227 C  
HETATM    2  C   UNL     1     -11.088  13.421  68.078  1.00  0.00    -0.281 C  
HETATM    3  C   UNL     1     -11.365  12.944  69.542  1.00  0.00    -0.221 C  
HETATM    4  C   UNL     1     -12.491  13.930  67.659  1.00  0.00     0.146 C  
ENDROOT
BRANCH   2   5
HETATM    5  C   UNL     1     -10.499  12.246  67.238  1.00  0.00    -0.236 A  
HETATM    6  C   UNL     1      -9.564  11.395  67.921  1.00  0.00    -0.180 A  
HETATM    7  C   UNL     1      -9.229  10.087  67.528  1.00  0.00    -0.151 A  
HETATM    8  C   UNL     1      -9.938   9.636  66.421  1.00  0.00    -0.323 A  
HETATM    9  C   UNL     1     -10.864  11.894  65.922  1.00  0.00    -0.297 A  
HETATM   10  C   UNL     1     -10.661  10.535  65.599  1.00  0.00    -0.132 A  
BRANCH   7  11
HETATM   11  C   UNL     1      -8.204   9.263  68.277  1.00  0.00    -0.115 A  
HETATM   12  C   UNL     1      -8.662   8.109  68.996  1.00  0.00    -0.144 A  
HETATM   13  C   UNL     1      -7.848   7.288  69.818  1.00  0.00    -0.117 A  
HETATM   14  C   UNL     1      -6.830   9.571  68.422  1.00  0.00    -0.062 A  
HETATM   15  C   UNL     1      -6.483   7.579  69.821  1.00  0.00    -0.035 A  
HETATM   16  C   UNL     1      -5.984   8.692  69.131  1.00  0.00    -0.042 A  
BRANCH  13  17
HETATM   17  C   UNL     1      -8.427   6.229  70.702  1.00  0.00    -0.134 A  
HETATM   18  C   UNL     1      -8.191   4.856  70.497  1.00  0.00    -0.096 A  
HETATM   19  C   UNL     1      -9.732   4.227  72.269  1.00  0.00    -0.210 A  
HETATM   20  C   UNL     1      -9.302   6.561  71.760  1.00  0.00    -0.149 A  
HETATM   21  C   UNL     1      -8.829   3.865  71.265  1.00  0.00    -0.142 A  
HETATM   22  O   UNL     1     -10.768   3.410  74.249  1.00  0.00    -0.195 OA 
HETATM   23  C   UNL     1      -9.941   5.580  72.535  1.00  0.00    -0.198 A  
HETATM   24  C   UNL     1     -10.464   3.225  73.084  1.00  0.00    -0.165 C  
HETATM   25  O   UNL     1     -10.812   2.115  72.397  1.00  0.00    -0.045 OA 
ENDBRANCH  13  17
BRANCH  14  26
HETATM   26  O   UNL     1      -6.121  10.635  67.902  1.00  0.00    -0.050 OA 
BRANCH  26  27
HETATM   27  C   UNL     1      -6.446  11.054  66.577  1.00  0.00    -0.132 C  
BRANCH  27  28
HETATM   28  C   UNL     1      -5.925  10.062  65.541  1.00  0.00    -0.087 C  
HETATM   29  O   UNL     1      -5.971  10.614  64.228  1.00  0.00    -0.337 OA 
HETATM   30  H   UNL     1      -5.647   9.997  63.583  1.00  0.00     0.000 HD 
ENDBRANCH  27  28
ENDBRANCH  26  27
ENDBRANCH  14  26
ENDBRANCH   7  11
BRANCH   9  31
HETATM   31  N   UNL     1     -11.416  12.777  65.003  1.00  0.00    -0.310 NA 
HETATM   32  C   UNL     1     -10.722  14.020  64.635  1.00  0.00    -0.399 C  
HETATM   33  C   UNL     1     -12.529  13.662  63.105  1.00  0.00     0.249 C  
HETATM   34  C   UNL     1     -11.816  14.768  63.876  1.00  0.00     0.092 C  
HETATM   35  C   UNL     1     -12.070  12.345  63.758  1.00  0.00    -0.529 C  
ENDBRANCH   9  31
ENDBRANCH   2   5
TORSDOF 7
ENDMDL
MODEL       95
REMARK 921   NORMALIZED FREE ENERGY PREDICTED BY IDOCK:   -3.37 KCAL/MOL
REMARK 922        TOTAL FREE ENERGY PREDICTED BY IDOCK:   -6.21 KCAL/MOL
REMARK 923 INTER-LIGAND FREE ENERGY PREDICTED BY IDOCK:   -5.59 KCAL/MOL
REMARK 924 INTRA-LIGAND FREE ENERGY PREDICTED BY IDOCK:   -0.62 KCAL/MOL
REMARK 927      BINDING AFFINITY PREDICTED BY RF-SCORE:    0.00 PKD
ROOT
HETATM    1  C   UNL     1     -11.782   6.603  70.619  1.00  0.00    -0.452 C  
HETATM    2  C   UNL     1     -11.123   7.823  71.301  1.00  0.00    -0.271 C  
HETATM    3  C   UNL     1     -11.659   9.122  70.615  1.00  0.00    -0.282 C  
HETATM    4  C   UNL     1     -11.662   8.003  72.745  1.00  0.00    -0.352 C  
ENDROOT
BRANCH   2   5
HETATM    5  C   UNL     1      -9.572   7.740  71.148  1.00  0.00    -0.174 A  
HETATM    6  C   UNL     1      -8.996   8.596  70.149  1.00  0.00    -0.157 A  
HETATM    7  C   UNL     1      -7.647   8.992  70.108  1.00  0.00    -0.082 A  
HETATM    8  C   UNL     1      -6.894   8.525  71.178  1.00  0.00    -0.064 A  
HETATM    9  C   UNL     1      -8.693   6.984  71.950  1.00  0.00    -0.124 A  
HETATM   10  C   UNL     1      -7.376   7.490  72.017  1.00  0.00    -0.069 A  
BRANCH   7  11
HETATM   11  C   UNL     1      -7.103   9.866  69.000  1.00  0.00    -0.068 A  
HETATM   12  C   UNL     1      -6.869  11.252  69.287  1.00  0.00    -0.116 A  
HETATM   13  C   UNL     1      -6.449  12.220  68.339  1.00  0.00    -0.057 A  
HETATM   14  C   UNL     1      -6.883   9.473  67.657  1.00  0.00    -0.075 A  
HETATM   15  C   UNL     1      -6.138  11.740  67.065  1.00  0.00    -0.152 A  
HETATM   16  C   UNL     1      -6.344  10.394  66.734  1.00  0.00    -0.075 A  
BRANCH  13  17
HETATM   17  C   UNL     1      -6.426  13.682  68.654  1.00  0.00    -0.094 A  
HETATM   18  C   UNL     1      -7.304  14.603  68.049  1.00  0.00    -0.142 A  
HETATM   19  C   UNL     1      -6.202  16.494  69.106  1.00  0.00    -0.174 A  
HETATM   20  C   UNL     1      -5.466  14.223  69.538  1.00  0.00    -0.091 A  
HETATM   21  C   UNL     1      -7.200  15.988  68.268  1.00  0.00    -0.132 A  
HETATM   22  O   UNL     1      -5.627  18.407  70.402  1.00  0.00    -0.234 OA 
HETATM   23  C   UNL     1      -5.356  15.603  69.766  1.00  0.00    -0.110 A  
HETATM   24  C   UNL     1      -6.021  17.950  69.343  1.00  0.00    -0.237 C  
HETATM   25  O   UNL     1      -6.276  18.713  68.258  1.00  0.00    -0.202 OA 
ENDBRANCH  13  17
BRANCH  14  26
HETATM   26  O   UNL     1      -7.072   8.236  67.075  1.00  0.00    -0.076 OA 
BRANCH  26  27
HETATM   27  C   UNL     1      -8.418   7.804  66.879  1.00  0.00    -0.125 C  
BRANCH  27  28
HETATM   28  C   UNL     1      -9.239   8.864  66.149  1.00  0.00    -0.217 C  
HETATM   29  O   UNL     1      -8.994   8.831  64.746  1.00  0.00    -0.398 OA 
HETATM   30  H   UNL     1      -9.504   9.490  64.291  1.00  0.00     0.000 HD 
ENDBRANCH  27  28
ENDBRANCH  26  27
ENDBRANCH  14  26
ENDBRANCH   7  11
BRANCH   9  31
HETATM   31  N   UNL     1      -9.063   5.850  72.661  1.00  0.00    -0.131 NA 
HETATM   32  C   UNL     1      -9.542   5.948  74.048  1.00  0.00    -0.161 C  
HETATM   33  C   UNL     1      -9.980   3.739  73.233  1.00  0.00    -0.187 C  
HETATM   34  C   UNL     1      -9.522   4.484  74.482  1.00  0.00    -0.141 C  
HETATM   35  C   UNL     1      -9.853   4.753  72.081  1.00  0.00    -0.172 C  
ENDBRANCH   9  31
ENDBRANCH   2   5
TORSDOF 7
ENDMDL
MODEL       96
REMARK 921   NORMALIZED FREE ENERGY PREDICTED BY IDOCK:   -3.31 KCAL/MOL
REMARK 922        TOTAL FREE ENERGY PREDICTED BY IDOCK:   -6.13 KCAL/MOL
REMARK 923 INTER-LIGAND FREE ENERGY PREDICTED BY IDOCK:   -5.60 KCAL/MOL
REMARK 924 INTRA-LIGAND FREE ENERGY PREDICTED BY IDOCK:   -0.54 KCAL/MOL
REMARK 927      BINDING AFFINITY PREDICTED BY RF-SCORE:    0.00 PKD
ROOT
HETATM    1  C   UNL     1     -13.991  11.538  71.963  1.00  0.00     0.529 C  
HETATM    2  C   UNL     1     -12.983  10.710  71.133  1.00  0.00    -0.483 C  
HETATM    3  C   UNL     1     -12.104   9.871  72.118  1.00  0.00     0.080 C  
HETATM    4  C   UNL     1     -13.710   9.586  70.350  1.00  0.00     0.665 C  
ENDROOT
BRANCH   2   5
HETATM    5  C   UNL     1     -12.079  11.665  70.294  1.00  0.00    -0.443 A  
HETATM    6  C   UNL     1     -11.107  11.027  69.453  1.00  0.00    -0.320 A  
HETATM    7  C   UNL     1     -10.487  11.625  68.341  1.00  0.00    -0.230 A  
HETATM    8  C   UNL     1     -10.942  12.909  68.069  1.00  0.00    -0.271 A  
HETATM    9  C   UNL     1     -12.191  13.069  70.219  1.00  0.00    -0.296 A  
HETATM   10  C   UNL     1     -11.699  13.635  69.023  1.00  0.00    -0.375 A  
BRANCH   7  11
HETATM   11  C   UNL     1      -9.440  10.902  67.522  1.00  0.00    -0.168 A  
HETATM   12  C   UNL     1      -9.596   9.490  67.322  1.00  0.00    -0.192 A  
HETATM   13  C   UNL     1      -8.662   8.654  66.660  1.00  0.00    -0.137 A  
HETATM   14  C   UNL     1      -8.251  11.466  67.001  1.00  0.00    -0.160 A  
HETATM   15  C   UNL     1      -7.571   9.295  66.070  1.00  0.00    -0.096 A  
HETATM   16  C   UNL     1      -7.374  10.672  66.230  1.00  0.00    -0.137 A  
BRANCH  13  17
HETATM   17  C   UNL     1      -8.785   7.162  66.670  1.00  0.00    -0.131 A  
HETATM   18  C   UNL     1      -9.621   6.475  67.572  1.00  0.00    -0.137 A  
HETATM   19  C   UNL     1      -8.820   4.309  66.813  1.00  0.00    -0.116 A  
HETATM   20  C   UNL     1      -8.007   6.361  65.804  1.00  0.00    -0.117 A  
HETATM   21  C   UNL     1      -9.643   5.071  67.647  1.00  0.00    -0.173 A  
HETATM   22  O   UNL     1      -8.576   2.125  65.898  1.00  0.00    -0.100 OA 
HETATM   23  C   UNL     1      -8.026   4.959  65.869  1.00  0.00    -0.107 A  
HETATM   24  C   UNL     1      -8.774   2.826  66.875  1.00  0.00    -0.118 C  
HETATM   25  O   UNL     1      -8.912   2.330  68.124  1.00  0.00    -0.110 OA 
ENDBRANCH  13  17
BRANCH  14  26
HETATM   26  O   UNL     1      -7.801  12.769  67.083  1.00  0.00    -0.161 OA 
BRANCH  26  27
HETATM   27  C   UNL     1      -7.486  13.272  68.381  1.00  0.00    -0.124 C  
BRANCH  27  28
HETATM   28  C   UNL     1      -7.214  14.773  68.340  1.00  0.00    -0.114 C  
HETATM   29  O   UNL     1      -8.098  15.482  69.205  1.00  0.00    -0.205 OA 
HETATM   30  H   UNL     1      -7.929  16.417  69.179  1.00  0.00     0.000 HD 
ENDBRANCH  27  28
ENDBRANCH  26  27
ENDBRANCH  14  26
ENDBRANCH   7  11
BRANCH   9  31
HETATM   31  N   UNL     1     -12.766  13.861  71.205  1.00  0.00    -0.352 NA 
HETATM   32  C   UNL     1     -11.950  14.794  71.997  1.00  0.00    -0.294 C  
HETATM   33  C   UNL     1     -14.265  15.266  72.388  1.00  0.00    -0.579 C  
HETATM   34  C   UNL     1     -12.923  15.182  73.108  1.00  0.00    -0.627 C  
HETATM   35  C   UNL     1     -14.052  14.554  71.039  1.00  0.00     0.004 C  
ENDBRANCH   9  31
ENDBRANCH   2   5
TORSDOF 7
ENDMDL
MODEL       97
REMARK 921   NORMALIZED FREE ENERGY PREDICTED BY IDOCK:   -3.26 KCAL/MOL
REMARK 922        TOTAL FREE ENERGY PREDICTED BY IDOCK:   -6.07 KCAL/MOL
REMARK 923 INTER-LIGAND FREE ENERGY PREDICTED BY IDOCK:   -5.77 KCAL/MOL
REMARK 924 INTRA-LIGAND FREE ENERGY PREDICTED BY IDOCK:   -0.30 KCAL/MOL
REMARK 927      BINDING AFFINITY PREDICTED BY RF-SCORE:    0.00 PKD
ROOT
HETATM    1  C   UNL     1      -5.897  12.219  67.030  1.00  0.00    -0.042 C  
HETATM    2  C   UNL     1      -6.351  10.745  66.925  1.00  0.00    -0.084 C  
HETATM    3  C   UNL     1      -6.395  10.349  65.412  1.00  0.00    -0.122 C  
HETATM    4  C   UNL     1      -5.246   9.791  67.450  1.00  0.00    -0.035 C  
ENDROOT
BRANCH   2   5
HETATM    5  C   UNL     1      -7.766  10.580  67.560  1.00  0.00    -0.098 A  
HETATM    6  C   UNL     1      -8.159   9.235  67.873  1.00  0.00    -0.104 A  
HETATM    7  C   UNL     1      -9.165   8.882  68.790  1.00  0.00    -0.140 A  
HETATM    8  C   UNL     1      -9.735   9.968  69.442  1.00  0.00    -0.240 A  
HETATM    9  C   UNL     1      -8.639  11.622  67.935  1.00  0.00    -0.150 A  
HETATM   10  C   UNL     1      -9.542  11.290  68.968  1.00  0.00    -0.048 A  
BRANCH   7  11
HETATM   11  C   UNL     1      -9.551   7.440  69.039  1.00  0.00    -0.148 A  
HETATM   12  C   UNL     1      -9.350   6.495  67.979  1.00  0.00    -0.108 A  
HETATM   13  C   UNL     1      -9.741   5.132  68.019  1.00  0.00    -0.188 A  
HETATM   14  C   UNL     1     -10.188   6.935  70.198  1.00  0.00    -0.192 A  
HETATM   15  C   UNL     1     -10.256   4.674  69.233  1.00  0.00    -0.059 A  
HETATM   16  C   UNL     1     -10.468   5.555  70.302  1.00  0.00    -0.365 A  
BRANCH  13  17
HETATM   17  C   UNL     1      -9.693   4.257  66.806  1.00  0.00    -0.241 A  
HETATM   18  C   UNL     1      -8.850   3.132  66.715  1.00  0.00    -0.157 A  
HETATM   19  C   UNL     1      -9.458   2.744  64.394  1.00  0.00    -0.145 A  
HETATM   20  C   UNL     1     -10.456   4.560  65.657  1.00  0.00    -0.261 A  
HETATM   21  C   UNL     1      -8.730   2.383  65.531  1.00  0.00    -0.120 A  
HETATM   22  O   UNL     1     -10.272   1.881  62.330  1.00  0.00    -0.093 OA 
HETATM   23  C   UNL     1     -10.346   3.816  64.472  1.00  0.00    -0.208 A  
HETATM   24  C   UNL     1      -9.342   2.014  63.106  1.00  0.00    -0.092 C  
HETATM   25  O   UNL     1      -8.095   1.562  62.848  1.00  0.00    -0.054 OA 
ENDBRANCH  13  17
BRANCH  14  26
HETATM   26  O   UNL     1     -10.560   7.606  71.345  1.00  0.00    -0.213 OA 
BRANCH  26  27
HETATM   27  C   UNL     1     -11.828   8.262  71.338  1.00  0.00    -0.293 C  
BRANCH  27  28
HETATM   28  C   UNL     1     -12.888   7.422  72.044  1.00  0.00    -0.186 C  
HETATM   29  O   UNL     1     -14.106   7.398  71.304  1.00  0.00    -0.569 OA 
HETATM   30  H   UNL     1     -14.767   6.875  71.744  1.00  0.00     0.000 HD 
ENDBRANCH  27  28
ENDBRANCH  26  27
ENDBRANCH  14  26
ENDBRANCH   7  11
BRANCH   9  31
HETATM   31  N   UNL     1      -8.619  12.896  67.381  1.00  0.00    -0.185 NA 
HETATM   32  C   UNL     1      -9.759  13.399  66.599  1.00  0.00    -0.275 C  
HETATM   33  C   UNL     1      -8.279  15.222  67.071  1.00  0.00    -0.267 C  
HETATM   34  C   UNL     1      -9.163  14.655  65.965  1.00  0.00    -0.139 C  
HETATM   35  C   UNL     1      -8.116  14.081  68.092  1.00  0.00    -0.151 C  
ENDBRANCH   9  31
ENDBRANCH   2   5
TORSDOF 7
ENDMDL
MODEL       98
REMARK 921   NORMALIZED FREE ENERGY PREDICTED BY IDOCK:   -3.00 KCAL/MOL
REMARK 922        TOTAL FREE ENERGY PREDICTED BY IDOCK:   -5.69 KCAL/MOL
REMARK 923 INTER-LIGAND FREE ENERGY PREDICTED BY IDOCK:   -4.23 KCAL/MOL
REMARK 924 INTRA-LIGAND FREE ENERGY PREDICTED BY IDOCK:   -1.47 KCAL/MOL
REMARK 927      BINDING AFFINITY PREDICTED BY RF-SCORE:    0.00 PKD
ROOT
HETATM    1  C   UNL     1      -9.109  15.099  66.394  1.00  0.00    -0.331 C  
HETATM    2  C   UNL     1      -8.939  13.956  67.421  1.00  0.00    -0.211 C  
HETATM    3  C   UNL     1      -7.480  14.010  67.982  1.00  0.00    -0.141 C  
HETATM    4  C   UNL     1      -9.763  14.244  68.704  1.00  0.00    -0.213 C  
ENDROOT
BRANCH   2   5
HETATM    5  C   UNL     1      -9.193  12.582  66.730  1.00  0.00    -0.217 A  
HETATM    6  C   UNL     1      -8.162  11.596  66.898  1.00  0.00    -0.169 A  
HETATM    7  C   UNL     1      -8.336  10.211  66.731  1.00  0.00    -0.122 A  
HETATM    8  C   UNL     1      -9.643   9.843  66.437  1.00  0.00    -0.255 A  
HETATM    9  C   UNL     1     -10.364  12.195  66.045  1.00  0.00    -0.237 A  
HETATM   10  C   UNL     1     -10.599  10.803  66.023  1.00  0.00    -0.224 A  
BRANCH   7  11
HETATM   11  C   UNL     1      -7.191   9.235  66.888  1.00  0.00    -0.086 A  
HETATM   12  C   UNL     1      -7.079   8.167  65.937  1.00  0.00    -0.064 A  
HETATM   13  C   UNL     1      -6.122   7.122  65.995  1.00  0.00    -0.037 A  
HETATM   14  C   UNL     1      -6.255   9.210  67.950  1.00  0.00    -0.051 A  
HETATM   15  C   UNL     1      -5.158   7.225  67.000  1.00  0.00    -0.018 A  
HETATM   16  C   UNL     1      -5.219   8.251  67.952  1.00  0.00    -0.034 A  
BRANCH  13  17
HETATM   17  C   UNL     1      -6.192   5.930  65.094  1.00  0.00    -0.037 A  
HETATM   18  C   UNL     1      -7.137   5.818  64.055  1.00  0.00    -0.052 A  
HETATM   19  C   UNL     1      -6.447   3.545  63.542  1.00  0.00    -0.030 A  
HETATM   20  C   UNL     1      -5.343   4.818  65.288  1.00  0.00    -0.013 A  
HETATM   21  C   UNL     1      -7.268   4.647  63.288  1.00  0.00    -0.048 A  
HETATM   22  O   UNL     1      -5.613   1.551  62.544  1.00  0.00    -0.003 OA 
HETATM   23  C   UNL     1      -5.462   3.647  64.524  1.00  0.00    -0.010 A  
HETATM   24  C   UNL     1      -6.566   2.269  62.790  1.00  0.00    -0.018 C  
HETATM   25  O   UNL     1      -7.836   1.952  62.455  1.00  0.00    -0.051 OA 
ENDBRANCH  13  17
BRANCH  14  26
HETATM   26  O   UNL     1      -6.148  10.060  69.032  1.00  0.00    -0.041 OA 
BRANCH  26  27
HETATM   27  C   UNL     1      -5.140   9.767  69.998  1.00  0.00    -0.033 C  
BRANCH  27  28
HETATM   28  C   UNL     1      -5.284  10.653  71.233  1.00  0.00    -0.085 C  
HETATM   29  O   UNL     1      -5.915  11.889  70.911  1.00  0.00    -0.466 OA 
HETATM   30  H   UNL     1      -6.005  12.441  71.680  1.00  0.00     0.000 HD 
ENDBRANCH  27  28
ENDBRANCH  26  27
ENDBRANCH  14  26
ENDBRANCH   7  11
BRANCH   9  31
HETATM   31  N   UNL     1     -11.256  13.084  65.459  1.00  0.00    -0.285 NA 
HETATM   32  C   UNL     1     -11.719  12.890  64.076  1.00  0.00    -0.434 C  
HETATM   33  C   UNL     1     -13.072  14.570  65.118  1.00  0.00     0.230 C  
HETATM   34  C   UNL     1     -12.399  14.228  63.793  1.00  0.00    -0.048 C  
HETATM   35  C   UNL     1     -12.424  13.638  66.159  1.00  0.00    -0.395 C  
ENDBRANCH   9  31
ENDBRANCH   2   5
TORSDOF 7
ENDMDL
MODEL       99
REMARK 921   NORMALIZED FREE ENERGY PREDICTED BY IDOCK:   -2.96 KCAL/MOL
REMARK 922        TOTAL FREE ENERGY PREDICTED BY IDOCK:   -5.65 KCAL/MOL
REMARK 923 INTER-LIGAND FREE ENERGY PREDICTED BY IDOCK:   -4.54 KCAL/MOL
REMARK 924 INTRA-LIGAND FREE ENERGY PREDICTED BY IDOCK:   -1.11 KCAL/MOL
REMARK 927      BINDING AFFINITY PREDICTED BY RF-SCORE:    0.00 PKD
ROOT
HETATM    1  C   UNL     1      -9.955  11.481  69.022  1.00  0.00    -0.040 C  
HETATM    2  C   UNL     1     -10.259  12.464  67.869  1.00  0.00    -0.213 C  
HETATM    3  C   UNL     1     -11.778  12.831  67.919  1.00  0.00    -0.408 C  
HETATM    4  C   UNL     1      -9.609  13.846  68.141  1.00  0.00    -0.218 C  
ENDROOT
BRANCH   2   5
HETATM    5  C   UNL     1      -9.917  11.797  66.501  1.00  0.00    -0.229 A  
HETATM    6  C   UNL     1      -9.009  10.685  66.556  1.00  0.00    -0.169 A  
HETATM    7  C   UNL     1      -8.878   9.701  65.560  1.00  0.00    -0.204 A  
HETATM    8  C   UNL     1      -9.765   9.855  64.502  1.00  0.00    -0.223 A  
HETATM    9  C   UNL     1     -10.480  12.121  65.249  1.00  0.00    -0.276 A  
HETATM   10  C   UNL     1     -10.476  11.066  64.312  1.00  0.00    -0.427 A  
BRANCH   7  11
HETATM   11  C   UNL     1      -7.870   8.578  65.671  1.00  0.00    -0.102 A  
HETATM   12  C   UNL     1      -7.828   7.828  66.893  1.00  0.00    -0.107 A  
HETATM   13  C   UNL     1      -6.887   6.809  67.190  1.00  0.00    -0.069 A  
HETATM   14  C   UNL     1      -6.883   8.244  64.712  1.00  0.00    -0.067 A  
HETATM   15  C   UNL     1      -6.019   6.452  66.156  1.00  0.00    -0.025 A  
HETATM   16  C   UNL     1      -6.022   7.150  64.941  1.00  0.00    -0.037 A  
BRANCH  13  17
HETATM   17  C   UNL     1      -6.767   6.214  68.557  1.00  0.00    -0.064 A  
HETATM   18  C   UNL     1      -6.479   4.851  68.769  1.00  0.00    -0.037 A  
HETATM   19  C   UNL     1      -6.772   5.064  71.173  1.00  0.00    -0.039 A  
HETATM   20  C   UNL     1      -7.004   6.990  69.713  1.00  0.00    -0.059 A  
HETATM   21  C   UNL     1      -6.480   4.279  70.054  1.00  0.00    -0.032 A  
HETATM   22  O   UNL     1      -6.504   5.143  73.537  1.00  0.00    -0.058 OA 
HETATM   23  C   UNL     1      -7.002   6.429  71.000  1.00  0.00    -0.068 A  
HETATM   24  C   UNL     1      -6.825   4.506  72.548  1.00  0.00    -0.056 C  
HETATM   25  O   UNL     1      -7.317   3.250  72.606  1.00  0.00    -0.046 OA 
ENDBRANCH  13  17
BRANCH  14  26
HETATM   26  O   UNL     1      -6.641   8.820  63.482  1.00  0.00    -0.088 OA 
BRANCH  26  27
HETATM   27  C   UNL     1      -7.159   8.151  62.332  1.00  0.00    -0.090 C  
BRANCH  27  28
HETATM   28  C   UNL     1      -8.485   7.462  62.645  1.00  0.00     0.145 C  
HETATM   29  O   UNL     1      -8.341   6.044  62.655  1.00  0.00    -0.192 OA 
HETATM   30  H   UNL     1      -9.166   5.616  62.849  1.00  0.00     0.000 HD 
ENDBRANCH  27  28
ENDBRANCH  26  27
ENDBRANCH  14  26
ENDBRANCH   7  11
BRANCH   9  31
HETATM   31  N   UNL     1     -11.037  13.355  64.939  1.00  0.00    -0.320 NA 
HETATM   32  C   UNL     1     -10.185  14.507  64.606  1.00  0.00    -0.013 C  
HETATM   33  C   UNL     1     -12.456  15.039  64.058  1.00  0.00     0.074 C  
HETATM   34  C   UNL     1     -11.193  15.654  64.652  1.00  0.00    -0.380 C  
HETATM   35  C   UNL     1     -12.219  13.517  64.079  1.00  0.00    -0.402 C  
ENDBRANCH   9  31
ENDBRANCH   2   5
TORSDOF 7
ENDMDL
MODEL      100
REMARK 921   NORMALIZED FREE ENERGY PREDICTED BY IDOCK:   -2.89 KCAL/MOL
REMARK 922        TOTAL FREE ENERGY PREDICTED BY IDOCK:   -5.55 KCAL/MOL
REMARK 923 INTER-LIGAND FREE ENERGY PREDICTED BY IDOCK:   -4.97 KCAL/MOL
REMARK 924 INTRA-LIGAND FREE ENERGY PREDICTED BY IDOCK:   -0.58 KCAL/MOL
REMARK 927      BINDING AFFINITY PREDICTED BY RF-SCORE:    0.00 PKD
ROOT
HETATM    1  C   UNL     1     -11.226  15.082  67.552  1.00  0.00    -0.333 C  
HETATM    2  C   UNL     1     -10.503  16.088  68.476  1.00  0.00    -0.258 C  
HETATM    3  C   UNL     1     -11.000  17.528  68.123  1.00  0.00    -0.128 C  
HETATM    4  C   UNL     1     -11.005  15.949  69.938  1.00  0.00    -0.343 C  
ENDROOT
BRANCH   2   5
HETATM    5  C   UNL     1      -8.961  15.988  68.262  1.00  0.00    -0.183 A  
HETATM    6  C   UNL     1      -8.347  14.765  68.698  1.00  0.00    -0.165 A  
HETATM    7  C   UNL     1      -7.100  14.288  68.255  1.00  0.00    -0.111 A  
HETATM    8  C   UNL     1      -6.508  15.086  67.284  1.00  0.00     0.140 A  
HETATM    9  C   UNL     1      -8.146  16.934  67.607  1.00  0.00    -0.182 A  
HETATM   10  C   UNL     1      -6.971  16.402  67.035  1.00  0.00    -0.254 A  
BRANCH   7  11
HETATM   11  C   UNL     1      -6.498  13.007  68.789  1.00  0.00    -0.085 A  
HETATM   12  C   UNL     1      -6.531  11.844  67.950  1.00  0.00    -0.068 A  
HETATM   13  C   UNL     1      -6.092  10.551  68.333  1.00  0.00    -0.047 A  
HETATM   14  C   UNL     1      -5.978  12.808  70.091  1.00  0.00    -0.135 A  
HETATM   15  C   UNL     1      -5.485  10.453  69.586  1.00  0.00    -0.038 A  
HETATM   16  C   UNL     1      -5.422  11.559  70.444  1.00  0.00    -0.131 A  
BRANCH  13  17
HETATM   17  C   UNL     1      -6.347   9.344  67.488  1.00  0.00    -0.062 A  
HETATM   18  C   UNL     1      -7.116   8.251  67.935  1.00  0.00    -0.083 A  
HETATM   19  C   UNL     1      -6.621   6.960  65.936  1.00  0.00    -0.051 A  
HETATM   20  C   UNL     1      -5.765   9.214  66.207  1.00  0.00    -0.053 A  
HETATM   21  C   UNL     1      -7.255   7.075  67.177  1.00  0.00    -0.089 A  
HETATM   22  O   UNL     1      -6.697   5.743  63.892  1.00  0.00    -0.036 OA 
HETATM   23  C   UNL     1      -5.902   8.046  65.440  1.00  0.00    -0.037 A  
HETATM   24  C   UNL     1      -6.701   5.728  65.110  1.00  0.00    -0.044 C  
HETATM   25  O   UNL     1      -6.719   4.588  65.835  1.00  0.00    -0.050 OA 
ENDBRANCH  13  17
BRANCH  14  26
HETATM   26  O   UNL     1      -5.870  13.712  71.129  1.00  0.00    -0.207 OA 
BRANCH  26  27
HETATM   27  C   UNL     1      -5.449  13.207  72.396  1.00  0.00     0.280 C  
BRANCH  27  28
HETATM   28  C   UNL     1      -5.196  14.341  73.385  1.00  0.00    -0.331 C  
HETATM   29  O   UNL     1      -6.025  14.215  74.538  1.00  0.00    -0.640 OA 
HETATM   30  H   UNL     1      -5.868  14.920  75.155  1.00  0.00     0.000 HD 
ENDBRANCH  27  28
ENDBRANCH  26  27
ENDBRANCH  14  26
ENDBRANCH   7  11
BRANCH   9  31
HETATM   31  N   UNL     1      -8.459  18.282  67.482  1.00  0.00    -0.247 NA 
HETATM   32  C   UNL     1      -7.605  19.316  68.085  1.00  0.00    -0.290 C  
HETATM   33  C   UNL     1      -9.163  20.368  66.600  1.00  0.00    -0.372 C  
HETATM   34  C   UNL     1      -8.489  20.555  67.955  1.00  0.00    -0.078 C  
HETATM   35  C   UNL     1      -8.937  18.889  66.231  1.00  0.00    -0.259 C  
ENDBRANCH   9  31
ENDBRANCH   2   5
TORSDOF 7
ENDMDL
MODEL      101
REMARK 921   NORMALIZED FREE ENERGY PREDICTED BY IDOCK:   -2.74 KCAL/MOL
REMARK 922        TOTAL FREE ENERGY PREDICTED BY IDOCK:   -5.34 KCAL/MOL
REMARK 923 INTER-LIGAND FREE ENERGY PREDICTED BY IDOCK:   -4.79 KCAL/MOL
REMARK 924 INTRA-LIGAND FREE ENERGY PREDICTED BY IDOCK:   -0.55 KCAL/MOL
REMARK 927      BINDING AFFINITY PREDICTED BY RF-SCORE:    0.00 PKD
ROOT
HETATM    1  C   UNL     1      -6.611  17.071  66.524  1.00  0.00    -0.254 C  
HETATM    2  C   UNL     1      -6.623  16.421  67.927  1.00  0.00    -0.148 C  
HETATM    3  C   UNL     1      -5.192  15.867  68.227  1.00  0.00    -0.106 C  
HETATM    4  C   UNL     1      -6.762  17.502  69.031  1.00  0.00    -0.247 C  
ENDROOT
BRANCH   2   5
HETATM    5  C   UNL     1      -7.662  15.259  67.962  1.00  0.00    -0.133 A  
HETATM    6  C   UNL     1      -7.120  13.939  68.121  1.00  0.00    -0.118 A  
HETATM    7  C   UNL     1      -7.840  12.821  68.579  1.00  0.00    -0.099 A  
HETATM    8  C   UNL     1      -9.152  13.108  68.936  1.00  0.00     0.293 A  
HETATM    9  C   UNL     1      -9.066  15.393  67.946  1.00  0.00    -0.178 A  
HETATM   10  C   UNL     1      -9.766  14.326  68.551  1.00  0.00    -0.225 A  
BRANCH   7  11
HETATM   11  C   UNL     1      -7.209  11.450  68.684  1.00  0.00    -0.100 A  
HETATM   12  C   UNL     1      -7.576  10.462  67.711  1.00  0.00    -0.089 A  
HETATM   13  C   UNL     1      -7.147   9.110  67.722  1.00  0.00    -0.079 A  
HETATM   14  C   UNL     1      -6.349  11.003  69.717  1.00  0.00    -0.124 A  
HETATM   15  C   UNL     1      -6.209   8.769  68.699  1.00  0.00    -0.046 A  
HETATM   16  C   UNL     1      -5.814   9.698  69.671  1.00  0.00    -0.033 A  
BRANCH  13  17
HETATM   17  C   UNL     1      -7.730   8.085  66.802  1.00  0.00    -0.098 A  
HETATM   18  C   UNL     1      -9.037   7.582  66.956  1.00  0.00    -0.156 A  
HETATM   19  C   UNL     1      -8.728   5.963  65.169  1.00  0.00    -0.043 A  
HETATM   20  C   UNL     1      -6.962   7.519  65.760  1.00  0.00    -0.061 A  
HETATM   21  C   UNL     1      -9.534   6.538  66.156  1.00  0.00    -0.067 A  
HETATM   22  O   UNL     1      -8.833   4.684  63.164  1.00  0.00    -0.131 OA 
HETATM   23  C   UNL     1      -7.451   6.480  64.953  1.00  0.00    -0.086 A  
HETATM   24  C   UNL     1      -9.187   4.833  64.321  1.00  0.00    -0.022 C  
HETATM   25  O   UNL     1      -9.984   3.956  64.969  1.00  0.00    -0.189 OA 
ENDBRANCH  13  17
BRANCH  14  26
HETATM   26  O   UNL     1      -5.874  11.698  70.810  1.00  0.00    -0.301 OA 
BRANCH  26  27
HETATM   27  C   UNL     1      -5.136  12.894  70.555  1.00  0.00    -0.109 C  
BRANCH  27  28
HETATM   28  C   UNL     1      -5.442  13.964  71.599  1.00  0.00    -0.229 C  
HETATM   29  O   UNL     1      -5.467  13.412  72.913  1.00  0.00    -0.413 OA 
HETATM   30  H   UNL     1      -5.657  14.079  73.563  1.00  0.00     0.000 HD 
ENDBRANCH  27  28
ENDBRANCH  26  27
ENDBRANCH  14  26
ENDBRANCH   7  11
BRANCH   9  31
HETATM   31  N   UNL     1      -9.741  16.487  67.420  1.00  0.00    -0.243 NA 
HETATM   32  C   UNL     1      -9.984  17.689  68.233  1.00  0.00    -0.339 C  
HETATM   33  C   UNL     1     -10.491  18.185  65.945  1.00  0.00    -0.292 C  
HETATM   34  C   UNL     1     -10.987  18.446  67.364  1.00  0.00    -0.163 C  
HETATM   35  C   UNL     1      -9.507  17.007  66.064  1.00  0.00    -0.164 C  
ENDBRANCH   9  31
ENDBRANCH   2   5
TORSDOF 7
ENDMDL
MODEL      102
REMARK 921   NORMALIZED FREE ENERGY PREDICTED BY IDOCK:   -2.52 KCAL/MOL
REMARK 922        TOTAL FREE ENERGY PREDICTED BY IDOCK:   -5.02 KCAL/MOL
REMARK 923 INTER-LIGAND FREE ENERGY PREDICTED BY IDOCK:   -4.02 KCAL/MOL
REMARK 924 INTRA-LIGAND FREE ENERGY PREDICTED BY IDOCK:   -1.01 KCAL/MOL
REMARK 927      BINDING AFFINITY PREDICTED BY RF-SCORE:    0.00 PKD
ROOT
HETATM    1  C   UNL     1     -10.962   5.227  68.017  1.00  0.00     0.423 C  
HETATM    2  C   UNL     1      -9.829   5.792  68.904  1.00  0.00    -0.191 C  
HETATM    3  C   UNL     1     -10.413   6.960  69.765  1.00  0.00    -0.240 C  
HETATM    4  C   UNL     1      -9.436   4.776  70.007  1.00  0.00    -0.240 C  
ENDROOT
BRANCH   2   5
HETATM    5  C   UNL     1      -8.669   6.322  68.005  1.00  0.00    -0.114 A  
HETATM    6  C   UNL     1      -8.523   7.749  67.949  1.00  0.00    -0.122 A  
HETATM    7  C   UNL     1      -7.352   8.424  67.561  1.00  0.00    -0.093 A  
HETATM    8  C   UNL     1      -6.285   7.579  67.281  1.00  0.00    -0.052 A  
HETATM    9  C   UNL     1      -7.711   5.537  67.331  1.00  0.00    -0.100 A  
HETATM   10  C   UNL     1      -6.483   6.190  67.087  1.00  0.00    -0.050 A  
BRANCH   7  11
HETATM   11  C   UNL     1      -7.284   9.934  67.489  1.00  0.00    -0.089 A  
HETATM   12  C   UNL     1      -8.292  10.688  68.177  1.00  0.00    -0.121 A  
HETATM   13  C   UNL     1      -8.423  12.100  68.133  1.00  0.00    -0.175 A  
HETATM   14  C   UNL     1      -6.367  10.693  66.723  1.00  0.00    -0.084 A  
HETATM   15  C   UNL     1      -7.417  12.792  67.456  1.00  0.00    -0.154 A  
HETATM   16  C   UNL     1      -6.407  12.103  66.772  1.00  0.00     0.123 A  
BRANCH  13  17
HETATM   17  C   UNL     1      -9.616  12.804  68.700  1.00  0.00    -0.028 A  
HETATM   18  C   UNL     1      -9.724  14.208  68.733  1.00  0.00    -0.148 A  
HETATM   19  C   UNL     1     -11.799  14.115  69.994  1.00  0.00    -0.388 A  
HETATM   20  C   UNL     1     -10.675  12.082  69.294  1.00  0.00    -0.063 A  
HETATM   21  C   UNL     1     -10.796  14.860  69.368  1.00  0.00    -0.274 A  
HETATM   22  O   UNL     1     -14.049  14.260  70.758  1.00  0.00     0.111 OA 
HETATM   23  C   UNL     1     -11.751  12.723  69.926  1.00  0.00    -0.321 A  
HETATM   24  C   UNL     1     -12.934  14.750  70.713  1.00  0.00    -0.352 C  
HETATM   25  O   UNL     1     -12.600  15.887  71.360  1.00  0.00    -0.451 OA 
ENDBRANCH  13  17
BRANCH  14  26
HETATM   26  O   UNL     1      -5.335  10.252  65.920  1.00  0.00    -0.043 OA 
BRANCH  26  27
HETATM   27  C   UNL     1      -5.367  10.630  64.544  1.00  0.00    -0.123 C  
BRANCH  27  28
HETATM   28  C   UNL     1      -6.247   9.684  63.732  1.00  0.00    -0.108 C  
HETATM   29  O   UNL     1      -5.887   8.324  63.955  1.00  0.00    -0.063 OA 
HETATM   30  H   UNL     1      -6.435   7.735  63.449  1.00  0.00     0.000 HD 
ENDBRANCH  27  28
ENDBRANCH  26  27
ENDBRANCH  14  26
ENDBRANCH   7  11
BRANCH   9  31
HETATM   31  N   UNL     1      -7.909   4.216  66.952  1.00  0.00    -0.096 NA 
HETATM   32  C   UNL     1      -7.718   3.117  67.910  1.00  0.00    -0.063 C  
HETATM   33  C   UNL     1      -8.806   2.259  65.957  1.00  0.00    -0.124 C  
HETATM   34  C   UNL     1      -7.741   1.900  66.987  1.00  0.00    -0.065 C  
HETATM   35  C   UNL     1      -9.034   3.774  66.114  1.00  0.00    -0.135 C  
ENDBRANCH   9  31
ENDBRANCH   2   5
TORSDOF 7
ENDMDL
MODEL      103
REMARK 921   NORMALIZED FREE ENERGY PREDICTED BY IDOCK:   -2.39 KCAL/MOL
REMARK 922        TOTAL FREE ENERGY PREDICTED BY IDOCK:   -4.84 KCAL/MOL
REMARK 923 INTER-LIGAND FREE ENERGY PREDICTED BY IDOCK:   -5.13 KCAL/MOL
REMARK 924 INTRA-LIGAND FREE ENERGY PREDICTED BY IDOCK:    0.30 KCAL/MOL
REMARK 927      BINDING AFFINITY PREDICTED BY RF-SCORE:    0.00 PKD
ROOT
HETATM    1  C   UNL     1     -11.814  12.511  63.858  1.00  0.00    -0.544 C  
HETATM    2  C   UNL     1     -11.600  13.465  65.056  1.00  0.00    -0.339 C  
HETATM    3  C   UNL     1     -11.106  14.844  64.506  1.00  0.00    -0.249 C  
HETATM    4  C   UNL     1     -12.959  13.866  65.688  1.00  0.00    -0.361 C  
ENDROOT
BRANCH   2   5
HETATM    5  C   UNL     1     -10.536  12.865  66.026  1.00  0.00    -0.290 A  
HETATM    6  C   UNL     1     -10.239  11.472  65.845  1.00  0.00    -0.286 A  
HETATM    7  C   UNL     1      -9.071  10.832  66.295  1.00  0.00    -0.192 A  
HETATM    8  C   UNL     1      -8.161  11.689  66.902  1.00  0.00    -0.169 A  
HETATM    9  C   UNL     1      -9.785  13.576  66.985  1.00  0.00    -0.251 A  
HETATM   10  C   UNL     1      -8.542  12.992  67.309  1.00  0.00    -0.206 A  
BRANCH   7  11
HETATM   11  C   UNL     1      -8.845   9.348  66.102  1.00  0.00    -0.178 A  
HETATM   12  C   UNL     1      -8.892   8.502  67.259  1.00  0.00    -0.137 A  
HETATM   13  C   UNL     1      -8.613   7.111  67.261  1.00  0.00    -0.121 A  
HETATM   14  C   UNL     1      -8.493   8.709  64.888  1.00  0.00    -0.161 A  
HETATM   15  C   UNL     1      -8.389   6.525  66.014  1.00  0.00    -0.133 A  
HETATM   16  C   UNL     1      -8.338   7.306  64.852  1.00  0.00    -0.022 A  
BRANCH  13  17
HETATM   17  C   UNL     1      -8.475   6.332  68.531  1.00  0.00    -0.115 A  
HETATM   18  C   UNL     1      -9.523   6.208  69.464  1.00  0.00    -0.156 A  
HETATM   19  C   UNL     1      -8.104   5.031  71.047  1.00  0.00    -0.101 A  
HETATM   20  C   UNL     1      -7.248   5.730  68.887  1.00  0.00    -0.082 A  
HETATM   21  C   UNL     1      -9.347   5.568  70.704  1.00  0.00    -0.195 A  
HETATM   22  O   UNL     1      -7.075   3.449  72.499  1.00  0.00    -0.040 OA 
HETATM   23  C   UNL     1      -7.063   5.086  70.120  1.00  0.00    -0.054 A  
HETATM   24  C   UNL     1      -7.850   4.379  72.358  1.00  0.00    -0.092 C  
HETATM   25  O   UNL     1      -8.512   4.951  73.387  1.00  0.00    -0.106 OA 
ENDBRANCH  13  17
BRANCH  14  26
HETATM   26  O   UNL     1      -8.316   9.262  63.637  1.00  0.00    -0.164 OA 
BRANCH  26  27
HETATM   27  C   UNL     1      -9.344   9.040  62.671  1.00  0.00     0.664 C  
BRANCH  27  28
HETATM   28  C   UNL     1     -10.213  10.282  62.494  1.00  0.00     0.784 C  
HETATM   29  O   UNL     1      -9.448  11.474  62.647  1.00  0.00    -0.489 OA 
HETATM   30  H   UNL     1      -9.989  12.248  62.537  1.00  0.00     0.000 HD 
ENDBRANCH  27  28
ENDBRANCH  26  27
ENDBRANCH  14  26
ENDBRANCH   7  11
BRANCH   9  31
HETATM   31  N   UNL     1     -10.187  14.776  67.559  1.00  0.00    -0.232 NA 
HETATM   32  C   UNL     1      -9.938  16.059  66.884  1.00  0.00    -0.251 C  
HETATM   33  C   UNL     1     -11.450  16.423  68.706  1.00  0.00    -0.222 C  
HETATM   34  C   UNL     1     -10.257  17.055  67.997  1.00  0.00    -0.319 C  
HETATM   35  C   UNL     1     -11.486  14.961  68.222  1.00  0.00    -0.324 C  
ENDBRANCH   9  31
ENDBRANCH   2   5
TORSDOF 7
ENDMDL
MODEL      104
REMARK 921   NORMALIZED FREE ENERGY PREDICTED BY IDOCK:   -2.34 KCAL/MOL
REMARK 922        TOTAL FREE ENERGY PREDICTED BY IDOCK:   -4.77 KCAL/MOL
REMARK 923 INTER-LIGAND FREE ENERGY PREDICTED BY IDOCK:   -4.52 KCAL/MOL
REMARK 924 INTRA-LIGAND FREE ENERGY PREDICTED BY IDOCK:   -0.25 KCAL/MOL
REMARK 927      BINDING AFFINITY PREDICTED BY RF-SCORE:    0.00 PKD
ROOT
HETATM    1  C   UNL     1      -6.194   6.390  69.604  1.00  0.00    -0.033 C  
HETATM    2  C   UNL     1      -6.492   6.561  68.097  1.00  0.00    -0.049 C  
HETATM    3  C   UNL     1      -5.140   6.807  67.351  1.00  0.00    -0.008 C  
HETATM    4  C   UNL     1      -6.937   5.214  67.470  1.00  0.00    -0.065 C  
ENDROOT
BRANCH   2   5
HETATM    5  C   UNL     1      -7.448   7.774  67.881  1.00  0.00    -0.104 A  
HETATM    6  C   UNL     1      -7.055   9.001  68.516  1.00  0.00    -0.072 A  
HETATM    7  C   UNL     1      -7.507  10.280  68.146  1.00  0.00    -0.086 A  
HETATM    8  C   UNL     1      -8.351  10.278  67.042  1.00  0.00    -0.126 A  
HETATM    9  C   UNL     1      -8.594   7.799  67.059  1.00  0.00    -0.129 A  
HETATM   10  C   UNL     1      -8.940   9.078  66.573  1.00  0.00    -0.177 A  
BRANCH   7  11
HETATM   11  C   UNL     1      -7.078  11.527  68.888  1.00  0.00    -0.111 A  
HETATM   12  C   UNL     1      -7.590  12.789  68.438  1.00  0.00    -0.133 A  
HETATM   13  C   UNL     1      -7.217  14.052  68.964  1.00  0.00    -0.092 A  
HETATM   14  C   UNL     1      -6.133  11.589  69.940  1.00  0.00    -0.141 A  
HETATM   15  C   UNL     1      -6.372  14.032  70.076  1.00  0.00    -0.118 A  
HETATM   16  C   UNL     1      -5.848  12.825  70.558  1.00  0.00    -0.132 A  
BRANCH  13  17
HETATM   17  C   UNL     1      -7.627  15.336  68.313  1.00  0.00    -0.112 A  
HETATM   18  C   UNL     1      -7.447  15.581  66.938  1.00  0.00    -0.117 A  
HETATM   19  C   UNL     1      -8.208  17.880  67.150  1.00  0.00    -0.228 A  
HETATM   20  C   UNL     1      -8.161  16.400  69.073  1.00  0.00    -0.223 A  
HETATM   21  C   UNL     1      -7.732  16.831  66.359  1.00  0.00    -0.345 A  
HETATM   22  O   UNL     1      -9.378  19.949  67.024  1.00  0.00    -0.331 OA 
HETATM   23  C   UNL     1      -8.452  17.650  68.504  1.00  0.00    -0.289 A  
HETATM   24  C   UNL     1      -8.489  19.231  66.601  1.00  0.00    -0.316 C  
HETATM   25  O   UNL     1      -7.631  19.612  65.630  1.00  0.00    -0.382 OA 
ENDBRANCH  13  17
BRANCH  14  26
HETATM   26  O   UNL     1      -5.435  10.560  70.539  1.00  0.00    -0.059 OA 
BRANCH  26  27
HETATM   27  C   UNL     1      -6.176   9.653  71.355  1.00  0.00     0.036 C  
BRANCH  27  28
HETATM   28  C   UNL     1      -5.431   9.338  72.649  1.00  0.00    -0.052 C  
HETATM   29  O   UNL     1      -5.231  10.513  73.430  1.00  0.00    -0.326 OA 
HETATM   30  H   UNL     1      -4.766  10.316  74.235  1.00  0.00     0.000 HD 
ENDBRANCH  27  28
ENDBRANCH  26  27
ENDBRANCH  14  26
ENDBRANCH   7  11
BRANCH   9  31
HETATM   31  N   UNL     1      -9.326   6.673  66.704  1.00  0.00    -0.159 NA 
HETATM   32  C   UNL     1     -10.740   6.539  67.084  1.00  0.00    -0.368 C  
HETATM   33  C   UNL     1     -10.204   4.838  65.485  1.00  0.00    -0.162 C  
HETATM   34  C   UNL     1     -11.004   5.069  66.762  1.00  0.00     0.303 C  
HETATM   35  C   UNL     1      -9.244   6.038  65.380  1.00  0.00     0.190 C  
ENDBRANCH   9  31
ENDBRANCH   2   5
TORSDOF 7
ENDMDL
MODEL      105
REMARK 921   NORMALIZED FREE ENERGY PREDICTED BY IDOCK:   -2.05 KCAL/MOL
REMARK 922        TOTAL FREE ENERGY PREDICTED BY IDOCK:   -4.36 KCAL/MOL
REMARK 923 INTER-LIGAND FREE ENERGY PREDICTED BY IDOCK:   -4.96 KCAL/MOL
REMARK 924 INTRA-LIGAND FREE ENERGY PREDICTED BY IDOCK:    0.60 KCAL/MOL
REMARK 927      BINDING AFFINITY PREDICTED BY RF-SCORE:    0.00 PKD
ROOT
HETATM    1  C   UNL     1     -10.156   7.737  71.055  1.00  0.00    -0.199 C  
HETATM    2  C   UNL     1      -9.530   6.405  71.527  1.00  0.00    -0.162 C  
HETATM    3  C   UNL     1      -8.837   6.648  72.908  1.00  0.00    -0.134 C  
HETATM    4  C   UNL     1     -10.633   5.389  71.922  1.00  0.00    -0.288 C  
ENDROOT
BRANCH   2   5
HETATM    5  C   UNL     1      -8.479   5.916  70.484  1.00  0.00    -0.128 A  
HETATM    6  C   UNL     1      -8.549   6.533  69.189  1.00  0.00    -0.129 A  
HETATM    7  C   UNL     1      -7.500   6.563  68.253  1.00  0.00    -0.095 A  
HETATM    8  C   UNL     1      -6.324   5.981  68.711  1.00  0.00    -0.041 A  
HETATM    9  C   UNL     1      -7.427   5.007  70.720  1.00  0.00    -0.069 A  
HETATM   10  C   UNL     1      -6.316   5.157  69.864  1.00  0.00    -0.027 A  
BRANCH   7  11
HETATM   11  C   UNL     1      -7.660   7.200  66.890  1.00  0.00    -0.101 A  
HETATM   12  C   UNL     1      -8.103   8.563  66.830  1.00  0.00    -0.098 A  
HETATM   13  C   UNL     1      -8.388   9.274  65.636  1.00  0.00    -0.128 A  
HETATM   14  C   UNL     1      -7.506   6.551  65.641  1.00  0.00    -0.082 A  
HETATM   15  C   UNL     1      -8.102   8.612  64.441  1.00  0.00    -0.156 A  
HETATM   16  C   UNL     1      -7.663   7.281  64.444  1.00  0.00    -0.120 A  
BRANCH  13  17
HETATM   17  C   UNL     1      -9.044  10.619  65.651  1.00  0.00    -0.206 A  
HETATM   18  C   UNL     1      -9.926  11.045  64.639  1.00  0.00    -0.357 A  
HETATM   19  C   UNL     1     -10.096  13.275  65.591  1.00  0.00    -0.281 A  
HETATM   20  C   UNL     1      -8.753  11.561  66.663  1.00  0.00    -0.182 A  
HETATM   21  C   UNL     1     -10.447  12.351  64.604  1.00  0.00    -0.338 A  
HETATM   22  O   UNL     1     -10.806  15.310  66.600  1.00  0.00    -0.308 OA 
HETATM   23  C   UNL     1      -9.272  12.865  66.639  1.00  0.00    -0.222 A  
HETATM   24  C   UNL     1     -10.585  14.678  65.583  1.00  0.00    -0.332 C  
HETATM   25  O   UNL     1     -10.704  15.204  64.345  1.00  0.00    -0.160 OA 
ENDBRANCH  13  17
BRANCH  14  26
HETATM   26  O   UNL     1      -7.150   5.242  65.383  1.00  0.00    -0.064 OA 
BRANCH  26  27
HETATM   27  C   UNL     1      -8.205   4.287  65.274  1.00  0.00    -0.106 C  
BRANCH  27  28
HETATM   28  C   UNL     1      -9.571   4.966  65.303  1.00  0.00    -0.064 C  
HETATM   29  O   UNL     1     -10.226   4.862  64.042  1.00  0.00    -0.129 OA 
HETATM   30  H   UNL     1     -11.077   5.285  64.059  1.00  0.00     0.000 HD 
ENDBRANCH  27  28
ENDBRANCH  26  27
ENDBRANCH  14  26
ENDBRANCH   7  11
BRANCH   9  31
HETATM   31  N   UNL     1      -7.433   4.050  71.728  1.00  0.00    -0.059 NA 
HETATM   32  C   UNL     1      -8.697   3.561  72.300  1.00  0.00    -0.088 C  
HETATM   33  C   UNL     1      -6.912   2.145  73.041  1.00  0.00    -0.027 C  
HETATM   34  C   UNL     1      -8.201   2.800  73.528  1.00  0.00    -0.068 C  
HETATM   35  C   UNL     1      -6.553   2.872  71.731  1.00  0.00    -0.018 C  
ENDBRANCH   9  31
ENDBRANCH   2   5
TORSDOF 7
ENDMDL
MODEL      106
REMARK 921   NORMALIZED FREE ENERGY PREDICTED BY IDOCK:   -1.97 KCAL/MOL
REMARK 922        TOTAL FREE ENERGY PREDICTED BY IDOCK:   -4.25 KCAL/MOL
REMARK 923 INTER-LIGAND FREE ENERGY PREDICTED BY IDOCK:   -2.70 KCAL/MOL
REMARK 924 INTRA-LIGAND FREE ENERGY PREDICTED BY IDOCK:   -1.55 KCAL/MOL
REMARK 927      BINDING AFFINITY PREDICTED BY RF-SCORE:    0.00 PKD
ROOT
HETATM    1  C   UNL     1     -11.896  15.902  66.542  1.00  0.00     0.863 C  
HETATM    2  C   UNL     1     -10.637  15.528  65.727  1.00  0.00    -0.370 C  
HETATM    3  C   UNL     1     -10.794  14.055  65.225  1.00  0.00    -0.352 C  
HETATM    4  C   UNL     1     -10.606  16.300  64.382  1.00  0.00     0.819 C  
ENDROOT
BRANCH   2   5
HETATM    5  C   UNL     1      -9.369  15.652  66.625  1.00  0.00    -0.291 A  
HETATM    6  C   UNL     1      -8.803  14.415  67.084  1.00  0.00    -0.244 A  
HETATM    7  C   UNL     1      -7.482  14.252  67.538  1.00  0.00    -0.201 A  
HETATM    8  C   UNL     1      -6.715  15.408  67.456  1.00  0.00    -0.211 A  
HETATM    9  C   UNL     1      -8.686  16.844  66.946  1.00  0.00    -0.223 A  
HETATM   10  C   UNL     1      -7.318  16.674  67.251  1.00  0.00    -0.203 A  
BRANCH   7  11
HETATM   11  C   UNL     1      -6.966  12.922  68.043  1.00  0.00    -0.108 A  
HETATM   12  C   UNL     1      -6.880  11.835  67.112  1.00  0.00    -0.148 A  
HETATM   13  C   UNL     1      -6.505  10.508  67.444  1.00  0.00    -0.062 A  
HETATM   14  C   UNL     1      -6.642  12.607  69.385  1.00  0.00    -0.067 A  
HETATM   15  C   UNL     1      -6.086  10.296  68.759  1.00  0.00    -0.047 A  
HETATM   16  C   UNL     1      -6.147  11.325  69.707  1.00  0.00    -0.112 A  
BRANCH  13  17
HETATM   17  C   UNL     1      -6.637   9.379  66.470  1.00  0.00    -0.067 A  
HETATM   18  C   UNL     1      -7.855   9.060  65.838  1.00  0.00    -0.102 A  
HETATM   19  C   UNL     1      -6.906   7.079  64.797  1.00  0.00    -0.047 A  
HETATM   20  C   UNL     1      -5.545   8.529  66.187  1.00  0.00    -0.039 A  
HETATM   21  C   UNL     1      -7.994   7.929  65.013  1.00  0.00    -0.137 A  
HETATM   22  O   UNL     1      -6.081   5.425  63.297  1.00  0.00    -0.020 OA 
HETATM   23  C   UNL     1      -5.673   7.401  65.362  1.00  0.00    -0.037 A  
HETATM   24  C   UNL     1      -7.005   5.850  63.967  1.00  0.00    -0.050 C  
HETATM   25  O   UNL     1      -8.194   5.218  64.072  1.00  0.00    -0.122 OA 
ENDBRANCH  13  17
BRANCH  14  26
HETATM   26  O   UNL     1      -6.684  13.419  70.500  1.00  0.00     0.317 OA 
BRANCH  26  27
HETATM   27  C   UNL     1      -5.482  14.100  70.860  1.00  0.00    -0.162 C  
BRANCH  27  28
HETATM   28  C   UNL     1      -5.497  15.544  70.368  1.00  0.00    -0.145 C  
HETATM   29  O   UNL     1      -5.989  16.427  71.373  1.00  0.00     0.704 OA 
HETATM   30  H   UNL     1      -5.998  17.327  71.067  1.00  0.00     0.000 HD 
ENDBRANCH  27  28
ENDBRANCH  26  27
ENDBRANCH  14  26
ENDBRANCH   7  11
BRANCH   9  31
HETATM   31  N   UNL     1      -9.268  18.105  66.938  1.00  0.00    -0.270 NA 
HETATM   32  C   UNL     1      -9.986  18.615  68.116  1.00  0.00    -0.358 C  
HETATM   33  C   UNL     1      -9.650  20.417  66.574  1.00  0.00    -0.431 C  
HETATM   34  C   UNL     1     -10.684  19.845  67.538  1.00  0.00    -0.428 C  
HETATM   35  C   UNL     1      -8.617  19.294  66.367  1.00  0.00    -0.343 C  
ENDBRANCH   9  31
ENDBRANCH   2   5
TORSDOF 7
ENDMDL
MODEL      107
REMARK 921   NORMALIZED FREE ENERGY PREDICTED BY IDOCK:   -1.90 KCAL/MOL
REMARK 922        TOTAL FREE ENERGY PREDICTED BY IDOCK:   -4.15 KCAL/MOL
REMARK 923 INTER-LIGAND FREE ENERGY PREDICTED BY IDOCK:   -4.24 KCAL/MOL
REMARK 924 INTRA-LIGAND FREE ENERGY PREDICTED BY IDOCK:    0.08 KCAL/MOL
REMARK 927      BINDING AFFINITY PREDICTED BY RF-SCORE:    0.00 PKD
ROOT
HETATM    1  C   UNL     1      -9.204  17.815  65.869  1.00  0.00     0.097 C  
HETATM    2  C   UNL     1      -9.802  16.747  66.814  1.00  0.00    -0.282 C  
HETATM    3  C   UNL     1     -10.563  17.479  67.967  1.00  0.00    -0.384 C  
HETATM    4  C   UNL     1     -10.965  15.990  66.121  1.00  0.00    -0.083 C  
ENDROOT
BRANCH   2   5
HETATM    5  C   UNL     1      -8.658  15.866  67.405  1.00  0.00    -0.189 A  
HETATM    6  C   UNL     1      -8.976  14.480  67.604  1.00  0.00    -0.193 A  
HETATM    7  C   UNL     1      -8.030  13.446  67.726  1.00  0.00    -0.167 A  
HETATM    8  C   UNL     1      -6.715  13.870  67.578  1.00  0.00    -0.132 A  
HETATM    9  C   UNL     1      -7.337  16.280  67.671  1.00  0.00    -0.140 A  
HETATM   10  C   UNL     1      -6.378  15.245  67.636  1.00  0.00    -0.171 A  
BRANCH   7  11
HETATM   11  C   UNL     1      -8.440  12.010  67.973  1.00  0.00    -0.168 A  
HETATM   12  C   UNL     1      -7.823  10.987  67.180  1.00  0.00    -0.135 A  
HETATM   13  C   UNL     1      -8.160   9.610  67.224  1.00  0.00    -0.110 A  
HETATM   14  C   UNL     1      -9.455  11.572  68.857  1.00  0.00    -0.013 A  
HETATM   15  C   UNL     1      -9.085   9.232  68.199  1.00  0.00    -0.130 A  
HETATM   16  C   UNL     1      -9.713  10.192  69.004  1.00  0.00    -0.212 A  
BRANCH  13  17
HETATM   17  C   UNL     1      -7.628   8.630  66.225  1.00  0.00    -0.094 A  
HETATM   18  C   UNL     1      -6.255   8.509  65.938  1.00  0.00    -0.052 A  
HETATM   19  C   UNL     1      -6.672   6.915  64.151  1.00  0.00    -0.045 A  
HETATM   20  C   UNL     1      -8.500   7.816  65.467  1.00  0.00    -0.146 A  
HETATM   21  C   UNL     1      -5.777   7.666  64.918  1.00  0.00    -0.037 A  
HETATM   22  O   UNL     1      -6.792   4.999  62.742  1.00  0.00    -0.029 OA 
HETATM   23  C   UNL     1      -8.032   6.969  64.451  1.00  0.00    -0.101 A  
HETATM   24  C   UNL     1      -6.227   6.038  63.037  1.00  0.00    -0.025 C  
HETATM   25  O   UNL     1      -5.176   6.529  62.345  1.00  0.00    -0.021 OA 
ENDBRANCH  13  17
BRANCH  14  26
HETATM   26  O   UNL     1     -10.255  12.320  69.698  1.00  0.00     0.561 OA 
BRANCH  26  27
HETATM   27  C   UNL     1     -11.529  12.726  69.199  1.00  0.00    -0.306 C  
BRANCH  27  28
HETATM   28  C   UNL     1     -11.778  14.208  69.459  1.00  0.00    -0.312 C  
HETATM   29  O   UNL     1     -12.998  14.640  68.863  1.00  0.00     0.016 OA 
HETATM   30  H   UNL     1     -13.153  15.564  69.024  1.00  0.00     0.000 HD 
ENDBRANCH  27  28
ENDBRANCH  26  27
ENDBRANCH  14  26
ENDBRANCH   7  11
BRANCH   9  31
HETATM   31  N   UNL     1      -6.964  17.596  67.914  1.00  0.00    -0.184 NA 
HETATM   32  C   UNL     1      -6.347  18.416  66.860  1.00  0.00    -0.174 C  
HETATM   33  C   UNL     1      -6.955  19.837  68.689  1.00  0.00    -0.363 C  
HETATM   34  C   UNL     1      -5.851  19.618  67.660  1.00  0.00    -0.198 C  
HETATM   35  C   UNL     1      -7.792  18.545  68.673  1.00  0.00    -0.314 C  
ENDBRANCH   9  31
ENDBRANCH   2   5
TORSDOF 7
ENDMDL
MODEL      108
REMARK 921   NORMALIZED FREE ENERGY PREDICTED BY IDOCK:   -1.75 KCAL/MOL
REMARK 922        TOTAL FREE ENERGY PREDICTED BY IDOCK:   -3.94 KCAL/MOL
REMARK 923 INTER-LIGAND FREE ENERGY PREDICTED BY IDOCK:   -2.62 KCAL/MOL
REMARK 924 INTRA-LIGAND FREE ENERGY PREDICTED BY IDOCK:   -1.32 KCAL/MOL
REMARK 927      BINDING AFFINITY PREDICTED BY RF-SCORE:    0.00 PKD
ROOT
HETATM    1  C   UNL     1      -8.505   9.363  63.790  1.00  0.00    -0.200 C  
HETATM    2  C   UNL     1      -8.847   9.008  65.255  1.00  0.00    -0.234 C  
HETATM    3  C   UNL     1     -10.399   8.857  65.376  1.00  0.00     1.491 C  
HETATM    4  C   UNL     1      -8.380   7.569  65.595  1.00  0.00    -0.144 C  
ENDROOT
BRANCH   2   5
HETATM    5  C   UNL     1      -8.347  10.140  66.204  1.00  0.00    -0.131 A  
HETATM    6  C   UNL     1      -8.709  11.478  65.828  1.00  0.00    -0.007 A  
HETATM    7  C   UNL     1      -8.734  12.581  66.699  1.00  0.00    -0.101 A  
HETATM    8  C   UNL     1      -8.425  12.262  68.016  1.00  0.00    -0.171 A  
HETATM    9  C   UNL     1      -7.663   9.965  67.425  1.00  0.00    -0.091 A  
HETATM   10  C   UNL     1      -7.827  11.021  68.348  1.00  0.00    -0.127 A  
BRANCH   7  11
HETATM   11  C   UNL     1      -9.090  13.972  66.221  1.00  0.00    -0.047 A  
HETATM   12  C   UNL     1      -8.473  15.089  66.877  1.00  0.00    -0.269 A  
HETATM   13  C   UNL     1      -8.766  16.451  66.611  1.00  0.00    -0.291 A  
HETATM   14  C   UNL     1     -10.056  14.295  65.239  1.00  0.00    -0.349 A  
HETATM   15  C   UNL     1      -9.640  16.698  65.551  1.00  0.00     0.175 A  
HETATM   16  C   UNL     1     -10.266  15.643  64.875  1.00  0.00    -0.046 A  
BRANCH  13  17
HETATM   17  C   UNL     1      -8.243  17.558  67.472  1.00  0.00    -0.213 A  
HETATM   18  C   UNL     1      -7.704  18.745  66.938  1.00  0.00    -0.246 A  
HETATM   19  C   UNL     1      -7.046  19.548  69.136  1.00  0.00    -0.392 A  
HETATM   20  C   UNL     1      -8.208  17.433  68.878  1.00  0.00    -0.170 A  
HETATM   21  C   UNL     1      -7.114  19.729  67.752  1.00  0.00    -0.304 A  
HETATM   22  O   UNL     1      -6.783  20.744  71.177  1.00  0.00    -0.053 OA 
HETATM   23  C   UNL     1      -7.625  18.411  69.699  1.00  0.00     0.479 A  
HETATM   24  C   UNL     1      -6.401  20.535  70.040  1.00  0.00    -0.041 C  
HETATM   25  O   UNL     1      -5.316  21.134  69.503  1.00  0.00    -0.370 OA 
ENDBRANCH  13  17
BRANCH  14  26
HETATM   26  O   UNL     1     -10.846  13.448  64.488  1.00  0.00    -0.365 OA 
BRANCH  26  27
HETATM   27  C   UNL     1     -12.258  13.534  64.673  1.00  0.00    -0.406 C  
BRANCH  27  28
HETATM   28  C   UNL     1     -12.656  13.129  66.090  1.00  0.00    -0.046 C  
HETATM   29  O   UNL     1     -12.434  11.739  66.312  1.00  0.00     0.264 OA 
HETATM   30  H   UNL     1     -12.682  11.487  67.194  1.00  0.00     0.000 HD 
ENDBRANCH  27  28
ENDBRANCH  26  27
ENDBRANCH  14  26
ENDBRANCH   7  11
BRANCH   9  31
HETATM   31  N   UNL     1      -6.908   8.843  67.744  1.00  0.00    -0.069 NA 
HETATM   32  C   UNL     1      -5.450   8.832  67.553  1.00  0.00    -0.035 C  
HETATM   33  C   UNL     1      -6.076   6.918  68.850  1.00  0.00    -0.026 C  
HETATM   34  C   UNL     1      -5.130   7.349  67.734  1.00  0.00    -0.021 C  
HETATM   35  C   UNL     1      -7.121   8.043  68.959  1.00  0.00    -0.066 C  
ENDBRANCH   9  31
ENDBRANCH   2   5
TORSDOF 7
ENDMDL
MODEL      109
REMARK 921   NORMALIZED FREE ENERGY PREDICTED BY IDOCK:   -1.48 KCAL/MOL
REMARK 922        TOTAL FREE ENERGY PREDICTED BY IDOCK:   -3.56 KCAL/MOL
REMARK 923 INTER-LIGAND FREE ENERGY PREDICTED BY IDOCK:   -6.06 KCAL/MOL
REMARK 924 INTRA-LIGAND FREE ENERGY PREDICTED BY IDOCK:    2.50 KCAL/MOL
REMARK 927      BINDING AFFINITY PREDICTED BY RF-SCORE:    0.00 PKD
ROOT
HETATM    1  C   UNL     1     -10.827   8.500  66.403  1.00  0.00     0.798 C  
HETATM    2  C   UNL     1      -9.686   7.797  67.172  1.00  0.00    -0.243 C  
HETATM    3  C   UNL     1     -10.066   6.291  67.352  1.00  0.00    -0.191 C  
HETATM    4  C   UNL     1      -8.417   7.681  66.286  1.00  0.00    -0.140 C  
ENDROOT
BRANCH   2   5
HETATM    5  C   UNL     1      -9.496   8.469  68.566  1.00  0.00    -0.146 A  
HETATM    6  C   UNL     1     -10.391   9.552  68.866  1.00  0.00    -0.225 A  
HETATM    7  C   UNL     1     -10.682  10.022  70.159  1.00  0.00    -0.361 A  
HETATM    8  C   UNL     1     -10.062   9.299  71.171  1.00  0.00    -0.374 A  
HETATM    9  C   UNL     1      -8.604   8.057  69.578  1.00  0.00    -0.136 A  
HETATM   10  C   UNL     1      -8.996   8.409  70.887  1.00  0.00    -0.188 A  
BRANCH   7  11
HETATM   11  C   UNL     1     -11.608  11.195  70.395  1.00  0.00    -0.355 A  
HETATM   12  C   UNL     1     -11.303  12.437  69.745  1.00  0.00    -0.125 A  
HETATM   13  C   UNL     1     -12.014  13.649  69.932  1.00  0.00    -0.415 A  
HETATM   14  C   UNL     1     -12.713  11.222  71.280  1.00  0.00    -0.405 A  
HETATM   15  C   UNL     1     -13.160  13.575  70.726  1.00  0.00    -0.074 A  
HETATM   16  C   UNL     1     -13.506  12.385  71.380  1.00  0.00     0.157 A  
BRANCH  13  17
HETATM   17  C   UNL     1     -11.519  14.953  69.389  1.00  0.00    -0.324 A  
HETATM   18  C   UNL     1     -11.718  15.342  68.050  1.00  0.00    -0.235 A  
HETATM   19  C   UNL     1     -10.361  17.340  68.328  1.00  0.00    -0.361 A  
HETATM   20  C   UNL     1     -10.760  15.835  70.190  1.00  0.00    -0.354 A  
HETATM   21  C   UNL     1     -11.152  16.516  67.522  1.00  0.00    -0.078 A  
HETATM   22  O   UNL     1      -9.525  19.562  68.498  1.00  0.00    -0.356 OA 
HETATM   23  C   UNL     1     -10.194  17.011  69.673  1.00  0.00    -0.008 A  
HETATM   24  C   UNL     1      -9.706  18.570  67.814  1.00  0.00    -0.304 C  
HETATM   25  O   UNL     1      -9.279  18.465  66.537  1.00  0.00    -0.291 OA 
ENDBRANCH  13  17
BRANCH  14  26
HETATM   26  O   UNL     1     -13.208  10.211  72.079  1.00  0.00    -0.443 OA 
BRANCH  26  27
HETATM   27  C   UNL     1     -12.305   9.171  72.454  1.00  0.00    -0.240 C  
BRANCH  27  28
HETATM   28  C   UNL     1     -12.980   7.804  72.390  1.00  0.00     0.064 C  
HETATM   29  O   UNL     1     -14.348   7.920  72.007  1.00  0.00    -0.489 OA 
HETATM   30  H   UNL     1     -14.768   7.069  71.967  1.00  0.00     0.000 HD 
ENDBRANCH  27  28
ENDBRANCH  26  27
ENDBRANCH  14  26
ENDBRANCH   7  11
BRANCH   9  31
HETATM   31  N   UNL     1      -7.442   7.332  69.347  1.00  0.00    -0.090 NA 
HETATM   32  C   UNL     1      -6.793   7.342  68.027  1.00  0.00    -0.070 C  
HETATM   33  C   UNL     1      -5.304   6.340  69.614  1.00  0.00    -0.013 C  
HETATM   34  C   UNL     1      -5.786   6.202  68.174  1.00  0.00    -0.012 C  
HETATM   35  C   UNL     1      -6.324   7.268  70.300  1.00  0.00    -0.034 C  
ENDBRANCH   9  31
ENDBRANCH   2   5
TORSDOF 7
ENDMDL
MODEL      110
REMARK 921   NORMALIZED FREE ENERGY PREDICTED BY IDOCK:   -1.48 KCAL/MOL
REMARK 922        TOTAL FREE ENERGY PREDICTED BY IDOCK:   -3.55 KCAL/MOL
REMARK 923 INTER-LIGAND FREE ENERGY PREDICTED BY IDOCK:   -4.05 KCAL/MOL
REMARK 924 INTRA-LIGAND FREE ENERGY PREDICTED BY IDOCK:    0.50 KCAL/MOL
REMARK 927      BINDING AFFINITY PREDICTED BY RF-SCORE:    0.00 PKD
ROOT
HETATM    1  C   UNL     1      -9.333  14.978  66.909  1.00  0.00    -0.258 C  
HETATM    2  C   UNL     1      -9.843  13.876  67.864  1.00  0.00    -0.228 C  
HETATM    3  C   UNL     1      -8.820  13.728  69.038  1.00  0.00     0.273 C  
HETATM    4  C   UNL     1     -11.106  14.352  68.628  1.00  0.00    -0.269 C  
ENDROOT
BRANCH   2   5
HETATM    5  C   UNL     1      -9.968  12.525  67.094  1.00  0.00    -0.217 A  
HETATM    6  C   UNL     1      -9.172  11.441  67.598  1.00  0.00    -0.158 A  
HETATM    7  C   UNL     1      -9.413  10.079  67.345  1.00  0.00    -0.176 A  
HETATM    8  C   UNL     1     -10.557   9.843  66.591  1.00  0.00    -0.186 A  
HETATM    9  C   UNL     1     -10.846  12.252  66.025  1.00  0.00    -0.275 A  
HETATM   10  C   UNL     1     -11.197  10.892  65.885  1.00  0.00     0.163 A  
BRANCH   7  11
HETATM   11  C   UNL     1      -8.506   8.992  67.880  1.00  0.00    -0.121 A  
HETATM   12  C   UNL     1      -8.027   8.001  66.960  1.00  0.00    -0.108 A  
HETATM   13  C   UNL     1      -7.247   6.871  67.316  1.00  0.00    -0.089 A  
HETATM   14  C   UNL     1      -8.150   8.794  69.236  1.00  0.00    -0.110 A  
HETATM   15  C   UNL     1      -6.834   6.802  68.648  1.00  0.00    -0.066 A  
HETATM   16  C   UNL     1      -7.270   7.747  69.586  1.00  0.00    -0.075 A  
BRANCH  13  17
HETATM   17  C   UNL     1      -6.958   5.769  66.347  1.00  0.00    -0.060 A  
HETATM   18  C   UNL     1      -7.615   5.657  65.106  1.00  0.00    -0.078 A  
HETATM   19  C   UNL     1      -6.549   3.527  64.623  1.00  0.00    -0.036 A  
HETATM   20  C   UNL     1      -6.046   4.738  66.665  1.00  0.00    -0.031 A  
HETATM   21  C   UNL     1      -7.418   4.557  64.253  1.00  0.00    -0.071 A  
HETATM   22  O   UNL     1      -5.267   1.734  63.725  1.00  0.00    -0.004 OA 
HETATM   23  C   UNL     1      -5.840   3.637  65.819  1.00  0.00    -0.019 A  
HETATM   24  C   UNL     1      -6.332   2.323  63.781  1.00  0.00    -0.014 C  
HETATM   25  O   UNL     1      -7.441   1.908  63.129  1.00  0.00    -0.049 OA 
ENDBRANCH  13  17
BRANCH  14  26
HETATM   26  O   UNL     1      -8.503   9.539  70.342  1.00  0.00    -0.191 OA 
BRANCH  26  27
HETATM   27  C   UNL     1      -8.760   8.830  71.554  1.00  0.00    -0.206 C  
BRANCH  27  28
HETATM   28  C   UNL     1     -10.259   8.696  71.808  1.00  0.00    -0.308 C  
HETATM   29  O   UNL     1     -10.994   8.712  70.586  1.00  0.00    -0.230 OA 
HETATM   30  H   UNL     1     -11.927   8.628  70.744  1.00  0.00     0.000 HD 
ENDBRANCH  27  28
ENDBRANCH  26  27
ENDBRANCH  14  26
ENDBRANCH   7  11
BRANCH   9  31
HETATM   31  N   UNL     1     -11.372  13.220  65.179  1.00  0.00    -0.293 NA 
HETATM   32  C   UNL     1     -10.653  14.479  64.929  1.00  0.00    -0.427 C  
HETATM   33  C   UNL     1     -12.446  14.285  63.352  1.00  0.00     0.570 C  
HETATM   34  C   UNL     1     -11.726  15.307  64.225  1.00  0.00    -0.223 C  
HETATM   35  C   UNL     1     -12.016  12.909  63.894  1.00  0.00    -0.480 C  
ENDBRANCH   9  31
ENDBRANCH   2   5
TORSDOF 7
ENDMDL
MODEL      111
REMARK 921   NORMALIZED FREE ENERGY PREDICTED BY IDOCK:   -1.38 KCAL/MOL
REMARK 922        TOTAL FREE ENERGY PREDICTED BY IDOCK:   -3.41 KCAL/MOL
REMARK 923 INTER-LIGAND FREE ENERGY PREDICTED BY IDOCK:   -3.31 KCAL/MOL
REMARK 924 INTRA-LIGAND FREE ENERGY PREDICTED BY IDOCK:   -0.10 KCAL/MOL
REMARK 927      BINDING AFFINITY PREDICTED BY RF-SCORE:    0.00 PKD
ROOT
HETATM    1  C   UNL     1     -12.227  16.690  68.596  1.00  0.00     1.213 C  
HETATM    2  C   UNL     1     -10.925  16.308  69.336  1.00  0.00    -0.337 C  
HETATM    3  C   UNL     1     -10.364  17.587  70.039  1.00  0.00     0.648 C  
HETATM    4  C   UNL     1     -11.233  15.406  70.559  1.00  0.00    -0.358 C  
ENDROOT
BRANCH   2   5
HETATM    5  C   UNL     1      -9.880  15.759  68.317  1.00  0.00    -0.213 A  
HETATM    6  C   UNL     1      -9.209  14.548  68.699  1.00  0.00    -0.192 A  
HETATM    7  C   UNL     1      -8.561  13.671  67.811  1.00  0.00    -0.182 A  
HETATM    8  C   UNL     1      -8.668  14.045  66.477  1.00  0.00     0.048 A  
HETATM    9  C   UNL     1      -9.606  16.284  67.037  1.00  0.00    -0.231 A  
HETATM   10  C   UNL     1      -9.097  15.345  66.113  1.00  0.00    -0.339 A  
BRANCH   7  11
HETATM   11  C   UNL     1      -7.841  12.431  68.293  1.00  0.00    -0.150 A  
HETATM   12  C   UNL     1      -8.633  11.310  68.709  1.00  0.00    -0.109 A  
HETATM   13  C   UNL     1      -8.119  10.113  69.269  1.00  0.00    -0.149 A  
HETATM   14  C   UNL     1      -6.443  12.291  68.467  1.00  0.00    -0.064 A  
HETATM   15  C   UNL     1      -6.728   9.997  69.303  1.00  0.00    -0.057 A  
HETATM   16  C   UNL     1      -5.908  11.060  68.903  1.00  0.00    -0.040 A  
BRANCH  13  17
HETATM   17  C   UNL     1      -9.008   9.072  69.873  1.00  0.00    -0.170 A  
HETATM   18  C   UNL     1      -9.827   8.229  69.097  1.00  0.00    -0.179 A  
HETATM   19  C   UNL     1     -10.862   7.257  71.069  1.00  0.00    -0.258 A  
HETATM   20  C   UNL     1      -9.117   8.931  71.275  1.00  0.00    -0.323 A  
HETATM   21  C   UNL     1     -10.741   7.333  69.679  1.00  0.00    -0.249 A  
HETATM   22  O   UNL     1     -11.624   5.829  72.815  1.00  0.00    -0.281 OA 
HETATM   23  C   UNL     1     -10.023   8.036  71.865  1.00  0.00    -0.255 A  
HETATM   24  C   UNL     1     -11.837   6.358  71.738  1.00  0.00    -0.321 C  
HETATM   25  O   UNL     1     -13.004   6.229  71.070  1.00  0.00     0.404 OA 
ENDBRANCH  13  17
BRANCH  14  26
HETATM   26  O   UNL     1      -5.442  13.207  68.213  1.00  0.00    -0.074 OA 
BRANCH  26  27
HETATM   27  C   UNL     1      -5.707  14.572  68.537  1.00  0.00    -0.096 C  
BRANCH  27  28
HETATM   28  C   UNL     1      -5.135  15.511  67.479  1.00  0.00     0.047 C  
HETATM   29  O   UNL     1      -5.603  16.845  67.664  1.00  0.00    -0.117 OA 
HETATM   30  H   UNL     1      -5.248  17.430  67.006  1.00  0.00     0.000 HD 
ENDBRANCH  27  28
ENDBRANCH  26  27
ENDBRANCH  14  26
ENDBRANCH   7  11
BRANCH   9  31
HETATM   31  N   UNL     1      -9.838  17.602  66.666  1.00  0.00    -0.295 NA 
HETATM   32  C   UNL     1     -11.150  18.025  66.154  1.00  0.00     0.549 C  
HETATM   33  C   UNL     1      -9.841  19.974  66.628  1.00  0.00    -0.577 C  
HETATM   34  C   UNL     1     -10.832  19.417  65.611  1.00  0.00    -0.323 C  
HETATM   35  C   UNL     1      -9.364  18.757  67.443  1.00  0.00    -0.286 C  
ENDBRANCH   9  31
ENDBRANCH   2   5
TORSDOF 7
ENDMDL
MODEL      112
REMARK 921   NORMALIZED FREE ENERGY PREDICTED BY IDOCK:   -1.36 KCAL/MOL
REMARK 922        TOTAL FREE ENERGY PREDICTED BY IDOCK:   -3.39 KCAL/MOL
REMARK 923 INTER-LIGAND FREE ENERGY PREDICTED BY IDOCK:   -3.66 KCAL/MOL
REMARK 924 INTRA-LIGAND FREE ENERGY PREDICTED BY IDOCK:    0.27 KCAL/MOL
REMARK 927      BINDING AFFINITY PREDICTED BY RF-SCORE:    0.00 PKD
ROOT
HETATM    1  C   UNL     1      -9.307  10.316  65.706  1.00  0.00    -0.233 C  
HETATM    2  C   UNL     1      -8.997   9.033  66.511  1.00  0.00    -0.177 C  
HETATM    3  C   UNL     1      -7.918   9.377  67.591  1.00  0.00    -0.099 C  
HETATM    4  C   UNL     1     -10.201   8.642  67.407  1.00  0.00    -0.329 C  
ENDROOT
BRANCH   2   5
HETATM    5  C   UNL     1      -8.458   7.926  65.554  1.00  0.00    -0.153 A  
HETATM    6  C   UNL     1      -8.266   6.630  66.142  1.00  0.00    -0.124 A  
HETATM    7  C   UNL     1      -8.191   5.422  65.425  1.00  0.00    -0.130 A  
HETATM    8  C   UNL     1      -8.381   5.571  64.056  1.00  0.00    -0.091 A  
HETATM    9  C   UNL     1      -8.236   8.056  64.167  1.00  0.00    -0.057 A  
HETATM   10  C   UNL     1      -8.317   6.847  63.443  1.00  0.00     0.208 A  
BRANCH   7  11
HETATM   11  C   UNL     1      -7.947   4.096  66.112  1.00  0.00    -0.098 A  
HETATM   12  C   UNL     1      -8.510   3.899  67.416  1.00  0.00    -0.103 A  
HETATM   13  C   UNL     1      -8.300   2.755  68.228  1.00  0.00    -0.088 A  
HETATM   14  C   UNL     1      -7.129   3.045  65.632  1.00  0.00    -0.061 A  
HETATM   15  C   UNL     1      -7.581   1.709  67.646  1.00  0.00    -0.058 A  
HETATM   16  C   UNL     1      -7.015   1.849  66.372  1.00  0.00    -0.043 A  
BRANCH  13  17
HETATM   17  C   UNL     1      -8.742   2.704  69.657  1.00  0.00    -0.130 A  
HETATM   18  C   UNL     1      -9.413   3.772  70.283  1.00  0.00    -0.257 A  
HETATM   19  C   UNL     1      -9.365   2.662  72.445  1.00  0.00    -0.151 A  
HETATM   20  C   UNL     1      -8.443   1.590  70.473  1.00  0.00    -0.071 A  
HETATM   21  C   UNL     1      -9.723   3.758  71.655  1.00  0.00    -0.239 A  
HETATM   22  O   UNL     1      -9.883   1.575  74.498  1.00  0.00    -0.072 OA 
HETATM   23  C   UNL     1      -8.752   1.564  71.841  1.00  0.00    -0.081 A  
HETATM   24  C   UNL     1      -9.632   2.609  73.905  1.00  0.00    -0.088 C  
HETATM   25  O   UNL     1      -9.512   3.804  74.523  1.00  0.00    -0.101 OA 
ENDBRANCH  13  17
BRANCH  14  26
HETATM   26  O   UNL     1      -6.417   2.971  64.452  1.00  0.00    -0.029 OA 
BRANCH  26  27
HETATM   27  C   UNL     1      -7.149   2.672  63.263  1.00  0.00    -0.040 C  
BRANCH  27  28
HETATM   28  C   UNL     1      -8.149   1.543  63.499  1.00  0.00    -0.061 C  
HETATM   29  O   UNL     1      -9.490   2.000  63.347  1.00  0.00    -0.093 OA 
HETATM   30  H   UNL     1     -10.113   1.297  63.494  1.00  0.00     0.000 HD 
ENDBRANCH  27  28
ENDBRANCH  26  27
ENDBRANCH  14  26
ENDBRANCH   7  11
BRANCH   9  31
HETATM   31  N   UNL     1      -7.989   9.263  63.525  1.00  0.00    -0.135 NA 
HETATM   32  C   UNL     1      -6.808   9.436  62.667  1.00  0.00    -0.095 C  
HETATM   33  C   UNL     1      -8.285  11.292  62.335  1.00  0.00    -0.118 C  
HETATM   34  C   UNL     1      -6.804  10.949  62.456  1.00  0.00     0.022 C  
HETATM   35  C   UNL     1      -9.036  10.057  62.866  1.00  0.00    -0.286 C  
ENDBRANCH   9  31
ENDBRANCH   2   5
TORSDOF 7
ENDMDL
MODEL      113
REMARK 921   NORMALIZED FREE ENERGY PREDICTED BY IDOCK:   -0.97 KCAL/MOL
REMARK 922        TOTAL FREE ENERGY PREDICTED BY IDOCK:   -2.83 KCAL/MOL
REMARK 923 INTER-LIGAND FREE ENERGY PREDICTED BY IDOCK:   -4.51 KCAL/MOL
REMARK 924 INTRA-LIGAND FREE ENERGY PREDICTED BY IDOCK:    1.67 KCAL/MOL
REMARK 927      BINDING AFFINITY PREDICTED BY RF-SCORE:    0.00 PKD
ROOT
HETATM    1  C   UNL     1      -7.482  17.128  66.322  1.00  0.00    -0.344 C  
HETATM    2  C   UNL     1      -8.611  16.099  66.558  1.00  0.00    -0.341 C  
HETATM    3  C   UNL     1      -9.739  16.786  67.396  1.00  0.00    -0.245 C  
HETATM    4  C   UNL     1      -9.364  15.797  65.236  1.00  0.00     0.418 C  
ENDROOT
BRANCH   2   5
HETATM    5  C   UNL     1      -8.050  14.866  67.331  1.00  0.00    -0.218 A  
HETATM    6  C   UNL     1      -8.764  13.634  67.148  1.00  0.00    -0.224 A  
HETATM    7  C   UNL     1      -8.237  12.353  67.393  1.00  0.00    -0.180 A  
HETATM    8  C   UNL     1      -6.904  12.361  67.787  1.00  0.00    -0.113 A  
HETATM    9  C   UNL     1      -6.872  14.832  68.106  1.00  0.00    -0.125 A  
HETATM   10  C   UNL     1      -6.274  13.557  68.212  1.00  0.00    -0.105 A  
BRANCH   7  11
HETATM   11  C   UNL     1      -9.064  11.098  67.213  1.00  0.00    -0.152 A  
HETATM   12  C   UNL     1      -8.374   9.862  66.985  1.00  0.00    -0.121 A  
HETATM   13  C   UNL     1      -8.999   8.620  66.709  1.00  0.00    -0.167 A  
HETATM   14  C   UNL     1     -10.477  11.031  67.153  1.00  0.00    -0.232 A  
HETATM   15  C   UNL     1     -10.394   8.603  66.781  1.00  0.00    -0.336 A  
HETATM   16  C   UNL     1     -11.116   9.782  67.005  1.00  0.00     0.103 A  
BRANCH  13  17
HETATM   17  C   UNL     1      -8.221   7.418  66.275  1.00  0.00    -0.126 A  
HETATM   18  C   UNL     1      -7.540   7.358  65.044  1.00  0.00    -0.103 A  
HETATM   19  C   UNL     1      -6.939   5.027  65.379  1.00  0.00    -0.062 A  
HETATM   20  C   UNL     1      -8.188   6.247  67.065  1.00  0.00    -0.109 A  
HETATM   21  C   UNL     1      -6.906   6.185  64.597  1.00  0.00    -0.047 A  
HETATM   22  O   UNL     1      -5.821   2.953  65.715  1.00  0.00    -0.018 OA 
HETATM   23  C   UNL     1      -7.555   5.072  66.630  1.00  0.00    -0.088 A  
HETATM   24  C   UNL     1      -6.321   3.749  64.941  1.00  0.00    -0.027 C  
HETATM   25  O   UNL     1      -6.419   3.526  63.612  1.00  0.00    -0.028 OA 
ENDBRANCH  13  17
BRANCH  14  26
HETATM   26  O   UNL     1     -11.399  12.051  67.276  1.00  0.00    -0.289 OA 
BRANCH  26  27
HETATM   27  C   UNL     1     -12.316  12.238  66.198  1.00  0.00     0.351 C  
BRANCH  27  28
HETATM   28  C   UNL     1     -12.539  13.721  65.913  1.00  0.00    -0.447 C  
HETATM   29  O   UNL     1     -12.572  13.979  64.512  1.00  0.00    -0.635 OA 
HETATM   30  H   UNL     1     -12.711  14.902  64.335  1.00  0.00     0.000 HD 
ENDBRANCH  27  28
ENDBRANCH  26  27
ENDBRANCH  14  26
ENDBRANCH   7  11
BRANCH   9  31
HETATM   31  N   UNL     1      -6.296  15.946  68.702  1.00  0.00    -0.110 NA 
HETATM   32  C   UNL     1      -6.100  17.193  67.947  1.00  0.00    -0.137 C  
HETATM   33  C   UNL     1      -5.726  17.630  70.272  1.00  0.00    -0.200 C  
HETATM   34  C   UNL     1      -5.190  17.980  68.887  1.00  0.00    -0.178 C  
HETATM   35  C   UNL     1      -6.622  16.395  70.064  1.00  0.00     0.126 C  
ENDBRANCH   9  31
ENDBRANCH   2   5
TORSDOF 7
ENDMDL
MODEL      114
REMARK 921   NORMALIZED FREE ENERGY PREDICTED BY IDOCK:   -0.66 KCAL/MOL
REMARK 922        TOTAL FREE ENERGY PREDICTED BY IDOCK:   -2.40 KCAL/MOL
REMARK 923 INTER-LIGAND FREE ENERGY PREDICTED BY IDOCK:   -1.71 KCAL/MOL
REMARK 924 INTRA-LIGAND FREE ENERGY PREDICTED BY IDOCK:   -0.68 KCAL/MOL
REMARK 927      BINDING AFFINITY PREDICTED BY RF-SCORE:    0.00 PKD
ROOT
HETATM    1  C   UNL     1     -13.526  12.983  70.091  1.00  0.00     1.621 C  
HETATM    2  C   UNL     1     -12.214  12.176  69.962  1.00  0.00    -0.270 C  
HETATM    3  C   UNL     1     -12.062  11.275  71.231  1.00  0.00    -0.150 C  
HETATM    4  C   UNL     1     -12.336  11.104  68.848  1.00  0.00     0.048 C  
ENDROOT
BRANCH   2   5
HETATM    5  C   UNL     1     -11.002  13.152  69.854  1.00  0.00     0.363 A  
HETATM    6  C   UNL     1      -9.867  12.661  69.125  1.00  0.00     0.437 A  
HETATM    7  C   UNL     1      -8.863  13.466  68.558  1.00  0.00    -0.068 A  
HETATM    8  C   UNL     1      -9.087  14.830  68.710  1.00  0.00    -0.191 A  
HETATM    9  C   UNL     1     -10.957  14.483  70.318  1.00  0.00     0.037 A  
HETATM   10  C   UNL     1     -10.049  15.316  69.630  1.00  0.00    -0.246 A  
BRANCH   7  11
HETATM   11  C   UNL     1      -7.673  12.874  67.835  1.00  0.00    -0.143 A  
HETATM   12  C   UNL     1      -7.864  11.649  67.113  1.00  0.00    -0.163 A  
HETATM   13  C   UNL     1      -6.836  10.921  66.461  1.00  0.00    -0.132 A  
HETATM   14  C   UNL     1      -6.344  13.362  67.875  1.00  0.00    -0.151 A  
HETATM   15  C   UNL     1      -5.574  11.519  66.441  1.00  0.00    -0.070 A  
HETATM   16  C   UNL     1      -5.336  12.717  67.127  1.00  0.00     0.153 A  
BRANCH  13  17
HETATM   17  C   UNL     1      -7.064   9.550  65.908  1.00  0.00    -0.096 A  
HETATM   18  C   UNL     1      -8.268   9.174  65.280  1.00  0.00    -0.135 A  
HETATM   19  C   UNL     1      -7.549   6.862  65.069  1.00  0.00    -0.104 A  
HETATM   20  C   UNL     1      -6.091   8.535  66.049  1.00  0.00    -0.048 A  
HETATM   21  C   UNL     1      -8.513   7.853  64.864  1.00  0.00    -0.045 A  
HETATM   22  O   UNL     1      -6.873   4.711  64.305  1.00  0.00    -0.043 OA 
HETATM   23  C   UNL     1      -6.324   7.215  65.634  1.00  0.00    -0.040 A  
HETATM   24  C   UNL     1      -7.769   5.444  64.686  1.00  0.00    -0.090 C  
HETATM   25  O   UNL     1      -9.042   5.026  64.856  1.00  0.00    -0.149 OA 
ENDBRANCH  13  17
BRANCH  14  26
HETATM   26  O   UNL     1      -5.848  14.471  68.528  1.00  0.00    -0.084 OA 
BRANCH  26  27
HETATM   27  C   UNL     1      -5.279  15.504  67.724  1.00  0.00    -0.095 C  
BRANCH  27  28
HETATM   28  C   UNL     1      -6.241  16.679  67.571  1.00  0.00    -0.160 C  
HETATM   29  O   UNL     1      -7.238  16.406  66.590  1.00  0.00    -0.219 OA 
HETATM   30  H   UNL     1      -7.837  17.137  66.494  1.00  0.00     0.000 HD 
ENDBRANCH  27  28
ENDBRANCH  26  27
ENDBRANCH  14  26
ENDBRANCH   7  11
BRANCH   9  31
HETATM   31  N   UNL     1     -11.752  14.980  71.343  1.00  0.00    -0.342 NA 
HETATM   32  C   UNL     1     -11.155  15.649  72.509  1.00  0.00     0.344 C  
HETATM   33  C   UNL     1     -13.520  16.024  72.530  1.00  0.00    -0.340 C  
HETATM   34  C   UNL     1     -12.348  15.728  73.459  1.00  0.00    -0.663 C  
HETATM   35  C   UNL     1     -13.009  15.708  71.112  1.00  0.00    -0.478 C  
ENDBRANCH   9  31
ENDBRANCH   2   5
TORSDOF 7
ENDMDL
MODEL      115
REMARK 921   NORMALIZED FREE ENERGY PREDICTED BY IDOCK:   -0.44 KCAL/MOL
REMARK 922        TOTAL FREE ENERGY PREDICTED BY IDOCK:   -2.09 KCAL/MOL
REMARK 923 INTER-LIGAND FREE ENERGY PREDICTED BY IDOCK:   -3.08 KCAL/MOL
REMARK 924 INTRA-LIGAND FREE ENERGY PREDICTED BY IDOCK:    0.98 KCAL/MOL
REMARK 927      BINDING AFFINITY PREDICTED BY RF-SCORE:    0.00 PKD
ROOT
HETATM    1  C   UNL     1      -8.745  19.679  68.854  1.00  0.00    -0.229 C  
HETATM    2  C   UNL     1      -9.664  18.438  68.912  1.00  0.00    -0.318 C  
HETATM    3  C   UNL     1     -10.179  18.273  70.380  1.00  0.00     1.706 C  
HETATM    4  C   UNL     1     -10.993  18.703  68.158  1.00  0.00     0.126 C  
ENDROOT
BRANCH   2   5
HETATM    5  C   UNL     1      -8.866  17.169  68.483  1.00  0.00    -0.265 A  
HETATM    6  C   UNL     1      -9.654  16.057  68.029  1.00  0.00    -0.215 A  
HETATM    7  C   UNL     1      -9.175  15.001  67.233  1.00  0.00    -0.210 A  
HETATM    8  C   UNL     1      -7.847  15.145  66.853  1.00  0.00    -0.110 A  
HETATM    9  C   UNL     1      -7.462  17.049  68.412  1.00  0.00    -0.213 A  
HETATM   10  C   UNL     1      -7.000  16.085  67.490  1.00  0.00    -0.205 A  
BRANCH   7  11
HETATM   11  C   UNL     1     -10.058  13.841  66.826  1.00  0.00    -0.265 A  
HETATM   12  C   UNL     1      -9.639  12.517  67.183  1.00  0.00    -0.208 A  
HETATM   13  C   UNL     1     -10.302  11.323  66.800  1.00  0.00    -0.278 A  
HETATM   14  C   UNL     1     -11.229  13.921  66.034  1.00  0.00    -0.300 A  
HETATM   15  C   UNL     1     -11.511  11.481  66.121  1.00  0.00    -0.105 A  
HETATM   16  C   UNL     1     -11.969  12.753  65.752  1.00  0.00    -0.502 A  
BRANCH  13  17
HETATM   17  C   UNL     1      -9.699   9.973  67.027  1.00  0.00    -0.227 A  
HETATM   18  C   UNL     1      -9.477   9.055  65.982  1.00  0.00    -0.323 A  
HETATM   19  C   UNL     1      -8.761   7.321  67.527  1.00  0.00    -0.121 A  
HETATM   20  C   UNL     1      -9.380   9.526  68.329  1.00  0.00    -0.139 A  
HETATM   21  C   UNL     1      -9.015   7.748  66.221  1.00  0.00    -0.209 A  
HETATM   22  O   UNL     1      -7.563   5.682  68.770  1.00  0.00    -0.085 OA 
HETATM   23  C   UNL     1      -8.915   8.225  68.577  1.00  0.00    -0.137 A  
HETATM   24  C   UNL     1      -8.310   5.941  67.843  1.00  0.00    -0.111 C  
HETATM   25  O   UNL     1      -8.851   4.996  67.043  1.00  0.00    -0.108 OA 
ENDBRANCH  13  17
BRANCH  14  26
HETATM   26  O   UNL     1     -11.838  15.038  65.497  1.00  0.00    -0.224 OA 
BRANCH  26  27
HETATM   27  C   UNL     1     -11.069  15.833  64.595  1.00  0.00    -0.361 C  
BRANCH  27  28
HETATM   28  C   UNL     1     -10.951  17.272  65.089  1.00  0.00     0.122 C  
HETATM   29  O   UNL     1      -9.587  17.660  65.228  1.00  0.00     0.139 OA 
HETATM   30  H   UNL     1      -9.514  18.556  65.536  1.00  0.00     0.000 HD 
ENDBRANCH  27  28
ENDBRANCH  26  27
ENDBRANCH  14  26
ENDBRANCH   7  11
BRANCH   9  31
HETATM   31  N   UNL     1      -6.574  17.823  69.148  1.00  0.00    -0.243 NA 
HETATM   32  C   UNL     1      -6.406  19.257  68.865  1.00  0.00    -0.258 C  
HETATM   33  C   UNL     1      -5.327  18.746  70.942  1.00  0.00    -0.251 C  
HETATM   34  C   UNL     1      -5.155  19.583  69.679  1.00  0.00    -0.197 C  
HETATM   35  C   UNL     1      -6.428  17.722  70.607  1.00  0.00     1.249 C  
ENDBRANCH   9  31
ENDBRANCH   2   5
TORSDOF 7
ENDMDL
MODEL      116
REMARK 921   NORMALIZED FREE ENERGY PREDICTED BY IDOCK:   -0.43 KCAL/MOL
REMARK 922        TOTAL FREE ENERGY PREDICTED BY IDOCK:   -2.08 KCAL/MOL
REMARK 923 INTER-LIGAND FREE ENERGY PREDICTED BY IDOCK:   -1.92 KCAL/MOL
REMARK 924 INTRA-LIGAND FREE ENERGY PREDICTED BY IDOCK:   -0.16 KCAL/MOL
REMARK 927      BINDING AFFINITY PREDICTED BY RF-SCORE:    0.00 PKD
ROOT
HETATM    1  C   UNL     1     -10.877  15.636  67.789  1.00  0.00    -0.307 C  
HETATM    2  C   UNL     1     -11.276  14.206  68.220  1.00  0.00    -0.295 C  
HETATM    3  C   UNL     1     -11.252  14.136  69.782  1.00  0.00    -0.205 C  
HETATM    4  C   UNL     1     -12.778  13.946  67.933  1.00  0.00     0.910 C  
ENDROOT
BRANCH   2   5
HETATM    5  C   UNL     1     -10.270  13.174  67.624  1.00  0.00    -0.224 A  
HETATM    6  C   UNL     1      -9.196  12.776  68.491  1.00  0.00    -0.062 A  
HETATM    7  C   UNL     1      -8.436  11.602  68.344  1.00  0.00    -0.157 A  
HETATM    8  C   UNL     1      -8.851  10.794  67.293  1.00  0.00    -0.133 A  
HETATM    9  C   UNL     1     -10.369  12.539  66.369  1.00  0.00    -0.243 A  
HETATM   10  C   UNL     1      -9.725  11.286  66.292  1.00  0.00    -0.246 A  
BRANCH   7  11
HETATM   11  C   UNL     1      -7.292  11.267  69.277  1.00  0.00    -0.068 A  
HETATM   12  C   UNL     1      -7.059   9.886  69.589  1.00  0.00    -0.093 A  
HETATM   13  C   UNL     1      -6.091   9.413  70.511  1.00  0.00    -0.059 A  
HETATM   14  C   UNL     1      -6.471  12.196  69.959  1.00  0.00     0.050 A  
HETATM   15  C   UNL     1      -5.239  10.375  71.058  1.00  0.00    -0.083 A  
HETATM   16  C   UNL     1      -5.420  11.736  70.782  1.00  0.00    -0.138 A  
BRANCH  13  17
HETATM   17  C   UNL     1      -6.041   7.982  70.946  1.00  0.00    -0.033 A  
HETATM   18  C   UNL     1      -5.169   7.042  70.364  1.00  0.00    -0.023 A  
HETATM   19  C   UNL     1      -6.135   5.212  71.640  1.00  0.00    -0.029 A  
HETATM   20  C   UNL     1      -6.926   7.488  71.929  1.00  0.00    -0.062 A  
HETATM   21  C   UNL     1      -5.209   5.677  70.702  1.00  0.00    -0.009 A  
HETATM   22  O   UNL     1      -6.562   3.399  73.122  1.00  0.00    -0.026 OA 
HETATM   23  C   UNL     1      -6.972   6.129  72.276  1.00  0.00    -0.075 A  
HETATM   24  C   UNL     1      -6.249   3.777  72.006  1.00  0.00    -0.014 C  
HETATM   25  O   UNL     1      -6.032   2.934  70.974  1.00  0.00    -0.016 OA 
ENDBRANCH  13  17
BRANCH  14  26
HETATM   26  O   UNL     1      -6.496  13.575  69.908  1.00  0.00    -0.102 OA 
BRANCH  26  27
HETATM   27  C   UNL     1      -6.393  14.185  68.621  1.00  0.00    -0.089 C  
BRANCH  27  28
HETATM   28  C   UNL     1      -6.822  15.649  68.667  1.00  0.00    -0.120 C  
HETATM   29  O   UNL     1      -8.068  15.843  68.003  1.00  0.00    -0.138 OA 
HETATM   30  H   UNL     1      -8.336  16.754  68.031  1.00  0.00     0.000 HD 
ENDBRANCH  27  28
ENDBRANCH  26  27
ENDBRANCH  14  26
ENDBRANCH   7  11
BRANCH   9  31
HETATM   31  N   UNL     1     -11.066  13.057  65.284  1.00  0.00    -0.283 NA 
HETATM   32  C   UNL     1     -10.418  13.212  63.973  1.00  0.00    -0.234 C  
HETATM   33  C   UNL     1     -12.779  13.527  63.713  1.00  0.00     0.056 C  
HETATM   34  C   UNL     1     -11.439  14.072  63.229  1.00  0.00     1.118 C  
HETATM   35  C   UNL     1     -12.453  12.688  64.963  1.00  0.00    -0.487 C  
ENDBRANCH   9  31
ENDBRANCH   2   5
TORSDOF 7
ENDMDL
MODEL      117
REMARK 921   NORMALIZED FREE ENERGY PREDICTED BY IDOCK:   -0.38 KCAL/MOL
REMARK 922        TOTAL FREE ENERGY PREDICTED BY IDOCK:   -2.01 KCAL/MOL
REMARK 923 INTER-LIGAND FREE ENERGY PREDICTED BY IDOCK:   -1.04 KCAL/MOL
REMARK 924 INTRA-LIGAND FREE ENERGY PREDICTED BY IDOCK:   -0.97 KCAL/MOL
REMARK 927      BINDING AFFINITY PREDICTED BY RF-SCORE:    0.00 PKD
ROOT
HETATM    1  C   UNL     1     -14.279  13.665  70.959  1.00  0.00     0.971 C  
HETATM    2  C   UNL     1     -13.080  12.689  70.953  1.00  0.00     0.057 C  
HETATM    3  C   UNL     1     -12.937  12.074  72.384  1.00  0.00     0.259 C  
HETATM    4  C   UNL     1     -13.406  11.424  70.117  1.00  0.00     0.994 C  
ENDROOT
BRANCH   2   5
HETATM    5  C   UNL     1     -11.777  13.455  70.569  1.00  0.00    -0.106 A  
HETATM    6  C   UNL     1     -10.905  12.783  69.647  1.00  0.00     0.279 A  
HETATM    7  C   UNL     1      -9.923  13.412  68.862  1.00  0.00     0.032 A  
HETATM    8  C   UNL     1      -9.893  14.794  69.004  1.00  0.00    -0.206 A  
HETATM    9  C   UNL     1     -11.429  14.763  70.965  1.00  0.00    -0.216 A  
HETATM   10  C   UNL     1     -10.559  15.434  70.079  1.00  0.00    -0.319 A  
BRANCH   7  11
HETATM   11  C   UNL     1      -9.013  12.631  67.939  1.00  0.00    -0.189 A  
HETATM   12  C   UNL     1      -9.362  11.273  67.637  1.00  0.00    -0.162 A  
HETATM   13  C   UNL     1      -8.572  10.382  66.867  1.00  0.00    -0.127 A  
HETATM   14  C   UNL     1      -7.780  13.080  67.405  1.00  0.00    -0.155 A  
HETATM   15  C   UNL     1      -7.430  10.925  66.276  1.00  0.00    -0.129 A  
HETATM   16  C   UNL     1      -7.046  12.247  66.533  1.00  0.00     0.523 A  
BRANCH  13  17
HETATM   17  C   UNL     1      -8.891   8.924  66.766  1.00  0.00    -0.142 A  
HETATM   18  C   UNL     1      -8.665   8.176  65.594  1.00  0.00    -0.176 A  
HETATM   19  C   UNL     1      -9.723   6.200  66.535  1.00  0.00    -0.184 A  
HETATM   20  C   UNL     1      -9.502   8.235  67.838  1.00  0.00    -0.163 A  
HETATM   21  C   UNL     1      -9.072   6.835  65.474  1.00  0.00     0.174 A  
HETATM   22  O   UNL     1     -10.235   4.046  67.408  1.00  0.00     0.053 OA 
HETATM   23  C   UNL     1      -9.907   6.896  67.729  1.00  0.00    -0.161 A  
HETATM   24  C   UNL     1     -10.209   4.799  66.450  1.00  0.00    -0.275 C  
HETATM   25  O   UNL     1     -10.672   4.457  65.228  1.00  0.00    -0.262 OA 
ENDBRANCH  13  17
BRANCH  14  26
HETATM   26  O   UNL     1      -7.160  14.302  67.566  1.00  0.00    -0.177 OA 
BRANCH  26  27
HETATM   27  C   UNL     1      -6.173  14.405  68.592  1.00  0.00    -0.087 C  
BRANCH  27  28
HETATM   28  C   UNL     1      -6.709  15.166  69.801  1.00  0.00    -0.180 C  
HETATM   29  O   UNL     1      -5.676  15.906  70.446  1.00  0.00    -0.163 OA 
HETATM   30  H   UNL     1      -6.010  16.379  71.199  1.00  0.00     0.000 HD 
ENDBRANCH  27  28
ENDBRANCH  26  27
ENDBRANCH  14  26
ENDBRANCH   7  11
BRANCH   9  31
HETATM   31  N   UNL     1     -11.911  15.387  72.109  1.00  0.00    -0.388 NA 
HETATM   32  C   UNL     1     -11.716  14.788  73.438  1.00  0.00     0.055 C  
HETATM   33  C   UNL     1     -12.495  17.037  73.709  1.00  0.00     0.219 C  
HETATM   34  C   UNL     1     -12.652  15.638  74.295  1.00  0.00    -0.732 C  
HETATM   35  C   UNL     1     -11.809  16.835  72.345  1.00  0.00     0.048 C  
ENDBRANCH   9  31
ENDBRANCH   2   5
TORSDOF 7
ENDMDL
MODEL      118
REMARK 921   NORMALIZED FREE ENERGY PREDICTED BY IDOCK:    0.23 KCAL/MOL
REMARK 922        TOTAL FREE ENERGY PREDICTED BY IDOCK:   -1.14 KCAL/MOL
REMARK 923 INTER-LIGAND FREE ENERGY PREDICTED BY IDOCK:   -0.27 KCAL/MOL
REMARK 924 INTRA-LIGAND FREE ENERGY PREDICTED BY IDOCK:   -0.87 KCAL/MOL
REMARK 927      BINDING AFFINITY PREDICTED BY RF-SCORE:    0.00 PKD
ROOT
HETATM    1  C   UNL     1      -8.806   5.088  69.612  1.00  0.00    -0.121 C  
HETATM    2  C   UNL     1      -9.305   6.547  69.498  1.00  0.00    -0.148 C  
HETATM    3  C   UNL     1     -10.866   6.530  69.418  1.00  0.00    -0.363 C  
HETATM    4  C   UNL     1      -9.082   7.309  70.831  1.00  0.00    -0.151 C  
ENDROOT
BRANCH   2   5
HETATM    5  C   UNL     1      -8.713   7.209  68.216  1.00  0.00    -0.128 A  
HETATM    6  C   UNL     1      -8.686   8.645  68.208  1.00  0.00    -0.142 A  
HETATM    7  C   UNL     1      -7.860   9.431  67.386  1.00  0.00    -0.102 A  
HETATM    8  C   UNL     1      -6.994   8.691  66.590  1.00  0.00    -0.079 A  
HETATM    9  C   UNL     1      -8.126   6.537  67.123  1.00  0.00    -0.113 A  
HETATM   10  C   UNL     1      -7.182   7.299  66.402  1.00  0.00    -0.079 A  
BRANCH   7  11
HETATM   11  C   UNL     1      -7.916  10.943  67.406  1.00  0.00    -0.113 A  
HETATM   12  C   UNL     1      -8.819  11.573  68.325  1.00  0.00    -0.166 A  
HETATM   13  C   UNL     1      -9.056  12.969  68.405  1.00  0.00    -0.129 A  
HETATM   14  C   UNL     1      -7.224  11.816  66.531  1.00  0.00     0.111 A  
HETATM   15  C   UNL     1      -8.255  13.777  67.596  1.00  0.00    -0.180 A  
HETATM   16  C   UNL     1      -7.353  13.213  66.684  1.00  0.00     1.008 A  
BRANCH  13  17
HETATM   17  C   UNL     1     -10.160  13.540  69.238  1.00  0.00     0.328 A  
HETATM   18  C   UNL     1     -11.520  13.286  68.974  1.00  0.00    -0.350 A  
HETATM   19  C   UNL     1     -12.244  14.830  70.705  1.00  0.00    -0.380 A  
HETATM   20  C   UNL     1      -9.885  14.426  70.304  1.00  0.00     1.206 A  
HETATM   21  C   UNL     1     -12.551  13.917  69.692  1.00  0.00    -0.045 A  
HETATM   22  O   UNL     1     -13.162  15.869  72.640  1.00  0.00    -0.470 OA 
HETATM   23  C   UNL     1     -10.907  15.058  71.030  1.00  0.00    -0.040 A  
HETATM   24  C   UNL     1     -13.291  15.556  71.470  1.00  0.00    -0.509 C  
HETATM   25  O   UNL     1     -14.373  15.886  70.732  1.00  0.00     0.078 OA 
ENDBRANCH  13  17
BRANCH  14  26
HETATM   26  O   UNL     1      -6.342  11.505  65.516  1.00  0.00     0.358 OA 
BRANCH  26  27
HETATM   27  C   UNL     1      -6.897  11.186  64.241  1.00  0.00     1.164 C  
BRANCH  27  28
HETATM   28  C   UNL     1      -6.147  10.031  63.584  1.00  0.00    -0.131 C  
HETATM   29  O   UNL     1      -7.049   9.052  63.075  1.00  0.00    -0.090 OA 
HETATM   30  H   UNL     1      -6.582   8.333  62.666  1.00  0.00     0.000 HD 
ENDBRANCH  27  28
ENDBRANCH  26  27
ENDBRANCH  14  26
ENDBRANCH   7  11
BRANCH   9  31
HETATM   31  N   UNL     1      -8.403   5.221  66.776  1.00  0.00    -0.108 NA 
HETATM   32  C   UNL     1      -9.397   4.904  65.739  1.00  0.00    -0.161 C  
HETATM   33  C   UNL     1      -8.158   2.920  66.254  1.00  0.00    -0.083 C  
HETATM   34  C   UNL     1      -9.570   3.399  65.932  1.00  0.00    -0.067 C  
HETATM   35  C   UNL     1      -7.366   4.192  66.609  1.00  0.00    -0.076 C  
ENDBRANCH   9  31
ENDBRANCH   2   5
TORSDOF 7
ENDMDL
MODEL      119
REMARK 921   NORMALIZED FREE ENERGY PREDICTED BY IDOCK:    0.48 KCAL/MOL
REMARK 922        TOTAL FREE ENERGY PREDICTED BY IDOCK:   -0.80 KCAL/MOL
REMARK 923 INTER-LIGAND FREE ENERGY PREDICTED BY IDOCK:   -2.64 KCAL/MOL
REMARK 924 INTRA-LIGAND FREE ENERGY PREDICTED BY IDOCK:    1.84 KCAL/MOL
REMARK 927      BINDING AFFINITY PREDICTED BY RF-SCORE:    0.00 PKD
ROOT
HETATM    1  C   UNL     1     -11.032  17.073  69.567  1.00  0.00     0.072 C  
HETATM    2  C   UNL     1     -10.583  17.628  68.196  1.00  0.00    -0.359 C  
HETATM    3  C   UNL     1     -11.822  17.648  67.242  1.00  0.00     2.111 C  
HETATM    4  C   UNL     1     -10.259  19.142  68.296  1.00  0.00    -0.486 C  
ENDROOT
BRANCH   2   5
HETATM    5  C   UNL     1      -9.466  16.719  67.598  1.00  0.00    -0.234 A  
HETATM    6  C   UNL     1      -9.722  15.307  67.633  1.00  0.00    -0.208 A  
HETATM    7  C   UNL     1      -9.088  14.352  66.819  1.00  0.00    -0.278 A  
HETATM    8  C   UNL     1      -8.200  14.900  65.901  1.00  0.00     1.734 A  
HETATM    9  C   UNL     1      -8.289  17.156  66.955  1.00  0.00    -0.224 A  
HETATM   10  C   UNL     1      -7.753  16.239  66.024  1.00  0.00     0.423 A  
BRANCH   7  11
HETATM   11  C   UNL     1      -9.383  12.873  66.940  1.00  0.00    -0.240 A  
HETATM   12  C   UNL     1      -9.135  12.236  68.201  1.00  0.00    -0.196 A  
HETATM   13  C   UNL     1      -9.273  10.847  68.452  1.00  0.00    -0.168 A  
HETATM   14  C   UNL     1      -9.798  12.016  65.892  1.00  0.00    -0.238 A  
HETATM   15  C   UNL     1      -9.797  10.081  67.409  1.00  0.00    -0.226 A  
HETATM   16  C   UNL     1     -10.061  10.655  66.159  1.00  0.00    -0.306 A  
BRANCH  13  17
HETATM   17  C   UNL     1      -8.799  10.220  69.725  1.00  0.00    -0.070 A  
HETATM   18  C   UNL     1      -7.433  10.075  70.038  1.00  0.00    -0.181 A  
HETATM   19  C   UNL     1      -7.930   8.812  72.055  1.00  0.00    -0.050 A  
HETATM   20  C   UNL     1      -9.714   9.677  70.655  1.00  0.00    -0.239 A  
HETATM   21  C   UNL     1      -6.998   9.384  71.183  1.00  0.00    -0.025 A  
HETATM   22  O   UNL     1      -8.179   8.024  74.287  1.00  0.00    -0.232 OA 
HETATM   23  C   UNL     1      -9.290   8.989  71.803  1.00  0.00    -0.208 A  
HETATM   24  C   UNL     1      -7.528   8.038  73.257  1.00  0.00    -0.139 C  
HETATM   25  O   UNL     1      -6.406   7.306  73.083  1.00  0.00    -0.059 OA 
ENDBRANCH  13  17
BRANCH  14  26
HETATM   26  O   UNL     1     -10.057  12.324  64.572  1.00  0.00    -0.286 OA 
BRANCH  26  27
HETATM   27  C   UNL     1     -11.296  12.970  64.281  1.00  0.00    -0.376 C  
BRANCH  27  28
HETATM   28  C   UNL     1     -11.203  14.475  64.520  1.00  0.00    -0.294 C  
HETATM   29  O   UNL     1     -11.956  14.863  65.667  1.00  0.00    -0.221 OA 
HETATM   30  H   UNL     1     -11.899  15.800  65.815  1.00  0.00     0.000 HD 
ENDBRANCH  27  28
ENDBRANCH  26  27
ENDBRANCH  14  26
ENDBRANCH   7  11
BRANCH   9  31
HETATM   31  N   UNL     1      -7.697  18.394  67.165  1.00  0.00    -0.222 NA 
HETATM   32  C   UNL     1      -7.744  19.442  66.134  1.00  0.00    -0.303 C  
HETATM   33  C   UNL     1      -6.968  20.408  68.183  1.00  0.00    -0.286 C  
HETATM   34  C   UNL     1      -6.733  20.450  66.677  1.00  0.00    -0.291 C  
HETATM   35  C   UNL     1      -7.790  19.131  68.435  1.00  0.00    -0.335 C  
ENDBRANCH   9  31
ENDBRANCH   2   5
TORSDOF 7
ENDMDL
MODEL      120
REMARK 921   NORMALIZED FREE ENERGY PREDICTED BY IDOCK:    1.09 KCAL/MOL
REMARK 922        TOTAL FREE ENERGY PREDICTED BY IDOCK:    0.06 KCAL/MOL
REMARK 923 INTER-LIGAND FREE ENERGY PREDICTED BY IDOCK:   -0.67 KCAL/MOL
REMARK 924 INTRA-LIGAND FREE ENERGY PREDICTED BY IDOCK:    0.73 KCAL/MOL
REMARK 927      BINDING AFFINITY PREDICTED BY RF-SCORE:    0.00 PKD
ROOT
HETATM    1  C   UNL     1      -9.795  10.981  66.380  1.00  0.00    -0.252 C  
HETATM    2  C   UNL     1      -9.162   9.713  66.998  1.00  0.00    -0.167 C  
HETATM    3  C   UNL     1      -7.964  10.150  67.903  1.00  0.00    -0.101 C  
HETATM    4  C   UNL     1     -10.113   9.080  68.047  1.00  0.00    -0.234 C  
ENDROOT
BRANCH   2   5
HETATM    5  C   UNL     1      -8.655   8.769  65.864  1.00  0.00    -0.174 A  
HETATM    6  C   UNL     1      -7.967   7.585  66.296  1.00  0.00    -0.109 A  
HETATM    7  C   UNL     1      -7.791   6.427  65.519  1.00  0.00    -0.103 A  
HETATM    8  C   UNL     1      -8.404   6.489  64.274  1.00  0.00     0.099 A  
HETATM    9  C   UNL     1      -8.890   8.923  64.482  1.00  0.00    -0.026 A  
HETATM   10  C   UNL     1      -8.860   7.721  63.743  1.00  0.00     0.829 A  
BRANCH   7  11
HETATM   11  C   UNL     1      -7.018   5.230  66.029  1.00  0.00    -0.067 A  
HETATM   12  C   UNL     1      -6.952   5.024  67.447  1.00  0.00    -0.065 A  
HETATM   13  C   UNL     1      -6.198   4.008  68.087  1.00  0.00    -0.033 A  
HETATM   14  C   UNL     1      -6.263   4.327  65.243  1.00  0.00    -0.027 A  
HETATM   15  C   UNL     1      -5.573   3.083  67.248  1.00  0.00    -0.021 A  
HETATM   16  C   UNL     1      -5.611   3.235  65.856  1.00  0.00    -0.018 A  
BRANCH  13  17
HETATM   17  C   UNL     1      -6.005   3.977  69.570  1.00  0.00    -0.023 A  
HETATM   18  C   UNL     1      -5.814   2.780  70.287  1.00  0.00    -0.018 A  
HETATM   19  C   UNL     1      -5.870   3.937  72.424  1.00  0.00    -0.008 A  
HETATM   20  C   UNL     1      -6.071   5.161  70.338  1.00  0.00    -0.018 A  
HETATM   21  C   UNL     1      -5.746   2.753  71.692  1.00  0.00    -0.009 A  
HETATM   22  O   UNL     1      -5.384   4.893  74.549  1.00  0.00    -0.016 OA 
HETATM   23  C   UNL     1      -6.000   5.145  71.740  1.00  0.00    -0.025 A  
HETATM   24  C   UNL     1      -5.845   3.964  73.909  1.00  0.00    -0.004 C  
HETATM   25  O   UNL     1      -6.433   2.891  74.482  1.00  0.00    -0.023 OA 
ENDBRANCH  13  17
BRANCH  14  26
HETATM   26  O   UNL     1      -6.089   4.306  63.874  1.00  0.00    -0.017 OA 
BRANCH  26  27
HETATM   27  C   UNL     1      -7.177   3.829  63.083  1.00  0.00    -0.049 C  
BRANCH  27  28
HETATM   28  C   UNL     1      -6.965   2.375  62.671  1.00  0.00    -0.027 C  
HETATM   29  O   UNL     1      -8.061   1.558  63.075  1.00  0.00    -0.055 OA 
HETATM   30  H   UNL     1      -7.929   0.653  62.819  1.00  0.00     0.000 HD 
ENDBRANCH  27  28
ENDBRANCH  26  27
ENDBRANCH  14  26
ENDBRANCH   7  11
BRANCH   9  31
HETATM   31  N   UNL     1      -9.167  10.138  63.867  1.00  0.00    -0.262 NA 
HETATM   32  C   UNL     1      -8.597  10.469  62.553  1.00  0.00    -0.221 C  
HETATM   33  C   UNL     1     -10.299  12.069  63.083  1.00  0.00    -0.276 C  
HETATM   34  C   UNL     1      -8.916  11.959  62.448  1.00  0.00     1.029 C  
HETATM   35  C   UNL     1     -10.506  10.747  63.845  1.00  0.00    -0.181 C  
ENDBRANCH   9  31
ENDBRANCH   2   5
TORSDOF 7
ENDMDL
MODEL      121
REMARK 921   NORMALIZED FREE ENERGY PREDICTED BY IDOCK:    3.50 KCAL/MOL
REMARK 922        TOTAL FREE ENERGY PREDICTED BY IDOCK:    3.46 KCAL/MOL
REMARK 923 INTER-LIGAND FREE ENERGY PREDICTED BY IDOCK:   -0.59 KCAL/MOL
REMARK 924 INTRA-LIGAND FREE ENERGY PREDICTED BY IDOCK:    4.05 KCAL/MOL
REMARK 927      BINDING AFFINITY PREDICTED BY RF-SCORE:    0.00 PKD
ROOT
HETATM    1  C   UNL     1      -9.659  15.073  72.157  1.00  0.00     4.725 C  
HETATM    2  C   UNL     1     -11.068  14.930  71.537  1.00  0.00     0.019 C  
HETATM    3  C   UNL     1     -11.982  14.173  72.556  1.00  0.00     0.391 C  
HETATM    4  C   UNL     1     -11.779  16.307  71.466  1.00  0.00    -0.467 C  
ENDROOT
BRANCH   2   5
HETATM    5  C   UNL     1     -10.979  14.128  70.202  1.00  0.00     0.151 A  
HETATM    6  C   UNL     1     -11.011  12.698  70.329  1.00  0.00     1.134 A  
HETATM    7  C   UNL     1     -11.350  11.805  69.296  1.00  0.00    -0.348 A  
HETATM    8  C   UNL     1     -11.722  12.432  68.114  1.00  0.00    -0.408 A  
HETATM    9  C   UNL     1     -10.965  14.671  68.901  1.00  0.00    -0.253 A  
HETATM   10  C   UNL     1     -11.455  13.807  67.898  1.00  0.00    -0.347 A  
BRANCH   7  11
HETATM   11  C   UNL     1     -11.324  10.305  69.494  1.00  0.00    -0.299 A  
HETATM   12  C   UNL     1     -10.634   9.508  68.520  1.00  0.00    -0.247 A  
HETATM   13  C   UNL     1     -10.594   8.091  68.511  1.00  0.00    -0.144 A  
HETATM   14  C   UNL     1     -12.001   9.584  70.507  1.00  0.00    -0.134 A  
HETATM   15  C   UNL     1     -11.183   7.450  69.603  1.00  0.00    -0.065 A  
HETATM   16  C   UNL     1     -11.865   8.182  70.583  1.00  0.00    -0.093 A  
BRANCH  13  17
HETATM   17  C   UNL     1     -10.036   7.321  67.356  1.00  0.00    -0.266 A  
HETATM   18  C   UNL     1     -10.317   5.956  67.146  1.00  0.00    -0.286 A  
HETATM   19  C   UNL     1      -8.773   5.826  65.274  1.00  0.00    -0.100 A  
HETATM   20  C   UNL     1      -9.137   7.920  66.446  1.00  0.00    -0.221 A  
HETATM   21  C   UNL     1      -9.699   5.215  66.123  1.00  0.00    -0.192 A  
HETATM   22  O   UNL     1      -7.735   5.594  63.144  1.00  0.00    -0.071 OA 
HETATM   23  C   UNL     1      -8.518   7.190  65.419  1.00  0.00    -0.090 A  
HETATM   24  C   UNL     1      -8.061   5.084  64.202  1.00  0.00    -0.119 C  
HETATM   25  O   UNL     1      -7.756   3.811  64.533  1.00  0.00    -0.079 OA 
ENDBRANCH  13  17
BRANCH  14  26
HETATM   26  O   UNL     1     -12.785  10.065  71.536  1.00  0.00    -0.360 OA 
BRANCH  26  27
HETATM   27  C   UNL     1     -13.280   9.117  72.481  1.00  0.00    -0.397 C  
BRANCH  27  28
HETATM   28  C   UNL     1     -13.771   7.850  71.786  1.00  0.00    -0.352 C  
HETATM   29  O   UNL     1     -12.738   6.871  71.707  1.00  0.00    -0.357 OA 
HETATM   30  H   UNL     1     -13.044   6.082  71.274  1.00  0.00     0.000 HD 
ENDBRANCH  27  28
ENDBRANCH  26  27
ENDBRANCH  14  26
ENDBRANCH   7  11
BRANCH   9  31
HETATM   31  N   UNL     1     -10.544  15.959  68.596  1.00  0.00    -0.239 NA 
HETATM   32  C   UNL     1      -9.225  16.447  69.029  1.00  0.00    -0.247 C  
HETATM   33  C   UNL     1     -10.143  17.995  67.448  1.00  0.00    -0.354 C  
HETATM   34  C   UNL     1      -9.347  17.943  68.748  1.00  0.00    -0.234 C  
HETATM   35  C   UNL     1     -10.751  16.590  67.284  1.00  0.00    -0.243 C  
ENDBRANCH   9  31
ENDBRANCH   2   5
TORSDOF 7
ENDMDL
MODEL      122
REMARK 921   NORMALIZED FREE ENERGY PREDICTED BY IDOCK:    4.61 KCAL/MOL
REMARK 922        TOTAL FREE ENERGY PREDICTED BY IDOCK:    5.03 KCAL/MOL
REMARK 923 INTER-LIGAND FREE ENERGY PREDICTED BY IDOCK:    3.74 KCAL/MOL
REMARK 924 INTRA-LIGAND FREE ENERGY PREDICTED BY IDOCK:    1.29 KCAL/MOL
REMARK 927      BINDING AFFINITY PREDICTED BY RF-SCORE:    0.00 PKD
ROOT
HETATM    1  C   UNL     1     -11.874  14.000  64.175  1.00  0.00    -0.393 C  
HETATM    2  C   UNL     1     -11.656  12.964  65.302  1.00  0.00    -0.376 C  
HETATM    3  C   UNL     1     -12.864  11.971  65.301  1.00  0.00     1.144 C  
HETATM    4  C   UNL     1     -10.485  12.009  64.951  1.00  0.00    -0.325 C  
ENDROOT
BRANCH   2   5
HETATM    5  C   UNL     1     -11.566  13.692  66.679  1.00  0.00    -0.391 A  
HETATM    6  C   UNL     1     -11.780  12.870  67.836  1.00  0.00    -0.405 A  
HETATM    7  C   UNL     1     -11.359  13.188  69.140  1.00  0.00    -0.335 A  
HETATM    8  C   UNL     1     -10.642  14.376  69.222  1.00  0.00    -0.190 A  
HETATM    9  C   UNL     1     -11.208  15.040  66.889  1.00  0.00    -0.323 A  
HETATM   10  C   UNL     1     -10.643  15.307  68.155  1.00  0.00    -0.254 A  
BRANCH   7  11
HETATM   11  C   UNL     1     -11.655  12.288  70.320  1.00  0.00    -0.083 A  
HETATM   12  C   UNL     1     -11.096  10.967  70.317  1.00  0.00    -0.085 A  
HETATM   13  C   UNL     1     -11.351   9.975  71.298  1.00  0.00    -0.336 A  
HETATM   14  C   UNL     1     -12.518  12.587  71.402  1.00  0.00    -0.099 A  
HETATM   15  C   UNL     1     -12.115  10.375  72.396  1.00  0.00     1.298 A  
HETATM   16  C   UNL     1     -12.681  11.656  72.450  1.00  0.00     0.827 A  
BRANCH  13  17
HETATM   17  C   UNL     1     -10.906   8.557  71.126  1.00  0.00    -0.298 A  
HETATM   18  C   UNL     1     -10.249   7.838  72.144  1.00  0.00    -0.269 A  
HETATM   19  C   UNL     1      -9.868   5.932  70.685  1.00  0.00    -0.230 A  
HETATM   20  C   UNL     1     -11.069   7.886  69.894  1.00  0.00    -0.123 A  
HETATM   21  C   UNL     1      -9.736   6.545  71.934  1.00  0.00    -0.159 A  
HETATM   22  O   UNL     1      -9.838   3.800  69.626  1.00  0.00    -0.168 OA 
HETATM   23  C   UNL     1     -10.565   6.594  69.676  1.00  0.00    -0.276 A  
HETATM   24  C   UNL     1      -9.312   4.585  70.395  1.00  0.00    -0.146 C  
HETATM   25  O   UNL     1      -8.139   4.335  71.017  1.00  0.00    -0.069 OA 
ENDBRANCH  13  17
BRANCH  14  26
HETATM   26  O   UNL     1     -13.237  13.740  71.644  1.00  0.00    -0.347 OA 
BRANCH  26  27
HETATM   27  C   UNL     1     -13.366  14.158  73.002  1.00  0.00    -0.267 C  
BRANCH  27  28
HETATM   28  C   UNL     1     -12.790  15.556  73.207  1.00  0.00    -0.517 C  
HETATM   29  O   UNL     1     -13.553  16.296  74.157  1.00  0.00    -0.786 OA 
HETATM   30  H   UNL     1     -13.195  17.166  74.284  1.00  0.00     0.000 HD 
ENDBRANCH  27  28
ENDBRANCH  26  27
ENDBRANCH  14  26
ENDBRANCH   7  11
BRANCH   9  31
HETATM   31  N   UNL     1     -11.350  16.044  65.939  1.00  0.00     0.137 NA 
HETATM   32  C   UNL     1     -11.248  17.462  66.316  1.00  0.00     0.750 C  
HETATM   33  C   UNL     1     -11.204  17.290  63.927  1.00  0.00     3.523 C  
HETATM   34  C   UNL     1     -11.766  18.150  65.054  1.00  0.00     3.353 C  
HETATM   35  C   UNL     1     -10.750  15.980  64.598  1.00  0.00    -0.042 C  
ENDBRANCH   9  31
ENDBRANCH   2   5
TORSDOF 7
ENDMDL
MODEL      123
REMARK 921   NORMALIZED FREE ENERGY PREDICTED BY IDOCK:    4.85 KCAL/MOL
REMARK 922        TOTAL FREE ENERGY PREDICTED BY IDOCK:    5.36 KCAL/MOL
REMARK 923 INTER-LIGAND FREE ENERGY PREDICTED BY IDOCK:    5.09 KCAL/MOL
REMARK 924 INTRA-LIGAND FREE ENERGY PREDICTED BY IDOCK:    0.27 KCAL/MOL
REMARK 927      BINDING AFFINITY PREDICTED BY RF-SCORE:    0.00 PKD
ROOT
HETATM    1  C   UNL     1     -12.231  16.913  69.191  1.00  0.00     1.945 C  
HETATM    2  C   UNL     1     -11.499  15.805  68.400  1.00  0.00    -0.367 C  
HETATM    3  C   UNL     1     -12.569  14.820  67.826  1.00  0.00     0.725 C  
HETATM    4  C   UNL     1     -10.888  16.376  67.093  1.00  0.00    -0.169 C  
ENDROOT
BRANCH   2   5
HETATM    5  C   UNL     1     -10.521  15.040  69.343  1.00  0.00    -0.254 A  
HETATM    6  C   UNL     1      -9.465  14.315  68.695  1.00  0.00    -0.178 A  
HETATM    7  C   UNL     1      -8.269  13.908  69.313  1.00  0.00     0.404 A  
HETATM    8  C   UNL     1      -8.152  14.324  70.634  1.00  0.00     2.508 A  
HETATM    9  C   UNL     1     -10.526  15.070  70.753  1.00  0.00     0.245 A  
HETATM   10  C   UNL     1      -9.274  14.809  71.351  1.00  0.00     3.815 A  
BRANCH   7  11
HETATM   11  C   UNL     1      -7.215  13.112  68.574  1.00  0.00    -0.110 A  
HETATM   12  C   UNL     1      -7.336  11.683  68.560  1.00  0.00    -0.102 A  
HETATM   13  C   UNL     1      -6.390  10.792  67.993  1.00  0.00    -0.058 A  
HETATM   14  C   UNL     1      -6.050  13.635  67.963  1.00  0.00    -0.138 A  
HETATM   15  C   UNL     1      -5.326  11.379  67.305  1.00  0.00    -0.064 A  
HETATM   16  C   UNL     1      -5.164  12.771  67.284  1.00  0.00     0.067 A  
BRANCH  13  17
HETATM   17  C   UNL     1      -6.472   9.312  68.196  1.00  0.00    -0.058 A  
HETATM   18  C   UNL     1      -7.666   8.661  68.561  1.00  0.00    -0.100 A  
HETATM   19  C   UNL     1      -6.539   6.520  68.799  1.00  0.00    -0.051 A  
HETATM   20  C   UNL     1      -5.322   8.497  68.092  1.00  0.00    -0.034 A  
HETATM   21  C   UNL     1      -7.706   7.287  68.858  1.00  0.00    -0.116 A  
HETATM   22  O   UNL     1      -5.772   4.276  68.596  1.00  0.00    -0.019 OA 
HETATM   23  C   UNL     1      -5.353   7.124  68.383  1.00  0.00    -0.021 A  
HETATM   24  C   UNL     1      -6.515   5.074  69.139  1.00  0.00    -0.035 C  
HETATM   25  O   UNL     1      -7.350   4.740  70.147  1.00  0.00    -0.052 OA 
ENDBRANCH  13  17
BRANCH  14  26
HETATM   26  O   UNL     1      -5.635  14.948  67.869  1.00  0.00    -0.136 OA 
BRANCH  26  27
HETATM   27  C   UNL     1      -6.633  15.960  67.994  1.00  0.00    -0.131 C  
BRANCH  27  28
HETATM   28  C   UNL     1      -7.118  16.430  66.625  1.00  0.00    -0.140 C  
HETATM   29  O   UNL     1      -6.038  16.927  65.838  1.00  0.00     0.009 OA 
HETATM   30  H   UNL     1      -6.340  17.220  64.986  1.00  0.00     0.000 HD 
ENDBRANCH  27  28
ENDBRANCH  26  27
ENDBRANCH  14  26
ENDBRANCH   7  11
BRANCH   9  31
HETATM   31  N   UNL     1     -11.643  15.365  71.525  1.00  0.00    -0.376 NA 
HETATM   32  C   UNL     1     -12.948  14.755  71.231  1.00  0.00    -0.346 C  
HETATM   33  C   UNL     1     -13.058  15.826  73.371  1.00  0.00    -0.690 C  
HETATM   34  C   UNL     1     -13.879  15.592  72.107  1.00  0.00    -0.621 C  
HETATM   35  C   UNL     1     -11.610  15.464  72.992  1.00  0.00    -0.260 C  
ENDBRANCH   9  31
ENDBRANCH   2   5
TORSDOF 7
ENDMDL
MODEL      124
REMARK 921   NORMALIZED FREE ENERGY PREDICTED BY IDOCK:    5.32 KCAL/MOL
REMARK 922        TOTAL FREE ENERGY PREDICTED BY IDOCK:    6.02 KCAL/MOL
REMARK 923 INTER-LIGAND FREE ENERGY PREDICTED BY IDOCK:    5.39 KCAL/MOL
REMARK 924 INTRA-LIGAND FREE ENERGY PREDICTED BY IDOCK:    0.63 KCAL/MOL
REMARK 927      BINDING AFFINITY PREDICTED BY RF-SCORE:    0.00 PKD
ROOT
HETATM    1  C   UNL     1     -10.494  11.270  67.657  1.00  0.00    -0.225 C  
HETATM    2  C   UNL     1     -10.061   9.835  68.036  1.00  0.00    -0.204 C  
HETATM    3  C   UNL     1      -8.753   9.923  68.888  1.00  0.00    -0.140 C  
HETATM    4  C   UNL     1     -11.045   9.217  69.063  1.00  0.00     0.023 C  
ENDROOT
BRANCH   2   5
HETATM    5  C   UNL     1      -9.799   9.003  66.742  1.00  0.00    -0.300 A  
HETATM    6  C   UNL     1      -9.424   7.632  66.946  1.00  0.00    -0.222 A  
HETATM    7  C   UNL     1      -9.536   6.614  65.981  1.00  0.00     0.014 A  
HETATM    8  C   UNL     1     -10.111   7.035  64.788  1.00  0.00     3.946 A  
HETATM    9  C   UNL     1      -9.984   9.442  65.415  1.00  0.00     0.042 A  
HETATM   10  C   UNL     1     -10.248   8.412  64.487  1.00  0.00     4.460 A  
BRANCH   7  11
HETATM   11  C   UNL     1      -9.083   5.197  66.256  1.00  0.00    -0.136 A  
HETATM   12  C   UNL     1      -9.337   4.648  67.557  1.00  0.00    -0.166 A  
HETATM   13  C   UNL     1      -8.899   3.374  68.002  1.00  0.00    -0.155 A  
HETATM   14  C   UNL     1      -8.339   4.373  65.378  1.00  0.00    -0.111 A  
HETATM   15  C   UNL     1      -8.274   2.569  67.047  1.00  0.00    -0.083 A  
HETATM   16  C   UNL     1      -8.006   3.056  65.761  1.00  0.00    -0.086 A  
BRANCH  13  17
HETATM   17  C   UNL     1      -9.016   2.950  69.432  1.00  0.00    -0.171 A  
HETATM   18  C   UNL     1      -9.725   1.799  69.827  1.00  0.00     0.031 A  
HETATM   19  C   UNL     1      -9.411   2.297  72.185  1.00  0.00    -0.156 A  
HETATM   20  C   UNL     1      -8.465   3.732  70.471  1.00  0.00    -0.100 A  
HETATM   21  C   UNL     1      -9.923   1.472  71.180  1.00  0.00    -0.104 A  
HETATM   22  O   UNL     1      -8.802   2.302  74.486  1.00  0.00    -0.068 OA 
HETATM   23  C   UNL     1      -8.654   3.412  71.825  1.00  0.00    -0.109 A  
HETATM   24  C   UNL     1      -9.622   2.023  73.629  1.00  0.00    -0.078 C  
HETATM   25  O   UNL     1     -10.830   1.488  73.910  1.00  0.00    -0.104 OA 
ENDBRANCH  13  17
BRANCH  14  26
HETATM   26  O   UNL     1      -7.899   4.646  64.098  1.00  0.00    -0.081 OA 
BRANCH  26  27
HETATM   27  C   UNL     1      -8.871   4.626  63.053  1.00  0.00    -0.128 C  
BRANCH  27  28
HETATM   28  C   UNL     1      -9.532   3.256  62.939  1.00  0.00    -0.095 C  
HETATM   29  O   UNL     1     -10.831   3.355  62.362  1.00  0.00    -0.171 OA 
HETATM   30  H   UNL     1     -11.243   2.502  62.291  1.00  0.00     0.000 HD 
ENDBRANCH  27  28
ENDBRANCH  26  27
ENDBRANCH  14  26
ENDBRANCH   7  11
BRANCH   9  31
HETATM   31  N   UNL     1      -9.953  10.774  65.021  1.00  0.00    -0.276 NA 
HETATM   32  C   UNL     1      -9.210  11.191  63.822  1.00  0.00    -0.131 C  
HETATM   33  C   UNL     1     -10.593  13.008  64.547  1.00  0.00    -0.413 C  
HETATM   34  C   UNL     1      -9.210  12.711  63.977  1.00  0.00     1.137 C  
HETATM   35  C   UNL     1     -11.132  11.652  65.041  1.00  0.00    -0.249 C  
ENDBRANCH   9  31
ENDBRANCH   2   5
TORSDOF 7
ENDMDL
MODEL      125
REMARK 921   NORMALIZED FREE ENERGY PREDICTED BY IDOCK:    7.07 KCAL/MOL
REMARK 922        TOTAL FREE ENERGY PREDICTED BY IDOCK:    8.49 KCAL/MOL
REMARK 923 INTER-LIGAND FREE ENERGY PREDICTED BY IDOCK:    7.43 KCAL/MOL
REMARK 924 INTRA-LIGAND FREE ENERGY PREDICTED BY IDOCK:    1.07 KCAL/MOL
REMARK 927      BINDING AFFINITY PREDICTED BY RF-SCORE:    0.00 PKD
ROOT
HETATM    1  C   UNL     1      -7.542  16.181  68.950  1.00  0.00    -0.201 C  
HETATM    2  C   UNL     1      -8.448  15.613  70.067  1.00  0.00     0.471 C  
HETATM    3  C   UNL     1      -7.569  14.734  71.017  1.00  0.00     1.950 C  
HETATM    4  C   UNL     1      -8.898  16.739  71.035  1.00  0.00     5.728 C  
ENDROOT
BRANCH   2   5
HETATM    5  C   UNL     1      -9.583  14.747  69.438  1.00  0.00    -0.013 A  
HETATM    6  C   UNL     1      -9.328  14.246  68.117  1.00  0.00    -0.206 A  
HETATM    7  C   UNL     1      -9.985  13.150  67.530  1.00  0.00    -0.223 A  
HETATM    8  C   UNL     1     -10.895  12.525  68.374  1.00  0.00    -0.266 A  
HETATM    9  C   UNL     1     -10.774  14.342  70.075  1.00  0.00     0.246 A  
HETATM   10  C   UNL     1     -11.336  13.150  69.567  1.00  0.00    -0.227 A  
BRANCH   7  11
HETATM   11  C   UNL     1      -9.690  12.702  66.115  1.00  0.00    -0.253 A  
HETATM   12  C   UNL     1      -9.089  11.413  65.927  1.00  0.00    -0.209 A  
HETATM   13  C   UNL     1      -8.669  10.887  64.679  1.00  0.00    -0.037 A  
HETATM   14  C   UNL     1      -9.863  13.475  64.942  1.00  0.00    -0.013 A  
HETATM   15  C   UNL     1      -8.976  11.652  63.552  1.00  0.00     0.236 A  
HETATM   16  C   UNL     1      -9.567  12.915  63.680  1.00  0.00     1.242 A  
BRANCH  13  17
HETATM   17  C   UNL     1      -7.863   9.630  64.579  1.00  0.00    -0.134 A  
HETATM   18  C   UNL     1      -6.894   9.427  63.576  1.00  0.00    -0.098 A  
HETATM   19  C   UNL     1      -6.507   7.133  64.279  1.00  0.00    -0.040 A  
HETATM   20  C   UNL     1      -8.085   8.549  65.460  1.00  0.00    -0.126 A  
HETATM   21  C   UNL     1      -6.223   8.201  63.423  1.00  0.00    -0.072 A  
HETATM   22  O   UNL     1      -5.608   5.084  65.092  1.00  0.00    -0.013 OA 
HETATM   23  C   UNL     1      -7.417   7.322  65.318  1.00  0.00    -0.089 A  
HETATM   24  C   UNL     1      -5.858   5.804  64.141  1.00  0.00    -0.024 C  
HETATM   25  O   UNL     1      -5.625   5.444  62.860  1.00  0.00    -0.013 OA 
ENDBRANCH  13  17
BRANCH  14  26
HETATM   26  O   UNL     1     -10.356  14.758  64.814  1.00  0.00    -0.382 OA 
BRANCH  26  27
HETATM   27  C   UNL     1     -11.656  15.015  65.345  1.00  0.00    -0.229 C  
BRANCH  27  28
HETATM   28  C   UNL     1     -12.642  13.921  64.948  1.00  0.00    -0.347 C  
HETATM   29  O   UNL     1     -13.428  13.505  66.061  1.00  0.00    -0.066 OA 
HETATM   30  H   UNL     1     -14.042  12.823  65.814  1.00  0.00     0.000 HD 
ENDBRANCH  27  28
ENDBRANCH  26  27
ENDBRANCH  14  26
ENDBRANCH   7  11
BRANCH   9  31
HETATM   31  N   UNL     1     -11.358  15.014  71.141  1.00  0.00    -0.301 NA 
HETATM   32  C   UNL     1     -10.548  15.486  72.273  1.00  0.00     1.440 C  
HETATM   33  C   UNL     1     -12.729  16.465  72.421  1.00  0.00     0.028 C  
HETATM   34  C   UNL     1     -11.629  15.860  73.286  1.00  0.00    -0.105 C  
HETATM   35  C   UNL     1     -12.391  16.048  70.977  1.00  0.00    -0.228 C  
ENDBRANCH   9  31
ENDBRANCH   2   5
TORSDOF 7
ENDMDL
MODEL      126
REMARK 921   NORMALIZED FREE ENERGY PREDICTED BY IDOCK:    9.54 KCAL/MOL
REMARK 922        TOTAL FREE ENERGY PREDICTED BY IDOCK:   11.98 KCAL/MOL
REMARK 923 INTER-LIGAND FREE ENERGY PREDICTED BY IDOCK:    9.92 KCAL/MOL
REMARK 924 INTRA-LIGAND FREE ENERGY PREDICTED BY IDOCK:    2.05 KCAL/MOL
REMARK 927      BINDING AFFINITY PREDICTED BY RF-SCORE:    0.00 PKD
ROOT
HETATM    1  C   UNL     1      -7.459  18.043  65.943  1.00  0.00    -0.213 C  
HETATM    2  C   UNL     1      -8.248  18.630  67.135  1.00  0.00    -0.258 C  
HETATM    3  C   UNL     1      -7.233  19.310  68.111  1.00  0.00    -0.304 C  
HETATM    4  C   UNL     1      -9.093  19.851  66.685  1.00  0.00    -0.466 C  
ENDROOT
BRANCH   2   5
HETATM    5  C   UNL     1      -9.016  17.491  67.873  1.00  0.00    -0.251 A  
HETATM    6  C   UNL     1      -8.313  16.246  68.005  1.00  0.00    -0.165 A  
HETATM    7  C   UNL     1      -8.613  15.248  68.949  1.00  0.00    -0.207 A  
HETATM    8  C   UNL     1      -9.641  15.590  69.818  1.00  0.00    -0.205 A  
HETATM    9  C   UNL     1     -10.278  17.600  68.493  1.00  0.00    -0.386 A  
HETATM   10  C   UNL     1     -10.498  16.685  69.545  1.00  0.00    -0.281 A  
BRANCH   7  11
HETATM   11  C   UNL     1      -7.851  13.941  69.003  1.00  0.00     0.062 A  
HETATM   12  C   UNL     1      -8.580  12.725  68.785  1.00  0.00     0.172 A  
HETATM   13  C   UNL     1      -8.036  11.420  68.891  1.00  0.00    -0.085 A  
HETATM   14  C   UNL     1      -6.486  13.784  69.343  1.00  0.00    -0.111 A  
HETATM   15  C   UNL     1      -6.660  11.343  69.114  1.00  0.00    -0.095 A  
HETATM   16  C   UNL     1      -5.900  12.500  69.328  1.00  0.00    -0.086 A  
BRANCH  13  17
HETATM   17  C   UNL     1      -8.896  10.196  68.859  1.00  0.00    -0.154 A  
HETATM   18  C   UNL     1     -10.186  10.160  69.422  1.00  0.00    -0.246 A  
HETATM   19  C   UNL     1     -10.416   7.780  68.982  1.00  0.00    -0.215 A  
HETATM   20  C   UNL     1      -8.419   8.985  68.310  1.00  0.00    -0.129 A  
HETATM   21  C   UNL     1     -10.940   8.974  69.486  1.00  0.00    -0.118 A  
HETATM   22  O   UNL     1     -11.059   5.624  68.206  1.00  0.00    -0.093 OA 
HETATM   23  C   UNL     1      -9.166   7.797  68.365  1.00  0.00    -0.137 A  
HETATM   24  C   UNL     1     -11.150   6.491  69.057  1.00  0.00    -0.310 C  
HETATM   25  O   UNL     1     -11.881   6.347  70.184  1.00  0.00    -0.409 OA 
ENDBRANCH  13  17
BRANCH  14  26
HETATM   26  O   UNL     1      -5.554  14.753  69.659  1.00  0.00    -0.093 OA 
BRANCH  26  27
HETATM   27  C   UNL     1      -5.383  15.824  68.731  1.00  0.00    -0.104 C  
BRANCH  27  28
HETATM   28  C   UNL     1      -5.125  15.297  67.322  1.00  0.00     0.408 C  
HETATM   29  O   UNL     1      -5.950  15.958  66.365  1.00  0.00     0.394 OA 
HETATM   30  H   UNL     1      -5.789  15.630  65.488  1.00  0.00     0.000 HD 
ENDBRANCH  27  28
ENDBRANCH  26  27
ENDBRANCH  14  26
ENDBRANCH   7  11
BRANCH   9  31
HETATM   31  N   UNL     1     -11.239  18.543  68.149  1.00  0.00     0.370 NA 
HETATM   32  C   UNL     1     -11.197  19.904  68.705  1.00  0.00     1.576 C  
HETATM   33  C   UNL     1     -12.785  19.848  66.912  1.00  0.00     4.800 C  
HETATM   34  C   UNL     1     -12.569  20.440  68.301  1.00  0.00     5.336 C  
HETATM   35  C   UNL     1     -11.739  18.726  66.778  1.00  0.00     1.928 C  
ENDBRANCH   9  31
ENDBRANCH   2   5
TORSDOF 7
ENDMDL
MODEL      127
REMARK 921   NORMALIZED FREE ENERGY PREDICTED BY IDOCK:    9.74 KCAL/MOL
REMARK 922        TOTAL FREE ENERGY PREDICTED BY IDOCK:   12.26 KCAL/MOL
REMARK 923 INTER-LIGAND FREE ENERGY PREDICTED BY IDOCK:   10.63 KCAL/MOL
REMARK 924 INTRA-LIGAND FREE ENERGY PREDICTED BY IDOCK:    1.63 KCAL/MOL
REMARK 927      BINDING AFFINITY PREDICTED BY RF-SCORE:    0.00 PKD
ROOT
HETATM    1  C   UNL     1     -10.215  11.812  63.489  1.00  0.00    -0.483 C  
HETATM    2  C   UNL     1      -9.363  11.796  64.778  1.00  0.00     0.071 C  
HETATM    3  C   UNL     1      -8.079  10.944  64.511  1.00  0.00     0.254 C  
HETATM    4  C   UNL     1      -8.744  13.193  65.044  1.00  0.00     2.410 C  
ENDROOT
BRANCH   2   5
HETATM    5  C   UNL     1     -10.184  11.169  65.947  1.00  0.00    -0.303 A  
HETATM    6  C   UNL     1      -9.423  10.466  66.940  1.00  0.00    -0.196 A  
HETATM    7  C   UNL     1      -9.865  10.185  68.245  1.00  0.00    -0.162 A  
HETATM    8  C   UNL     1     -11.119  10.708  68.536  1.00  0.00    -0.318 A  
HETATM    9  C   UNL     1     -11.571  11.309  66.162  1.00  0.00     0.365 A  
HETATM   10  C   UNL     1     -11.974  11.174  67.508  1.00  0.00     0.297 A  
BRANCH   7  11
HETATM   11  C   UNL     1      -9.019   9.403  69.227  1.00  0.00    -0.154 A  
HETATM   12  C   UNL     1      -9.540   8.163  69.727  1.00  0.00    -0.171 A  
HETATM   13  C   UNL     1      -8.916   7.360  70.716  1.00  0.00    -0.151 A  
HETATM   14  C   UNL     1      -7.786   9.819  69.783  1.00  0.00    -0.143 A  
HETATM   15  C   UNL     1      -7.649   7.770  71.134  1.00  0.00    -0.079 A  
HETATM   16  C   UNL     1      -7.093   8.970  70.672  1.00  0.00    -0.084 A  
BRANCH  13  17
HETATM   17  C   UNL     1      -9.611   6.192  71.343  1.00  0.00    -0.177 A  
HETATM   18  C   UNL     1     -10.132   6.232  72.651  1.00  0.00    -0.192 A  
HETATM   19  C   UNL     1     -10.724   3.875  72.590  1.00  0.00    -0.115 A  
HETATM   20  C   UNL     1      -9.719   4.958  70.665  1.00  0.00    -0.271 A  
HETATM   21  C   UNL     1     -10.682   5.095  73.271  1.00  0.00    -0.318 A  
HETATM   22  O   UNL     1     -11.834   1.769  72.572  1.00  0.00     0.502 OA 
HETATM   23  C   UNL     1     -10.269   3.819  71.273  1.00  0.00     0.080 A  
HETATM   24  C   UNL     1     -11.257   2.634  73.208  1.00  0.00    -0.103 C  
HETATM   25  O   UNL     1     -10.990   2.526  74.528  1.00  0.00    -0.067 OA 
ENDBRANCH  13  17
BRANCH  14  26
HETATM   26  O   UNL     1      -7.074  10.977  69.543  1.00  0.00    -0.126 OA 
BRANCH  26  27
HETATM   27  C   UNL     1      -7.046  11.462  68.201  1.00  0.00    -0.075 C  
BRANCH  27  28
HETATM   28  C   UNL     1      -7.044  12.988  68.166  1.00  0.00    -0.107 C  
HETATM   29  O   UNL     1      -7.809  13.531  69.238  1.00  0.00    -0.324 OA 
HETATM   30  H   UNL     1      -7.808  14.481  69.216  1.00  0.00     0.000 HD 
ENDBRANCH  27  28
ENDBRANCH  26  27
ENDBRANCH  14  26
ENDBRANCH   7  11
BRANCH   9  31
HETATM   31  N   UNL     1     -12.493  11.591  65.161  1.00  0.00     0.472 NA 
HETATM   32  C   UNL     1     -12.442  12.862  64.422  1.00  0.00    -0.375 C  
HETATM   33  C   UNL     1     -13.950  11.375  63.303  1.00  0.00     2.880 C  
HETATM   34  C   UNL     1     -13.782  12.841  63.689  1.00  0.00     2.465 C  
HETATM   35  C   UNL     1     -12.927  10.606  64.159  1.00  0.00     5.326 C  
ENDBRANCH   9  31
ENDBRANCH   2   5
TORSDOF 7
ENDMDL
MODEL      128
REMARK 921   NORMALIZED FREE ENERGY PREDICTED BY IDOCK:   10.14 KCAL/MOL
REMARK 922        TOTAL FREE ENERGY PREDICTED BY IDOCK:   12.82 KCAL/MOL
REMARK 923 INTER-LIGAND FREE ENERGY PREDICTED BY IDOCK:   12.63 KCAL/MOL
REMARK 924 INTRA-LIGAND FREE ENERGY PREDICTED BY IDOCK:    0.19 KCAL/MOL
REMARK 927      BINDING AFFINITY PREDICTED BY RF-SCORE:    0.00 PKD
ROOT
HETATM    1  C   UNL     1     -10.168  15.036  65.303  1.00  0.00    -0.409 C  
HETATM    2  C   UNL     1      -9.396  15.955  66.277  1.00  0.00    -0.357 C  
HETATM    3  C   UNL     1      -7.878  15.587  66.205  1.00  0.00     0.946 C  
HETATM    4  C   UNL     1      -9.375  17.415  65.753  1.00  0.00     0.147 C  
ENDROOT
BRANCH   2   5
HETATM    5  C   UNL     1      -9.926  15.748  67.729  1.00  0.00    -0.227 A  
HETATM    6  C   UNL     1     -10.557  14.485  67.992  1.00  0.00    -0.237 A  
HETATM    7  C   UNL     1     -10.734  13.923  69.268  1.00  0.00    -0.117 A  
HETATM    8  C   UNL     1     -10.181  14.679  70.295  1.00  0.00     0.459 A  
HETATM    9  C   UNL     1      -9.761  16.636  68.813  1.00  0.00    -0.254 A  
HETATM   10  C   UNL     1      -9.789  16.024  70.084  1.00  0.00     0.297 A  
BRANCH   7  11
HETATM   11  C   UNL     1     -11.444  12.602  69.470  1.00  0.00    -0.294 A  
HETATM   12  C   UNL     1     -10.782  11.591  70.244  1.00  0.00     0.963 A  
HETATM   13  C   UNL     1     -11.269  10.276  70.450  1.00  0.00    -0.407 A  
HETATM   14  C   UNL     1     -12.676  12.219  68.888  1.00  0.00     1.224 A  
HETATM   15  C   UNL     1     -12.543  10.004  69.946  1.00  0.00     0.234 A  
HETATM   16  C   UNL     1     -13.234  10.957  69.187  1.00  0.00     2.205 A  
BRANCH  13  17
HETATM   17  C   UNL     1     -10.434   9.211  71.088  1.00  0.00    -0.385 A  
HETATM   18  C   UNL     1     -10.499   7.859  70.698  1.00  0.00    -0.216 A  
HETATM   19  C   UNL     1      -8.997   7.172  72.482  1.00  0.00    -0.147 A  
HETATM   20  C   UNL     1      -9.577   9.508  72.172  1.00  0.00     1.491 A  
HETATM   21  C   UNL     1      -9.794   6.851  71.379  1.00  0.00    -0.184 A  
HETATM   22  O   UNL     1      -7.186   6.357  73.795  1.00  0.00    -0.082 OA 
HETATM   23  C   UNL     1      -8.866   8.509  72.855  1.00  0.00    -0.159 A  
HETATM   24  C   UNL     1      -8.262   6.144  73.263  1.00  0.00    -0.113 C  
HETATM   25  O   UNL     1      -8.923   4.972  73.377  1.00  0.00    -0.119 OA 
ENDBRANCH  13  17
BRANCH  14  26
HETATM   26  O   UNL     1     -13.505  12.946  68.058  1.00  0.00     3.450 OA 
BRANCH  26  27
HETATM   27  C   UNL     1     -13.253  12.875  66.655  1.00  0.00     3.082 C  
BRANCH  27  28
HETATM   28  C   UNL     1     -12.751  14.212  66.116  1.00  0.00    -0.213 C  
HETATM   29  O   UNL     1     -13.669  15.263  66.405  1.00  0.00     2.469 OA 
HETATM   30  H   UNL     1     -13.356  16.096  66.069  1.00  0.00     0.000 HD 
ENDBRANCH  27  28
ENDBRANCH  26  27
ENDBRANCH  14  26
ENDBRANCH   7  11
BRANCH   9  31
HETATM   31  N   UNL     1      -9.550  18.003  68.678  1.00  0.00    -0.327 NA 
HETATM   32  C   UNL     1     -10.386  18.973  69.402  1.00  0.00     0.370 C  
HETATM   33  C   UNL     1      -8.501  20.119  68.469  1.00  0.00     0.047 C  
HETATM   34  C   UNL     1      -9.997  20.281  68.716  1.00  0.00    -0.184 C  
HETATM   35  C   UNL     1      -8.215  18.618  68.658  1.00  0.00    -0.318 C  
ENDBRANCH   9  31
ENDBRANCH   2   5
TORSDOF 7
ENDMDL
MODEL      129
REMARK 921   NORMALIZED FREE ENERGY PREDICTED BY IDOCK:   10.80 KCAL/MOL
REMARK 922        TOTAL FREE ENERGY PREDICTED BY IDOCK:   13.74 KCAL/MOL
REMARK 923 INTER-LIGAND FREE ENERGY PREDICTED BY IDOCK:   11.41 KCAL/MOL
REMARK 924 INTRA-LIGAND FREE ENERGY PREDICTED BY IDOCK:    2.33 KCAL/MOL
REMARK 927      BINDING AFFINITY PREDICTED BY RF-SCORE:    0.00 PKD
ROOT
HETATM    1  C   UNL     1     -11.262  16.907  72.650  1.00  0.00     1.174 C  
HETATM    2  C   UNL     1     -11.505  15.515  72.023  1.00  0.00    -0.515 C  
HETATM    3  C   UNL     1     -10.605  14.475  72.767  1.00  0.00     3.419 C  
HETATM    4  C   UNL     1     -12.922  14.992  72.379  1.00  0.00    -0.444 C  
ENDROOT
BRANCH   2   5
HETATM    5  C   UNL     1     -11.141  15.548  70.507  1.00  0.00    -0.369 A  
HETATM    6  C   UNL     1     -11.057  14.270  69.856  1.00  0.00    -0.125 A  
HETATM    7  C   UNL     1     -11.150  14.065  68.468  1.00  0.00    -0.279 A  
HETATM    8  C   UNL     1     -11.397  15.227  67.746  1.00  0.00    -0.331 A  
HETATM    9  C   UNL     1     -10.981  16.700  69.711  1.00  0.00    -0.205 A  
HETATM   10  C   UNL     1     -11.230  16.505  68.335  1.00  0.00    -0.280 A  
BRANCH   7  11
HETATM   11  C   UNL     1     -11.014  12.691  67.850  1.00  0.00    -0.262 A  
HETATM   12  C   UNL     1     -10.951  11.559  68.729  1.00  0.00    -0.271 A  
HETATM   13  C   UNL     1     -10.734  10.220  68.316  1.00  0.00    -0.276 A  
HETATM   14  C   UNL     1     -10.845  12.408  66.473  1.00  0.00    -0.250 A  
HETATM   15  C   UNL     1     -10.693   9.998  66.938  1.00  0.00    -0.211 A  
HETATM   16  C   UNL     1     -10.755  11.069  66.036  1.00  0.00    -0.242 A  
BRANCH  13  17
HETATM   17  C   UNL     1     -10.471   9.120  69.296  1.00  0.00    -0.231 A  
HETATM   18  C   UNL     1     -11.498   8.318  69.830  1.00  0.00     0.174 A  
HETATM   19  C   UNL     1      -9.962   7.184  71.335  1.00  0.00    -0.193 A  
HETATM   20  C   UNL     1      -9.169   8.875  69.785  1.00  0.00    -0.167 A  
HETATM   21  C   UNL     1     -11.255   7.363  70.834  1.00  0.00    -0.292 A  
HETATM   22  O   UNL     1      -8.595   5.619  72.495  1.00  0.00    -0.124 OA 
HETATM   23  C   UNL     1      -8.915   7.922  70.783  1.00  0.00    -0.141 A  
HETATM   24  C   UNL     1      -9.653   6.219  72.421  1.00  0.00    -0.150 C  
HETATM   25  O   UNL     1     -10.629   6.114  73.348  1.00  0.00    -0.240 OA 
ENDBRANCH  13  17
BRANCH  14  26
HETATM   26  O   UNL     1     -10.803  13.283  65.407  1.00  0.00    -0.282 OA 
BRANCH  26  27
HETATM   27  C   UNL     1     -11.301  12.815  64.154  1.00  0.00    -0.390 C  
BRANCH  27  28
HETATM   28  C   UNL     1     -11.435  11.294  64.147  1.00  0.00     0.052 C  
HETATM   29  O   UNL     1     -12.163  10.845  63.007  1.00  0.00     0.036 OA 
HETATM   30  H   UNL     1     -12.247   9.899  63.003  1.00  0.00     0.000 HD 
ENDBRANCH  27  28
ENDBRANCH  26  27
ENDBRANCH  14  26
ENDBRANCH   7  11
BRANCH   9  31
HETATM   31  N   UNL     1     -10.641  17.952  70.208  1.00  0.00     1.062 NA 
HETATM   32  C   UNL     1      -9.272  18.474  70.076  1.00  0.00     1.570 C  
HETATM   33  C   UNL     1     -10.713  20.251  70.786  1.00  0.00     2.560 C  
HETATM   34  C   UNL     1      -9.315  19.682  71.010  1.00  0.00     2.284 C  
HETATM   35  C   UNL     1     -11.497  19.140  70.064  1.00  0.00     5.352 C  
ENDBRANCH   9  31
ENDBRANCH   2   5
TORSDOF 7
ENDMDL
MODEL      130
REMARK 921   NORMALIZED FREE ENERGY PREDICTED BY IDOCK:   11.19 KCAL/MOL
REMARK 922        TOTAL FREE ENERGY PREDICTED BY IDOCK:   14.30 KCAL/MOL
REMARK 923 INTER-LIGAND FREE ENERGY PREDICTED BY IDOCK:   13.07 KCAL/MOL
REMARK 924 INTRA-LIGAND FREE ENERGY PREDICTED BY IDOCK:    1.23 KCAL/MOL
REMARK 927      BINDING AFFINITY PREDICTED BY RF-SCORE:    0.00 PKD
ROOT
HETATM    1  C   UNL     1      -7.150  10.359  71.266  1.00  0.00     1.513 C  
HETATM    2  C   UNL     1      -6.695   9.835  69.884  1.00  0.00    -0.078 C  
HETATM    3  C   UNL     1      -5.280  10.424  69.574  1.00  0.00    -0.038 C  
HETATM    4  C   UNL     1      -6.379   8.317  69.950  1.00  0.00    -0.032 C  
ENDROOT
BRANCH   2   5
HETATM    5  C   UNL     1      -7.711  10.283  68.789  1.00  0.00    -0.096 A  
HETATM    6  C   UNL     1      -8.061  11.675  68.792  1.00  0.00    -0.072 A  
HETATM    7  C   UNL     1      -8.608  12.372  67.699  1.00  0.00    -0.172 A  
HETATM    8  C   UNL     1      -8.736  11.599  66.551  1.00  0.00    -0.182 A  
HETATM    9  C   UNL     1      -8.236   9.478  67.757  1.00  0.00    -0.114 A  
HETATM   10  C   UNL     1      -8.637  10.187  66.604  1.00  0.00    -0.130 A  
BRANCH   7  11
HETATM   11  C   UNL     1      -8.988  13.833  67.790  1.00  0.00    -0.194 A  
HETATM   12  C   UNL     1      -9.502  14.321  69.037  1.00  0.00     0.009 A  
HETATM   13  C   UNL     1      -9.986  15.635  69.260  1.00  0.00    -0.265 A  
HETATM   14  C   UNL     1      -8.978  14.766  66.725  1.00  0.00    -0.266 A  
HETATM   15  C   UNL     1      -9.837  16.534  68.202  1.00  0.00    -0.244 A  
HETATM   16  C   UNL     1      -9.337  16.110  66.964  1.00  0.00    -0.232 A  
BRANCH  13  17
HETATM   17  C   UNL     1     -10.699  16.016  70.519  1.00  0.00    -0.143 A  
HETATM   18  C   UNL     1     -10.758  15.170  71.644  1.00  0.00     0.390 A  
HETATM   19  C   UNL     1     -12.260  16.677  72.819  1.00  0.00    -0.178 A  
HETATM   20  C   UNL     1     -11.410  17.233  70.614  1.00  0.00     1.442 A  
HETATM   21  C   UNL     1     -11.524  15.490  72.779  1.00  0.00    -0.344 A  
HETATM   22  O   UNL     1     -13.292  18.200  74.329  1.00  0.00     3.204 OA 
HETATM   23  C   UNL     1     -12.174  17.563  71.745  1.00  0.00     4.604 A  
HETATM   24  C   UNL     1     -13.116  17.048  73.974  1.00  0.00     1.148 C  
HETATM   25  O   UNL     1     -13.728  15.994  74.557  1.00  0.00     0.798 OA 
ENDBRANCH  13  17
BRANCH  14  26
HETATM   26  O   UNL     1      -8.597  14.578  65.412  1.00  0.00     1.644 OA 
BRANCH  26  27
HETATM   27  C   UNL     1      -9.599  14.746  64.409  1.00  0.00     2.414 C  
BRANCH  27  28
HETATM   28  C   UNL     1     -10.984  14.396  64.948  1.00  0.00    -0.406 C  
HETATM   29  O   UNL     1     -11.138  12.988  65.100  1.00  0.00    -0.285 OA 
HETATM   30  H   UNL     1     -12.000  12.770  65.435  1.00  0.00     0.000 HD 
ENDBRANCH  27  28
ENDBRANCH  26  27
ENDBRANCH  14  26
ENDBRANCH   7  11
BRANCH   9  31
HETATM   31  N   UNL     1      -8.332   8.093  67.818  1.00  0.00    -0.127 NA 
HETATM   32  C   UNL     1      -8.599   7.408  69.091  1.00  0.00    -0.136 C  
HETATM   33  C   UNL     1      -8.849   5.837  67.301  1.00  0.00    -0.106 C  
HETATM   34  C   UNL     1      -8.310   5.954  68.722  1.00  0.00    -0.105 C  
HETATM   35  C   UNL     1      -9.044   7.286  66.815  1.00  0.00    -0.148 C  
ENDBRANCH   9  31
ENDBRANCH   2   5
TORSDOF 7
ENDMDL
MODEL      131
REMARK 921   NORMALIZED FREE ENERGY PREDICTED BY IDOCK:   11.63 KCAL/MOL
REMARK 922        TOTAL FREE ENERGY PREDICTED BY IDOCK:   14.91 KCAL/MOL
REMARK 923 INTER-LIGAND FREE ENERGY PREDICTED BY IDOCK:   14.49 KCAL/MOL
REMARK 924 INTRA-LIGAND FREE ENERGY PREDICTED BY IDOCK:    0.42 KCAL/MOL
REMARK 927      BINDING AFFINITY PREDICTED BY RF-SCORE:    0.00 PKD
ROOT
HETATM    1  C   UNL     1      -8.262   9.256  63.269  1.00  0.00    -0.176 C  
HETATM    2  C   UNL     1      -8.886   8.750  64.590  1.00  0.00    -0.054 C  
HETATM    3  C   UNL     1     -10.405   8.472  64.344  1.00  0.00     5.275 C  
HETATM    4  C   UNL     1      -8.373   7.326  64.930  1.00  0.00    -0.022 C  
ENDROOT
BRANCH   2   5
HETATM    5  C   UNL     1      -8.715   9.831  65.702  1.00  0.00    -0.168 A  
HETATM    6  C   UNL     1      -9.043  11.176  65.323  1.00  0.00    -0.183 A  
HETATM    7  C   UNL     1      -9.356  12.213  66.220  1.00  0.00    -0.221 A  
HETATM    8  C   UNL     1      -9.384  11.813  67.550  1.00  0.00    -0.174 A  
HETATM    9  C   UNL     1      -8.365   9.596  67.048  1.00  0.00    -0.117 A  
HETATM   10  C   UNL     1      -8.824  10.576  67.955  1.00  0.00    -0.133 A  
BRANCH   7  11
HETATM   11  C   UNL     1      -9.654  13.619  65.747  1.00  0.00    -0.086 A  
HETATM   12  C   UNL     1      -9.640  14.675  66.718  1.00  0.00    -0.266 A  
HETATM   13  C   UNL     1      -9.984  16.025  66.456  1.00  0.00    -0.293 A  
HETATM   14  C   UNL     1     -10.044  13.995  64.439  1.00  0.00     0.406 A  
HETATM   15  C   UNL     1     -10.245  16.348  65.123  1.00  0.00     0.021 A  
HETATM   16  C   UNL     1     -10.267  15.355  64.134  1.00  0.00     2.194 A  
BRANCH  13  17
HETATM   17  C   UNL     1     -10.151  17.029  67.553  1.00  0.00    -0.294 A  
HETATM   18  C   UNL     1     -11.196  17.973  67.567  1.00  0.00     0.304 A  
HETATM   19  C   UNL     1     -10.304  19.075  69.541  1.00  0.00     0.427 A  
HETATM   20  C   UNL     1      -9.215  17.118  68.608  1.00  0.00    -0.263 A  
HETATM   21  C   UNL     1     -11.277  18.983  68.542  1.00  0.00     1.190 A  
HETATM   22  O   UNL     1      -9.917  19.973  71.711  1.00  0.00     1.903 OA 
HETATM   23  C   UNL     1      -9.291  18.119  69.589  1.00  0.00     0.728 A  
HETATM   24  C   UNL     1     -10.318  20.143  70.574  1.00  0.00     1.388 C  
HETATM   25  O   UNL     1     -10.762  21.335  70.117  1.00  0.00     1.149 OA 
ENDBRANCH  13  17
BRANCH  14  26
HETATM   26  O   UNL     1     -10.203  13.202  63.320  1.00  0.00     0.317 OA 
BRANCH  26  27
HETATM   27  C   UNL     1     -11.424  13.333  62.592  1.00  0.00     2.440 C  
BRANCH  27  28
HETATM   28  C   UNL     1     -12.447  12.293  63.038  1.00  0.00     0.026 C  
HETATM   29  O   UNL     1     -11.921  10.973  62.936  1.00  0.00    -0.441 OA 
HETATM   30  H   UNL     1     -12.558  10.325  63.214  1.00  0.00     0.000 HD 
ENDBRANCH  27  28
ENDBRANCH  26  27
ENDBRANCH  14  26
ENDBRANCH   7  11
BRANCH   9  31
HETATM   31  N   UNL     1      -7.657   8.485  67.489  1.00  0.00    -0.097 NA 
HETATM   32  C   UNL     1      -8.350   7.235  67.835  1.00  0.00    -0.119 C  
HETATM   33  C   UNL     1      -5.995   6.810  67.724  1.00  0.00    -0.027 C  
HETATM   34  C   UNL     1      -7.238   6.454  68.533  1.00  0.00    -0.085 C  
HETATM   35  C   UNL     1      -6.389   8.043  66.889  1.00  0.00    -0.055 C  
ENDBRANCH   9  31
ENDBRANCH   2   5
TORSDOF 7
ENDMDL
MODEL      132
REMARK 921   NORMALIZED FREE ENERGY PREDICTED BY IDOCK:   12.22 KCAL/MOL
REMARK 922        TOTAL FREE ENERGY PREDICTED BY IDOCK:   15.75 KCAL/MOL
REMARK 923 INTER-LIGAND FREE ENERGY PREDICTED BY IDOCK:   14.30 KCAL/MOL
REMARK 924 INTRA-LIGAND FREE ENERGY PREDICTED BY IDOCK:    1.45 KCAL/MOL
REMARK 927      BINDING AFFINITY PREDICTED BY RF-SCORE:    0.00 PKD
ROOT
HETATM    1  C   UNL     1      -7.521   7.275  68.659  1.00  0.00    -0.102 C  
HETATM    2  C   UNL     1      -6.694   8.574  68.519  1.00  0.00    -0.060 C  
HETATM    3  C   UNL     1      -5.516   8.522  69.547  1.00  0.00    -0.030 C  
HETATM    4  C   UNL     1      -5.918   8.588  67.176  1.00  0.00    -0.054 C  
ENDROOT
BRANCH   2   5
HETATM    5  C   UNL     1      -7.599   9.810  68.808  1.00  0.00    -0.076 A  
HETATM    6  C   UNL     1      -8.010  10.567  67.659  1.00  0.00    -0.106 A  
HETATM    7  C   UNL     1      -9.114  11.437  67.619  1.00  0.00    -0.155 A  
HETATM    8  C   UNL     1      -9.844  11.470  68.801  1.00  0.00    -0.153 A  
HETATM    9  C   UNL     1      -8.118  10.191  70.063  1.00  0.00    -0.061 A  
HETATM   10  C   UNL     1      -9.315  10.936  70.003  1.00  0.00     0.990 A  
BRANCH   7  11
HETATM   11  C   UNL     1      -9.464  12.233  66.380  1.00  0.00    -0.240 A  
HETATM   12  C   UNL     1      -9.427  13.664  66.465  1.00  0.00    -0.270 A  
HETATM   13  C   UNL     1      -9.812  14.550  65.427  1.00  0.00    -0.274 A  
HETATM   14  C   UNL     1      -9.922  11.703  65.149  1.00  0.00    -0.259 A  
HETATM   15  C   UNL     1     -10.141  13.962  64.204  1.00  0.00     0.907 A  
HETATM   16  C   UNL     1     -10.187  12.568  64.066  1.00  0.00    -0.390 A  
BRANCH  13  17
HETATM   17  C   UNL     1      -9.949  16.023  65.651  1.00  0.00    -0.346 A  
HETATM   18  C   UNL     1     -11.181  16.634  65.955  1.00  0.00     0.387 A  
HETATM   19  C   UNL     1     -10.214  18.862  65.845  1.00  0.00    -0.333 A  
HETATM   20  C   UNL     1      -8.843  16.889  65.502  1.00  0.00     0.737 A  
HETATM   21  C   UNL     1     -11.319  18.030  66.052  1.00  0.00     1.215 A  
HETATM   22  O   UNL     1      -9.401  21.054  66.291  1.00  0.00     0.424 OA 
HETATM   23  C   UNL     1      -8.969  18.284  65.601  1.00  0.00     0.714 A  
HETATM   24  C   UNL     1     -10.309  20.343  65.897  1.00  0.00    -0.067 C  
HETATM   25  O   UNL     1     -11.471  20.831  65.411  1.00  0.00     1.350 OA 
ENDBRANCH  13  17
BRANCH  14  26
HETATM   26  O   UNL     1     -10.115  10.384  64.792  1.00  0.00    -0.339 OA 
BRANCH  26  27
HETATM   27  C   UNL     1     -11.431  10.000  64.394  1.00  0.00     4.608 C  
BRANCH  27  28
HETATM   28  C   UNL     1     -12.491  10.771  65.174  1.00  0.00     4.388 C  
HETATM   29  O   UNL     1     -12.122  10.916  66.543  1.00  0.00     0.749 OA 
HETATM   30  H   UNL     1     -12.783  11.396  67.030  1.00  0.00     0.000 HD 
ENDBRANCH  27  28
ENDBRANCH  26  27
ENDBRANCH  14  26
ENDBRANCH   7  11
BRANCH   9  31
HETATM   31  N   UNL     1      -7.545   9.849  71.281  1.00  0.00     0.139 NA 
HETATM   32  C   UNL     1      -7.688   8.493  71.831  1.00  0.00    -0.104 C  
HETATM   33  C   UNL     1      -6.029   9.669  73.096  1.00  0.00     0.472 C  
HETATM   34  C   UNL     1      -7.186   8.689  73.260  1.00  0.00     0.042 C  
HETATM   35  C   UNL     1      -6.193  10.263  71.685  1.00  0.00     0.592 C  
ENDBRANCH   9  31
ENDBRANCH   2   5
TORSDOF 7
ENDMDL
MODEL      133
REMARK 921   NORMALIZED FREE ENERGY PREDICTED BY IDOCK:   12.85 KCAL/MOL
REMARK 922        TOTAL FREE ENERGY PREDICTED BY IDOCK:   16.63 KCAL/MOL
REMARK 923 INTER-LIGAND FREE ENERGY PREDICTED BY IDOCK:   16.45 KCAL/MOL
REMARK 924 INTRA-LIGAND FREE ENERGY PREDICTED BY IDOCK:    0.18 KCAL/MOL
REMARK 927      BINDING AFFINITY PREDICTED BY RF-SCORE:    0.00 PKD
ROOT
HETATM    1  C   UNL     1      -7.869   6.343  69.825  1.00  0.00    -0.114 C  
HETATM    2  C   UNL     1      -8.134   7.855  69.641  1.00  0.00    -0.117 C  
HETATM    3  C   UNL     1      -9.630   8.140  70.000  1.00  0.00    -0.171 C  
HETATM    4  C   UNL     1      -7.403   8.677  70.734  1.00  0.00    -0.070 C  
ENDROOT
BRANCH   2   5
HETATM    5  C   UNL     1      -7.853   8.265  68.163  1.00  0.00    -0.118 A  
HETATM    6  C   UNL     1      -7.501   9.641  67.952  1.00  0.00    -0.083 A  
HETATM    7  C   UNL     1      -6.827  10.136  66.821  1.00  0.00    -0.086 A  
HETATM    8  C   UNL     1      -6.460   9.150  65.912  1.00  0.00    -0.061 A  
HETATM    9  C   UNL     1      -7.824   7.402  67.048  1.00  0.00    -0.116 A  
HETATM   10  C   UNL     1      -7.015   7.848  65.980  1.00  0.00    -0.061 A  
BRANCH   7  11
HETATM   11  C   UNL     1      -6.522  11.608  66.650  1.00  0.00    -0.054 A  
HETATM   12  C   UNL     1      -7.121  12.532  67.569  1.00  0.00    -0.151 A  
HETATM   13  C   UNL     1      -7.011  13.943  67.492  1.00  0.00    -0.162 A  
HETATM   14  C   UNL     1      -5.769  12.189  65.601  1.00  0.00     2.668 A  
HETATM   15  C   UNL     1      -6.158  14.442  66.504  1.00  0.00     3.343 A  
HETATM   16  C   UNL     1      -5.545  13.582  65.584  1.00  0.00     8.316 A  
BRANCH  13  17
HETATM   17  C   UNL     1      -7.828  14.852  68.354  1.00  0.00    -0.121 A  
HETATM   18  C   UNL     1      -8.375  14.442  69.586  1.00  0.00     0.479 A  
HETATM   19  C   UNL     1      -9.573  16.538  69.863  1.00  0.00     0.531 A  
HETATM   20  C   UNL     1      -8.147  16.163  67.936  1.00  0.00    -0.152 A  
HETATM   21  C   UNL     1      -9.234  15.267  70.334  1.00  0.00     0.859 A  
HETATM   22  O   UNL     1     -10.400  18.651  70.584  1.00  0.00     1.347 OA 
HETATM   23  C   UNL     1      -9.000  16.996  68.677  1.00  0.00    -0.267 A  
HETATM   24  C   UNL     1     -10.505  17.437  70.591  1.00  0.00     1.516 C  
HETATM   25  O   UNL     1     -11.513  16.787  71.212  1.00  0.00    -0.128 OA 
ENDBRANCH  13  17
BRANCH  14  26
HETATM   26  O   UNL     1      -5.128  11.568  64.548  1.00  0.00     0.134 OA 
BRANCH  26  27
HETATM   27  C   UNL     1      -5.933  10.803  63.651  1.00  0.00     0.131 C  
BRANCH  27  28
HETATM   28  C   UNL     1      -5.177   9.581  63.136  1.00  0.00    -0.070 C  
HETATM   29  O   UNL     1      -6.072   8.601  62.618  1.00  0.00    -0.087 OA 
HETATM   30  H   UNL     1      -5.602   7.840  62.297  1.00  0.00     0.000 HD 
ENDBRANCH  27  28
ENDBRANCH  26  27
ENDBRANCH  14  26
ENDBRANCH   7  11
BRANCH   9  31
HETATM   31  N   UNL     1      -8.494   6.187  66.982  1.00  0.00    -0.105 NA 
HETATM   32  C   UNL     1      -9.816   6.085  66.346  1.00  0.00    -0.110 C  
HETATM   33  C   UNL     1      -8.968   3.877  66.729  1.00  0.00    -0.144 C  
HETATM   34  C   UNL     1     -10.258   4.690  66.784  1.00  0.00    -0.226 C  
HETATM   35  C   UNL     1      -7.833   4.915  66.652  1.00  0.00    -0.099 C  
ENDBRANCH   9  31
ENDBRANCH   2   5
TORSDOF 7
ENDMDL
MODEL      134
REMARK 921   NORMALIZED FREE ENERGY PREDICTED BY IDOCK:   15.56 KCAL/MOL
REMARK 922        TOTAL FREE ENERGY PREDICTED BY IDOCK:   20.45 KCAL/MOL
REMARK 923 INTER-LIGAND FREE ENERGY PREDICTED BY IDOCK:   19.88 KCAL/MOL
REMARK 924 INTRA-LIGAND FREE ENERGY PREDICTED BY IDOCK:    0.57 KCAL/MOL
REMARK 927      BINDING AFFINITY PREDICTED BY RF-SCORE:    0.00 PKD
ROOT
HETATM    1  C   UNL     1     -10.701  11.249  67.631  1.00  0.00    -0.270 C  
HETATM    2  C   UNL     1     -10.555  12.161  68.871  1.00  0.00    -0.179 C  
HETATM    3  C   UNL     1     -11.425  13.441  68.647  1.00  0.00    -0.345 C  
HETATM    4  C   UNL     1     -11.259  11.533  70.101  1.00  0.00    -0.006 C  
ENDROOT
BRANCH   2   5
HETATM    5  C   UNL     1      -9.059  12.561  69.059  1.00  0.00     0.477 A  
HETATM    6  C   UNL     1      -8.774  13.967  68.993  1.00  0.00     0.166 A  
HETATM    7  C   UNL     1      -7.625  14.582  69.522  1.00  0.00     0.016 A  
HETATM    8  C   UNL     1      -6.778  13.706  70.190  1.00  0.00     0.231 A  
HETATM    9  C   UNL     1      -7.995  11.691  69.376  1.00  0.00     0.429 A  
HETATM   10  C   UNL     1      -6.914  12.303  70.046  1.00  0.00     0.685 A  
BRANCH   7  11
HETATM   11  C   UNL     1      -7.374  16.068  69.380  1.00  0.00    -0.212 A  
HETATM   12  C   UNL     1      -8.323  16.844  68.635  1.00  0.00    -0.261 A  
HETATM   13  C   UNL     1      -8.188  18.223  68.334  1.00  0.00    -0.326 A  
HETATM   14  C   UNL     1      -6.231  16.769  69.834  1.00  0.00    -0.149 A  
HETATM   15  C   UNL     1      -7.098  18.876  68.912  1.00  0.00    -0.354 A  
HETATM   16  C   UNL     1      -6.144  18.165  69.653  1.00  0.00    -0.234 A  
BRANCH  13  17
HETATM   17  C   UNL     1      -9.105  18.921  67.380  1.00  0.00    -0.303 A  
HETATM   18  C   UNL     1      -9.895  20.025  67.755  1.00  0.00    -0.545 A  
HETATM   19  C   UNL     1     -11.012  20.082  65.597  1.00  0.00    -0.115 A  
HETATM   20  C   UNL     1      -9.271  18.455  66.056  1.00  0.00     0.003 A  
HETATM   21  C   UNL     1     -10.835  20.602  66.883  1.00  0.00     0.943 A  
HETATM   22  O   UNL     1     -11.850  20.644  63.441  1.00  0.00     3.477 OA 
HETATM   23  C   UNL     1     -10.204  19.027  65.177  1.00  0.00     1.256 A  
HETATM   24  C   UNL     1     -12.017  20.625  64.648  1.00  0.00     4.178 C  
HETATM   25  O   UNL     1     -13.157  21.042  65.242  1.00  0.00     6.174 OA 
ENDBRANCH  13  17
BRANCH  14  26
HETATM   26  O   UNL     1      -5.135  16.286  70.520  1.00  0.00    -0.165 OA 
BRANCH  26  27
HETATM   27  C   UNL     1      -5.133  16.435  71.940  1.00  0.00     0.412 C  
BRANCH  27  28
HETATM   28  C   UNL     1      -5.495  17.860  72.347  1.00  0.00     1.727 C  
HETATM   29  O   UNL     1      -6.144  17.887  73.615  1.00  0.00     3.810 OA 
HETATM   30  H   UNL     1      -6.369  18.775  73.869  1.00  0.00     0.000 HD 
ENDBRANCH  27  28
ENDBRANCH  26  27
ENDBRANCH  14  26
ENDBRANCH   7  11
BRANCH   9  31
HETATM   31  N   UNL     1      -7.991  10.330  69.099  1.00  0.00    -0.123 NA 
HETATM   32  C   UNL     1      -9.029   9.443  69.645  1.00  0.00    -0.173 C  
HETATM   33  C   UNL     1      -7.794   8.251  67.974  1.00  0.00    -0.118 C  
HETATM   34  C   UNL     1      -8.444   8.065  69.341  1.00  0.00    -0.132 C  
HETATM   35  C   UNL     1      -7.703   9.775  67.768  1.00  0.00    -0.091 C  
ENDBRANCH   9  31
ENDBRANCH   2   5
TORSDOF 7
ENDMDL
MODEL      135
REMARK 921   NORMALIZED FREE ENERGY PREDICTED BY IDOCK:   16.65 KCAL/MOL
REMARK 922        TOTAL FREE ENERGY PREDICTED BY IDOCK:   21.99 KCAL/MOL
REMARK 923 INTER-LIGAND FREE ENERGY PREDICTED BY IDOCK:   19.39 KCAL/MOL
REMARK 924 INTRA-LIGAND FREE ENERGY PREDICTED BY IDOCK:    2.60 KCAL/MOL
REMARK 927      BINDING AFFINITY PREDICTED BY RF-SCORE:    0.00 PKD
ROOT
HETATM    1  C   UNL     1      -8.916  17.394  67.251  1.00  0.00    -0.241 C  
HETATM    2  C   UNL     1      -9.376  15.994  67.717  1.00  0.00    -0.211 C  
HETATM    3  C   UNL     1      -8.151  15.023  67.646  1.00  0.00    -0.184 C  
HETATM    4  C   UNL     1      -9.671  15.991  69.240  1.00  0.00    -0.257 C  
ENDROOT
BRANCH   2   5
HETATM    5  C   UNL     1     -10.519  15.478  66.790  1.00  0.00    -0.295 A  
HETATM    6  C   UNL     1     -10.341  14.158  66.253  1.00  0.00    -0.294 A  
HETATM    7  C   UNL     1     -11.374  13.345  65.753  1.00  0.00    -0.322 A  
HETATM    8  C   UNL     1     -12.638  13.910  65.873  1.00  0.00    -0.498 A  
HETATM    9  C   UNL     1     -11.732  16.141  66.511  1.00  0.00     0.914 A  
HETATM   10  C   UNL     1     -12.800  15.288  66.159  1.00  0.00     1.510 A  
BRANCH   7  11
HETATM   11  C   UNL     1     -11.104  11.977  65.166  1.00  0.00    -0.369 A  
HETATM   12  C   UNL     1     -10.187  11.116  65.855  1.00  0.00    -0.303 A  
HETATM   13  C   UNL     1      -9.760   9.846  65.392  1.00  0.00    -0.375 A  
HETATM   14  C   UNL     1     -11.601  11.484  63.935  1.00  0.00    -0.212 A  
HETATM   15  C   UNL     1     -10.377   9.372  64.233  1.00  0.00     2.549 A  
HETATM   16  C   UNL     1     -11.284  10.171  63.524  1.00  0.00     3.512 A  
BRANCH  13  17
HETATM   17  C   UNL     1      -8.647   9.094  66.051  1.00  0.00    -0.162 A  
HETATM   18  C   UNL     1      -7.503   8.662  65.352  1.00  0.00    -0.086 A  
HETATM   19  C   UNL     1      -6.652   7.464  67.288  1.00  0.00    -0.061 A  
HETATM   20  C   UNL     1      -8.724   8.722  67.412  1.00  0.00    -0.132 A  
HETATM   21  C   UNL     1      -6.517   7.860  65.954  1.00  0.00    -0.042 A  
HETATM   22  O   UNL     1      -5.398   6.674  69.151  1.00  0.00    -0.012 OA 
HETATM   23  C   UNL     1      -7.743   7.925  68.024  1.00  0.00    -0.125 A  
HETATM   24  C   UNL     1      -5.663   6.586  67.964  1.00  0.00    -0.012 C  
HETATM   25  O   UNL     1      -5.129   5.645  67.156  1.00  0.00    -0.004 OA 
ENDBRANCH  13  17
BRANCH  14  26
HETATM   26  O   UNL     1     -12.444  12.098  63.032  1.00  0.00    -0.359 OA 
BRANCH  26  27
HETATM   27  C   UNL     1     -12.613  13.511  63.151  1.00  0.00     0.393 C  
BRANCH  27  28
HETATM   28  C   UNL     1     -11.284  14.242  62.987  1.00  0.00     3.130 C  
HETATM   29  O   UNL     1     -11.446  15.650  63.140  1.00  0.00     0.593 OA 
HETATM   30  H   UNL     1     -10.619  16.105  63.038  1.00  0.00     0.000 HD 
ENDBRANCH  27  28
ENDBRANCH  26  27
ENDBRANCH  14  26
ENDBRANCH   7  11
BRANCH   9  31
HETATM   31  N   UNL     1     -11.910  17.515  66.601  1.00  0.00     2.172 NA 
HETATM   32  C   UNL     1     -11.809  18.209  67.894  1.00  0.00     2.209 C  
HETATM   33  C   UNL     1     -11.832  19.840  66.140  1.00  0.00     2.116 C  
HETATM   34  C   UNL     1     -12.368  19.587  67.545  1.00  0.00     3.534 C  
HETATM   35  C   UNL     1     -11.348  18.469  65.633  1.00  0.00     1.308 C  
ENDBRANCH   9  31
ENDBRANCH   2   5
TORSDOF 7
ENDMDL
MODEL      136
REMARK 921   NORMALIZED FREE ENERGY PREDICTED BY IDOCK:   16.79 KCAL/MOL
REMARK 922        TOTAL FREE ENERGY PREDICTED BY IDOCK:   22.19 KCAL/MOL
REMARK 923 INTER-LIGAND FREE ENERGY PREDICTED BY IDOCK:   22.80 KCAL/MOL
REMARK 924 INTRA-LIGAND FREE ENERGY PREDICTED BY IDOCK:   -0.61 KCAL/MOL
REMARK 927      BINDING AFFINITY PREDICTED BY RF-SCORE:    0.00 PKD
ROOT
HETATM    1  C   UNL     1     -10.245  19.540  69.302  1.00  0.00    -0.183 C  
HETATM    2  C   UNL     1      -9.203  18.411  69.472  1.00  0.00     0.509 C  
HETATM    3  C   UNL     1      -8.269  18.408  68.217  1.00  0.00    -0.317 C  
HETATM    4  C   UNL     1      -8.192  18.761  70.595  1.00  0.00     3.500 C  
ENDROOT
BRANCH   2   5
HETATM    5  C   UNL     1      -9.929  17.036  69.599  1.00  0.00     0.138 A  
HETATM    6  C   UNL     1      -9.989  16.248  68.400  1.00  0.00    -0.234 A  
HETATM    7  C   UNL     1     -10.212  14.860  68.359  1.00  0.00    -0.231 A  
HETATM    8  C   UNL     1     -10.315  14.272  69.614  1.00  0.00     0.184 A  
HETATM    9  C   UNL     1     -10.440  16.467  70.784  1.00  0.00     0.884 A  
HETATM   10  C   UNL     1     -10.510  15.058  70.777  1.00  0.00     0.199 A  
BRANCH   7  11
HETATM   11  C   UNL     1     -10.301  14.101  67.053  1.00  0.00    -0.267 A  
HETATM   12  C   UNL     1      -9.766  12.771  67.007  1.00  0.00    -0.224 A  
HETATM   13  C   UNL     1      -9.690  11.964  65.843  1.00  0.00    -0.258 A  
HETATM   14  C   UNL     1     -10.784  14.610  65.823  1.00  0.00    -0.315 A  
HETATM   15  C   UNL     1     -10.289  12.483  64.694  1.00  0.00    -0.341 A  
HETATM   16  C   UNL     1     -10.831  13.775  64.686  1.00  0.00    -0.416 A  
BRANCH  13  17
HETATM   17  C   UNL     1      -8.933  10.674  65.820  1.00  0.00    -0.200 A  
HETATM   18  C   UNL     1      -7.776  10.487  65.039  1.00  0.00    -0.039 A  
HETATM   19  C   UNL     1      -7.647   8.130  65.622  1.00  0.00    -0.083 A  
HETATM   20  C   UNL     1      -9.388   9.548  66.541  1.00  0.00    -0.220 A  
HETATM   21  C   UNL     1      -7.137   9.237  64.937  1.00  0.00    -0.101 A  
HETATM   22  O   UNL     1      -7.033   5.982  66.441  1.00  0.00    -0.063 OA 
HETATM   23  C   UNL     1      -8.756   8.298  66.450  1.00  0.00    -0.162 A  
HETATM   24  C   UNL     1      -7.037   6.779  65.521  1.00  0.00    -0.068 C  
HETATM   25  O   UNL     1      -6.541   6.497  64.296  1.00  0.00    -0.036 OA 
ENDBRANCH  13  17
BRANCH  14  26
HETATM   26  O   UNL     1     -11.300  15.859  65.545  1.00  0.00    -0.100 OA 
BRANCH  26  27
HETATM   27  C   UNL     1     -10.380  16.872  65.136  1.00  0.00     0.136 C  
BRANCH  27  28
HETATM   28  C   UNL     1     -11.111  18.138  64.700  1.00  0.00     2.484 C  
HETATM   29  O   UNL     1     -11.805  17.938  63.471  1.00  0.00     4.851 OA 
HETATM   30  H   UNL     1     -12.260  18.726  63.199  1.00  0.00     0.000 HD 
ENDBRANCH  27  28
ENDBRANCH  26  27
ENDBRANCH  14  26
ENDBRANCH   7  11
BRANCH   9  31
HETATM   31  N   UNL     1     -10.819  17.200  71.902  1.00  0.00     1.708 NA 
HETATM   32  C   UNL     1     -11.595  18.442  71.765  1.00  0.00     5.415 C  
HETATM   33  C   UNL     1     -11.583  17.785  74.069  1.00  0.00     0.708 C  
HETATM   34  C   UNL     1     -11.496  19.019  73.176  1.00  0.00     5.012 C  
HETATM   35  C   UNL     1     -11.331  16.586  73.136  1.00  0.00     0.925 C  
ENDBRANCH   9  31
ENDBRANCH   2   5
TORSDOF 7
ENDMDL
MODEL      137
REMARK 921   NORMALIZED FREE ENERGY PREDICTED BY IDOCK:   16.82 KCAL/MOL
REMARK 922        TOTAL FREE ENERGY PREDICTED BY IDOCK:   22.23 KCAL/MOL
REMARK 923 INTER-LIGAND FREE ENERGY PREDICTED BY IDOCK:   13.47 KCAL/MOL
REMARK 924 INTRA-LIGAND FREE ENERGY PREDICTED BY IDOCK:    8.76 KCAL/MOL
REMARK 927      BINDING AFFINITY PREDICTED BY RF-SCORE:    0.00 PKD
ROOT
HETATM    1  C   UNL     1     -10.837  17.523  70.490  1.00  0.00     1.319 C  
HETATM    2  C   UNL     1     -10.347  18.560  69.453  1.00  0.00     0.320 C  
HETATM    3  C   UNL     1     -11.598  19.186  68.754  1.00  0.00     3.012 C  
HETATM    4  C   UNL     1      -9.747  19.802  70.161  1.00  0.00     0.612 C  
ENDROOT
BRANCH   2   5
HETATM    5  C   UNL     1      -9.440  17.861  68.395  1.00  0.00    -0.304 A  
HETATM    6  C   UNL     1      -9.932  16.618  67.871  1.00  0.00    -0.254 A  
HETATM    7  C   UNL     1      -9.520  16.034  66.660  1.00  0.00    -0.259 A  
HETATM    8  C   UNL     1      -8.608  16.804  65.948  1.00  0.00    -0.065 A  
HETATM    9  C   UNL     1      -8.247  18.376  67.847  1.00  0.00    -0.260 A  
HETATM   10  C   UNL     1      -7.932  17.889  66.560  1.00  0.00    -0.303 A  
BRANCH   7  11
HETATM   11  C   UNL     1     -10.057  14.699  66.190  1.00  0.00    -0.316 A  
HETATM   12  C   UNL     1     -10.413  13.728  67.184  1.00  0.00    -0.272 A  
HETATM   13  C   UNL     1     -10.843  12.405  66.911  1.00  0.00    -0.286 A  
HETATM   14  C   UNL     1     -10.159  14.266  64.846  1.00  0.00    -0.232 A  
HETATM   15  C   UNL     1     -11.033  12.084  65.565  1.00  0.00    -0.345 A  
HETATM   16  C   UNL     1     -10.705  12.998  64.555  1.00  0.00    -0.404 A  
BRANCH  13  17
HETATM   17  C   UNL     1     -10.997  11.381  67.991  1.00  0.00    -0.290 A  
HETATM   18  C   UNL     1     -10.696  11.650  69.341  1.00  0.00    -0.080 A  
HETATM   19  C   UNL     1     -11.083   9.339  69.987  1.00  0.00    -0.228 A  
HETATM   20  C   UNL     1     -11.396  10.059  67.691  1.00  0.00     0.082 A  
HETATM   21  C   UNL     1     -10.737  10.650  70.328  1.00  0.00    -0.063 A  
HETATM   22  O   UNL     1     -11.888   7.303  70.922  1.00  0.00    -0.308 OA 
HETATM   23  C   UNL     1     -11.444   9.055  68.671  1.00  0.00     0.713 A  
HETATM   24  C   UNL     1     -11.105   8.235  70.981  1.00  0.00    -0.251 C  
HETATM   25  O   UNL     1     -10.138   8.329  71.919  1.00  0.00    -0.202 OA 
ENDBRANCH  13  17
BRANCH  14  26
HETATM   26  O   UNL     1      -9.838  14.948  63.690  1.00  0.00     3.291 OA 
BRANCH  26  27
HETATM   27  C   UNL     1     -10.896  15.206  62.767  1.00  0.00     7.889 C  
BRANCH  27  28
HETATM   28  C   UNL     1     -12.229  14.681  63.294  1.00  0.00     1.159 C  
HETATM   29  O   UNL     1     -12.106  13.342  63.767  1.00  0.00    -0.470 OA 
HETATM   30  H   UNL     1     -12.936  13.015  64.095  1.00  0.00     0.000 HD 
ENDBRANCH  27  28
ENDBRANCH  26  27
ENDBRANCH  14  26
ENDBRANCH   7  11
BRANCH   9  31
HETATM   31  N   UNL     1      -7.439  19.315  68.477  1.00  0.00    -0.311 NA 
HETATM   32  C   UNL     1      -6.912  20.475  67.742  1.00  0.00    -0.315 C  
HETATM   33  C   UNL     1      -6.537  20.806  70.085  1.00  0.00     0.847 C  
HETATM   34  C   UNL     1      -5.875  21.013  68.726  1.00  0.00    -0.308 C  
HETATM   35  C   UNL     1      -7.700  19.829  69.829  1.00  0.00     0.351 C  
ENDBRANCH   9  31
ENDBRANCH   2   5
TORSDOF 7
ENDMDL
MODEL      138
REMARK 921   NORMALIZED FREE ENERGY PREDICTED BY IDOCK:   17.48 KCAL/MOL
REMARK 922        TOTAL FREE ENERGY PREDICTED BY IDOCK:   23.16 KCAL/MOL
REMARK 923 INTER-LIGAND FREE ENERGY PREDICTED BY IDOCK:   22.46 KCAL/MOL
REMARK 924 INTRA-LIGAND FREE ENERGY PREDICTED BY IDOCK:    0.69 KCAL/MOL
REMARK 927      BINDING AFFINITY PREDICTED BY RF-SCORE:    0.00 PKD
ROOT
HETATM    1  C   UNL     1      -8.158  15.513  72.569  1.00  0.00     9.075 C  
HETATM    2  C   UNL     1      -9.261  15.486  71.486  1.00  0.00     3.998 C  
HETATM    3  C   UNL     1     -10.351  14.451  71.917  1.00  0.00     3.600 C  
HETATM    4  C   UNL     1     -10.078  16.804  71.502  1.00  0.00     4.006 C  
ENDROOT
BRANCH   2   5
HETATM    5  C   UNL     1      -8.645  15.070  70.114  1.00  0.00     0.637 A  
HETATM    6  C   UNL     1      -9.025  13.775  69.625  1.00  0.00     1.316 A  
HETATM    7  C   UNL     1      -8.940  13.364  68.283  1.00  0.00    -0.176 A  
HETATM    8  C   UNL     1      -8.499  14.359  67.419  1.00  0.00    -0.216 A  
HETATM    9  C   UNL     1      -7.839  15.875  69.283  1.00  0.00    -0.226 A  
HETATM   10  C   UNL     1      -7.889  15.539  67.913  1.00  0.00    -0.142 A  
BRANCH   7  11
HETATM   11  C   UNL     1      -9.323  11.966  67.847  1.00  0.00    -0.187 A  
HETATM   12  C   UNL     1      -9.154  10.896  68.787  1.00  0.00    -0.174 A  
HETATM   13  C   UNL     1      -9.379   9.524  68.507  1.00  0.00    -0.138 A  
HETATM   14  C   UNL     1      -9.752  11.583  66.553  1.00  0.00    -0.203 A  
HETATM   15  C   UNL     1      -9.912   9.231  67.250  1.00  0.00    -0.264 A  
HETATM   16  C   UNL     1     -10.102  10.240  66.297  1.00  0.00    -0.300 A  
BRANCH  13  17
HETATM   17  C   UNL     1      -8.984   8.444  69.464  1.00  0.00    -0.149 A  
HETATM   18  C   UNL     1      -7.674   7.932  69.532  1.00  0.00    -0.104 A  
HETATM   19  C   UNL     1      -8.321   6.226  71.138  1.00  0.00    -0.124 A  
HETATM   20  C   UNL     1      -9.938   7.834  70.309  1.00  0.00    -0.189 A  
HETATM   21  C   UNL     1      -7.340   6.841  70.355  1.00  0.00    -0.081 A  
HETATM   22  O   UNL     1      -8.602   4.841  73.053  1.00  0.00    -0.113 OA 
HETATM   23  C   UNL     1      -9.614   6.747  71.136  1.00  0.00    -0.177 A  
HETATM   24  C   UNL     1      -8.035   5.046  71.995  1.00  0.00    -0.111 C  
HETATM   25  O   UNL     1      -7.132   4.194  71.463  1.00  0.00    -0.039 OA 
ENDBRANCH  13  17
BRANCH  14  26
HETATM   26  O   UNL     1      -9.949  12.371  65.437  1.00  0.00    -0.267 OA 
BRANCH  26  27
HETATM   27  C   UNL     1     -10.643  11.785  64.336  1.00  0.00    -0.317 C  
BRANCH  27  28
HETATM   28  C   UNL     1     -11.620  12.775  63.709  1.00  0.00    -0.481 C  
HETATM   29  O   UNL     1     -12.487  13.338  64.690  1.00  0.00    -0.518 OA 
HETATM   30  H   UNL     1     -13.095  13.954  64.300  1.00  0.00     0.000 HD 
ENDBRANCH  27  28
ENDBRANCH  26  27
ENDBRANCH  14  26
ENDBRANCH   7  11
BRANCH   9  31
HETATM   31  N   UNL     1      -7.072  16.942  69.734  1.00  0.00     0.149 NA 
HETATM   32  C   UNL     1      -7.005  18.200  68.974  1.00  0.00    -0.254 C  
HETATM   33  C   UNL     1      -6.037  18.549  71.137  1.00  0.00     0.777 C  
HETATM   34  C   UNL     1      -5.846  18.913  69.668  1.00  0.00    -0.264 C  
HETATM   35  C   UNL     1      -7.022  17.365  71.141  1.00  0.00     4.122 C  
ENDBRANCH   9  31
ENDBRANCH   2   5
TORSDOF 7
ENDMDL
MODEL      139
REMARK 921   NORMALIZED FREE ENERGY PREDICTED BY IDOCK:   18.61 KCAL/MOL
REMARK 922        TOTAL FREE ENERGY PREDICTED BY IDOCK:   24.76 KCAL/MOL
REMARK 923 INTER-LIGAND FREE ENERGY PREDICTED BY IDOCK:   22.09 KCAL/MOL
REMARK 924 INTRA-LIGAND FREE ENERGY PREDICTED BY IDOCK:    2.67 KCAL/MOL
REMARK 927      BINDING AFFINITY PREDICTED BY RF-SCORE:    0.00 PKD
ROOT
HETATM    1  C   UNL     1      -7.710  15.669  66.168  1.00  0.00     0.981 C  
HETATM    2  C   UNL     1      -8.803  14.764  66.780  1.00  0.00    -0.281 C  
HETATM    3  C   UNL     1     -10.195  15.434  66.533  1.00  0.00    -0.287 C  
HETATM    4  C   UNL     1      -8.953  13.454  65.963  1.00  0.00     0.356 C  
ENDROOT
BRANCH   2   5
HETATM    5  C   UNL     1      -8.556  14.600  68.312  1.00  0.00    -0.167 A  
HETATM    6  C   UNL     1      -9.512  13.793  69.017  1.00  0.00     0.202 A  
HETATM    7  C   UNL     1      -9.288  13.181  70.263  1.00  0.00     4.359 A  
HETATM    8  C   UNL     1      -8.003  13.372  70.757  1.00  0.00     5.032 A  
HETATM    9  C   UNL     1      -7.448  15.085  69.036  1.00  0.00    -0.156 A  
HETATM   10  C   UNL     1      -7.146  14.358  70.207  1.00  0.00     0.277 A  
BRANCH   7  11
HETATM   11  C   UNL     1     -10.359  12.375  70.965  1.00  0.00     6.320 A  
HETATM   12  C   UNL     1     -10.131  10.972  71.156  1.00  0.00     4.259 A  
HETATM   13  C   UNL     1     -11.069  10.064  71.711  1.00  0.00     0.602 A  
HETATM   14  C   UNL     1     -11.627  12.852  71.377  1.00  0.00     1.977 A  
HETATM   15  C   UNL     1     -12.251  10.623  72.203  1.00  0.00     0.648 A  
HETATM   16  C   UNL     1     -12.520  11.988  72.046  1.00  0.00     0.351 A  
BRANCH  13  17
HETATM   17  C   UNL     1     -10.849   8.585  71.690  1.00  0.00    -0.356 A  
HETATM   18  C   UNL     1     -11.874   7.661  71.975  1.00  0.00    -0.342 A  
HETATM   19  C   UNL     1     -10.339   5.779  71.866  1.00  0.00    -0.263 A  
HETATM   20  C   UNL     1      -9.569   8.041  71.444  1.00  0.00    -0.195 A  
HETATM   21  C   UNL     1     -11.629   6.278  72.062  1.00  0.00    -0.372 A  
HETATM   22  O   UNL     1      -9.157   3.788  71.313  1.00  0.00    -0.102 OA 
HETATM   23  C   UNL     1      -9.316   6.663  71.524  1.00  0.00    -0.153 A  
HETATM   24  C   UNL     1     -10.015   4.334  71.984  1.00  0.00    -0.180 C  
HETATM   25  O   UNL     1     -10.718   3.696  72.945  1.00  0.00    -0.164 OA 
ENDBRANCH  13  17
BRANCH  14  26
HETATM   26  O   UNL     1     -12.150  14.126  71.272  1.00  0.00    -0.351 OA 
BRANCH  26  27
HETATM   27  C   UNL     1     -11.404  15.190  71.862  1.00  0.00    -0.300 C  
BRANCH  27  28
HETATM   28  C   UNL     1     -11.974  15.575  73.224  1.00  0.00    -0.458 C  
HETATM   29  O   UNL     1     -11.101  16.464  73.917  1.00  0.00     1.615 OA 
HETATM   30  H   UNL     1     -11.455  16.703  74.765  1.00  0.00     0.000 HD 
ENDBRANCH  27  28
ENDBRANCH  26  27
ENDBRANCH  14  26
ENDBRANCH   7  11
BRANCH   9  31
HETATM   31  N   UNL     1      -6.669  16.166  68.641  1.00  0.00    -0.123 NA 
HETATM   32  C   UNL     1      -5.530  16.616  69.455  1.00  0.00    -0.152 C  
HETATM   33  C   UNL     1      -5.432  17.700  67.321  1.00  0.00    -0.152 C  
HETATM   34  C   UNL     1      -5.204  17.960  68.807  1.00  0.00    -0.161 C  
HETATM   35  C   UNL     1      -6.233  16.386  67.254  1.00  0.00    -0.177 C  
ENDBRANCH   9  31
ENDBRANCH   2   5
TORSDOF 7
ENDMDL
MODEL      140
REMARK 921   NORMALIZED FREE ENERGY PREDICTED BY IDOCK:   20.85 KCAL/MOL
REMARK 922        TOTAL FREE ENERGY PREDICTED BY IDOCK:   27.91 KCAL/MOL
REMARK 923 INTER-LIGAND FREE ENERGY PREDICTED BY IDOCK:   27.05 KCAL/MOL
REMARK 924 INTRA-LIGAND FREE ENERGY PREDICTED BY IDOCK:    0.86 KCAL/MOL
REMARK 927      BINDING AFFINITY PREDICTED BY RF-SCORE:    0.00 PKD
ROOT
HETATM    1  C   UNL     1      -6.981  17.689  67.574  1.00  0.00    -0.183 C  
HETATM    2  C   UNL     1      -6.784  16.668  68.718  1.00  0.00    -0.174 C  
HETATM    3  C   UNL     1      -6.273  15.326  68.099  1.00  0.00    -0.138 C  
HETATM    4  C   UNL     1      -5.576  17.065  69.606  1.00  0.00    -0.197 C  
ENDROOT
BRANCH   2   5
HETATM    5  C   UNL     1      -8.137  16.432  69.456  1.00  0.00     0.169 A  
HETATM    6  C   UNL     1      -8.967  15.388  68.924  1.00  0.00    -0.208 A  
HETATM    7  C   UNL     1      -9.993  14.735  69.630  1.00  0.00     0.038 A  
HETATM    8  C   UNL     1     -10.115  15.150  70.951  1.00  0.00     0.741 A  
HETATM    9  C   UNL     1      -8.570  17.078  70.633  1.00  0.00     4.499 A  
HETATM   10  C   UNL     1      -9.487  16.336  71.407  1.00  0.00     4.699 A  
BRANCH   7  11
HETATM   11  C   UNL     1     -10.853  13.668  68.990  1.00  0.00    -0.237 A  
HETATM   12  C   UNL     1     -11.179  12.507  69.768  1.00  0.00    -0.011 A  
HETATM   13  C   UNL     1     -11.895  11.381  69.288  1.00  0.00    -0.417 A  
HETATM   14  C   UNL     1     -11.301  13.651  67.647  1.00  0.00    -0.300 A  
HETATM   15  C   UNL     1     -12.407  11.482  67.993  1.00  0.00     0.656 A  
HETATM   16  C   UNL     1     -12.122  12.597  67.193  1.00  0.00    -0.192 A  
BRANCH  13  17
HETATM   17  C   UNL     1     -12.018  10.121  70.084  1.00  0.00    -0.262 A  
HETATM   18  C   UNL     1     -10.912   9.494  70.691  1.00  0.00    -0.370 A  
HETATM   19  C   UNL     1     -12.254   7.596  71.401  1.00  0.00    -0.351 A  
HETATM   20  C   UNL     1     -13.259   9.457  70.211  1.00  0.00     0.769 A  
HETATM   21  C   UNL     1     -11.021   8.252  71.341  1.00  0.00    -0.301 A  
HETATM   22  O   UNL     1     -13.439   5.928  72.618  1.00  0.00     0.263 OA 
HETATM   23  C   UNL     1     -13.379   8.219  70.862  1.00  0.00     0.248 A  
HETATM   24  C   UNL     1     -12.420   6.265  72.040  1.00  0.00    -0.071 C  
HETATM   25  O   UNL     1     -11.361   5.445  71.871  1.00  0.00    -0.137 OA 
ENDBRANCH  13  17
BRANCH  14  26
HETATM   26  O   UNL     1     -11.097  14.587  66.654  1.00  0.00    -0.318 OA 
BRANCH  26  27
HETATM   27  C   UNL     1     -10.918  14.102  65.323  1.00  0.00    -0.337 C  
BRANCH  27  28
HETATM   28  C   UNL     1     -11.909  14.750  64.361  1.00  0.00    -0.380 C  
HETATM   29  O   UNL     1     -13.080  13.952  64.211  1.00  0.00    -0.217 OA 
HETATM   30  H   UNL     1     -13.697  14.356  63.611  1.00  0.00     0.000 HD 
ENDBRANCH  27  28
ENDBRANCH  26  27
ENDBRANCH  14  26
ENDBRANCH   7  11
BRANCH   9  31
HETATM   31  N   UNL     1      -8.125  18.327  71.048  1.00  0.00     5.570 NA 
HETATM   32  C   UNL     1      -8.440  18.835  72.392  1.00  0.00    10.191 C  
HETATM   33  C   UNL     1      -6.773  20.242  71.403  1.00  0.00     0.363 C  
HETATM   34  C   UNL     1      -8.028  20.300  72.268  1.00  0.00     2.359 C  
HETATM   35  C   UNL     1      -6.773  18.836  70.775  1.00  0.00     1.283 C  
ENDBRANCH   9  31
ENDBRANCH   2   5
TORSDOF 7
ENDMDL
MODEL      141
REMARK 921   NORMALIZED FREE ENERGY PREDICTED BY IDOCK:   21.24 KCAL/MOL
REMARK 922        TOTAL FREE ENERGY PREDICTED BY IDOCK:   28.46 KCAL/MOL
REMARK 923 INTER-LIGAND FREE ENERGY PREDICTED BY IDOCK:   29.76 KCAL/MOL
REMARK 924 INTRA-LIGAND FREE ENERGY PREDICTED BY IDOCK:   -1.31 KCAL/MOL
REMARK 927      BINDING AFFINITY PREDICTED BY RF-SCORE:    0.00 PKD
ROOT
HETATM    1  C   UNL     1      -5.457  12.610  66.009  1.00  0.00     2.949 C  
HETATM    2  C   UNL     1      -6.454  11.430  66.045  1.00  0.00     0.200 C  
HETATM    3  C   UNL     1      -6.842  11.066  64.574  1.00  0.00     0.766 C  
HETATM    4  C   UNL     1      -5.747  10.127  66.498  1.00  0.00    -0.059 C  
ENDROOT
BRANCH   2   5
HETATM    5  C   UNL     1      -7.729  11.840  66.846  1.00  0.00    -0.129 A  
HETATM    6  C   UNL     1      -8.319  10.809  67.653  1.00  0.00    -0.119 A  
HETATM    7  C   UNL     1      -9.185  11.033  68.738  1.00  0.00    -0.167 A  
HETATM    8  C   UNL     1      -9.393  12.377  69.021  1.00  0.00     0.402 A  
HETATM    9  C   UNL     1      -8.289  13.132  66.920  1.00  0.00    -0.008 A  
HETATM   10  C   UNL     1      -9.030  13.385  68.094  1.00  0.00    -0.188 A  
BRANCH   7  11
HETATM   11  C   UNL     1      -9.800   9.892  69.520  1.00  0.00    -0.241 A  
HETATM   12  C   UNL     1      -9.435   8.553  69.159  1.00  0.00    -0.154 A  
HETATM   13  C   UNL     1      -9.987   7.378  69.730  1.00  0.00    -0.188 A  
HETATM   14  C   UNL     1     -10.787  10.008  70.528  1.00  0.00    -0.314 A  
HETATM   15  C   UNL     1     -10.867   7.565  70.797  1.00  0.00    -0.253 A  
HETATM   16  C   UNL     1     -11.253   8.853  71.193  1.00  0.00    -0.352 A  
BRANCH  13  17
HETATM   17  C   UNL     1      -9.717   6.019  69.165  1.00  0.00    -0.168 A  
HETATM   18  C   UNL     1      -8.627   5.228  69.577  1.00  0.00    -0.100 A  
HETATM   19  C   UNL     1      -9.101   3.531  67.902  1.00  0.00    -0.200 A  
HETATM   20  C   UNL     1     -10.519   5.487  68.130  1.00  0.00    -0.231 A  
HETATM   21  C   UNL     1      -8.319   4.002  68.960  1.00  0.00    -0.086 A  
HETATM   22  O   UNL     1      -9.663   1.543  66.719  1.00  0.00     0.262 OA 
HETATM   23  C   UNL     1     -10.222   4.263  67.511  1.00  0.00     0.123 A  
HETATM   24  C   UNL     1      -8.800   2.263  67.188  1.00  0.00    -0.133 C  
HETATM   25  O   UNL     1      -7.479   2.015  67.057  1.00  0.00    -0.059 OA 
ENDBRANCH  13  17
BRANCH  14  26
HETATM   26  O   UNL     1     -11.373  11.148  71.041  1.00  0.00     0.273 OA 
BRANCH  26  27
HETATM   27  C   UNL     1     -12.737  11.393  70.699  1.00  0.00    -0.195 C  
BRANCH  27  28
HETATM   28  C   UNL     1     -13.463  12.129  71.821  1.00  0.00    -0.114 C  
HETATM   29  O   UNL     1     -14.364  13.104  71.301  1.00  0.00     1.007 OA 
HETATM   30  H   UNL     1     -14.816  13.563  72.000  1.00  0.00     0.000 HD 
ENDBRANCH  27  28
ENDBRANCH  26  27
ENDBRANCH  14  26
ENDBRANCH   7  11
BRANCH   9  31
HETATM   31  N   UNL     1      -8.118  14.115  65.952  1.00  0.00     1.896 NA 
HETATM   32  C   UNL     1      -9.050  14.233  64.821  1.00  0.00     2.681 C  
HETATM   33  C   UNL     1      -7.660  16.183  64.887  1.00  0.00     7.259 C  
HETATM   34  C   UNL     1      -8.300  15.203  63.909  1.00  0.00    14.598 C  
HETATM   35  C   UNL     1      -7.749  15.503  66.266  1.00  0.00     0.807 C  
ENDBRANCH   9  31
ENDBRANCH   2   5
TORSDOF 7
ENDMDL
MODEL      142
REMARK 921   NORMALIZED FREE ENERGY PREDICTED BY IDOCK:   22.43 KCAL/MOL
REMARK 922        TOTAL FREE ENERGY PREDICTED BY IDOCK:   30.14 KCAL/MOL
REMARK 923 INTER-LIGAND FREE ENERGY PREDICTED BY IDOCK:   23.25 KCAL/MOL
REMARK 924 INTRA-LIGAND FREE ENERGY PREDICTED BY IDOCK:    6.89 KCAL/MOL
REMARK 927      BINDING AFFINITY PREDICTED BY RF-SCORE:    0.00 PKD
ROOT
HETATM    1  C   UNL     1     -10.046  12.758  70.258  1.00  0.00     3.315 C  
HETATM    2  C   UNL     1     -10.771  13.594  69.179  1.00  0.00    -0.137 C  
HETATM    3  C   UNL     1     -12.074  14.189  69.809  1.00  0.00    -0.409 C  
HETATM    4  C   UNL     1      -9.976  14.887  68.861  1.00  0.00    -0.233 C  
ENDROOT
BRANCH   2   5
HETATM    5  C   UNL     1     -11.134  12.687  67.963  1.00  0.00    -0.288 A  
HETATM    6  C   UNL     1     -10.440  11.432  67.890  1.00  0.00    -0.212 A  
HETATM    7  C   UNL     1     -10.874  10.313  67.155  1.00  0.00    -0.278 A  
HETATM    8  C   UNL     1     -12.099  10.497  66.527  1.00  0.00     3.162 A  
HETATM    9  C   UNL     1     -12.129  12.943  66.998  1.00  0.00    -0.230 A  
HETATM   10  C   UNL     1     -12.661  11.790  66.381  1.00  0.00     2.332 A  
BRANCH   7  11
HETATM   11  C   UNL     1     -10.068   9.034  67.094  1.00  0.00    -0.309 A  
HETATM   12  C   UNL     1     -10.289   8.049  68.113  1.00  0.00    -0.250 A  
HETATM   13  C   UNL     1      -9.557   6.842  68.251  1.00  0.00    -0.128 A  
HETATM   14  C   UNL     1      -9.034   8.741  66.173  1.00  0.00    -0.185 A  
HETATM   15  C   UNL     1      -8.633   6.563  67.241  1.00  0.00    -0.111 A  
HETATM   16  C   UNL     1      -8.383   7.490  66.220  1.00  0.00    -0.134 A  
BRANCH  13  17
HETATM   17  C   UNL     1      -9.695   5.962  69.452  1.00  0.00    -0.191 A  
HETATM   18  C   UNL     1     -10.801   6.032  70.322  1.00  0.00    -0.398 A  
HETATM   19  C   UNL     1      -9.816   4.429  71.861  1.00  0.00    -0.247 A  
HETATM   20  C   UNL     1      -8.676   5.051  69.810  1.00  0.00    -0.111 A  
HETATM   21  C   UNL     1     -10.867   5.280  71.509  1.00  0.00    -0.164 A  
HETATM   22  O   UNL     1      -9.299   2.540  73.214  1.00  0.00    -0.086 OA 
HETATM   23  C   UNL     1      -8.735   4.293  70.990  1.00  0.00    -0.127 A  
HETATM   24  C   UNL     1      -9.814   3.640  73.120  1.00  0.00    -0.128 C  
HETATM   25  O   UNL     1     -10.384   4.281  74.163  1.00  0.00    -0.183 OA 
ENDBRANCH  13  17
BRANCH  14  26
HETATM   26  O   UNL     1      -8.560   9.511  65.130  1.00  0.00    -0.142 OA 
BRANCH  26  27
HETATM   27  C   UNL     1      -9.410  10.548  64.642  1.00  0.00    -0.248 C  
BRANCH  27  28
HETATM   28  C   UNL     1     -10.881  10.177  64.802  1.00  0.00     1.219 C  
HETATM   29  O   UNL     1     -11.587  10.321  63.572  1.00  0.00     1.861 OA 
HETATM   30  H   UNL     1     -12.503  10.090  63.671  1.00  0.00     0.000 HD 
ENDBRANCH  27  28
ENDBRANCH  26  27
ENDBRANCH  14  26
ENDBRANCH   7  11
BRANCH   9  31
HETATM   31  N   UNL     1     -12.601  14.210  66.679  1.00  0.00    -0.227 NA 
HETATM   32  C   UNL     1     -13.311  15.027  67.674  1.00  0.00     4.379 C  
HETATM   33  C   UNL     1     -12.771  16.402  65.789  1.00  0.00     3.968 C  
HETATM   34  C   UNL     1     -13.882  16.144  66.802  1.00  0.00     8.083 C  
HETATM   35  C   UNL     1     -11.832  15.186  65.892  1.00  0.00     0.088 C  
ENDBRANCH   9  31
ENDBRANCH   2   5
TORSDOF 7
ENDMDL
MODEL      143
REMARK 921   NORMALIZED FREE ENERGY PREDICTED BY IDOCK:   23.29 KCAL/MOL
REMARK 922        TOTAL FREE ENERGY PREDICTED BY IDOCK:   31.35 KCAL/MOL
REMARK 923 INTER-LIGAND FREE ENERGY PREDICTED BY IDOCK:   29.41 KCAL/MOL
REMARK 924 INTRA-LIGAND FREE ENERGY PREDICTED BY IDOCK:    1.94 KCAL/MOL
REMARK 927      BINDING AFFINITY PREDICTED BY RF-SCORE:    0.00 PKD
ROOT
HETATM    1  C   UNL     1     -12.033  14.105  64.157  1.00  0.00    -0.421 C  
HETATM    2  C   UNL     1     -12.052  13.340  65.500  1.00  0.00    -0.480 C  
HETATM    3  C   UNL     1     -13.235  12.317  65.468  1.00  0.00     2.197 C  
HETATM    4  C   UNL     1     -10.834  12.384  65.604  1.00  0.00    -0.312 C  
ENDROOT
BRANCH   2   5
HETATM    5  C   UNL     1     -12.247  14.343  66.678  1.00  0.00    -0.340 A  
HETATM    6  C   UNL     1     -12.674  13.771  67.924  1.00  0.00     0.927 A  
HETATM    7  C   UNL     1     -12.524  14.378  69.183  1.00  0.00    -0.010 A  
HETATM    8  C   UNL     1     -11.855  15.595  69.141  1.00  0.00    -0.378 A  
HETATM    9  C   UNL     1     -11.958  15.723  66.656  1.00  0.00     0.876 A  
HETATM   10  C   UNL     1     -11.659  16.282  67.918  1.00  0.00     0.059 A  
BRANCH   7  11
HETATM   11  C   UNL     1     -13.035  13.729  70.451  1.00  0.00    -0.048 A  
HETATM   12  C   UNL     1     -12.803  12.325  70.631  1.00  0.00    -0.014 A  
HETATM   13  C   UNL     1     -13.292  11.553  71.715  1.00  0.00    -0.356 A  
HETATM   14  C   UNL     1     -13.813  14.356  71.455  1.00  0.00    -0.337 A  
HETATM   15  C   UNL     1     -13.951  12.256  72.726  1.00  0.00     0.948 A  
HETATM   16  C   UNL     1     -14.199  13.629  72.601  1.00  0.00    -0.158 A  
BRANCH  13  17
HETATM   17  C   UNL     1     -13.193  10.060  71.734  1.00  0.00    -0.540 A  
HETATM   18  C   UNL     1     -12.415   9.363  72.680  1.00  0.00     0.037 A  
HETATM   19  C   UNL     1     -12.842   7.227  71.600  1.00  0.00    -0.415 A  
HETATM   20  C   UNL     1     -13.832   9.274  70.750  1.00  0.00     0.230 A  
HETATM   21  C   UNL     1     -12.239   7.969  72.620  1.00  0.00    -0.228 A  
HETATM   22  O   UNL     1     -13.525   5.019  71.033  1.00  0.00     6.362 OA 
HETATM   23  C   UNL     1     -13.665   7.881  70.684  1.00  0.00     0.640 A  
HETATM   24  C   UNL     1     -12.659   5.760  71.464  1.00  0.00     1.230 C  
HETATM   25  O   UNL     1     -11.425   5.332  71.808  1.00  0.00     0.031 OA 
ENDBRANCH  13  17
BRANCH  14  26
HETATM   26  O   UNL     1     -14.243  15.665  71.527  1.00  0.00    -0.508 OA 
BRANCH  26  27
HETATM   27  C   UNL     1     -14.296  16.267  72.820  1.00  0.00     0.574 C  
BRANCH  27  28
HETATM   28  C   UNL     1     -12.900  16.411  73.420  1.00  0.00    -0.295 C  
HETATM   29  O   UNL     1     -12.782  17.618  74.169  1.00  0.00     0.591 OA 
HETATM   30  H   UNL     1     -11.913  17.708  74.543  1.00  0.00     0.000 HD 
ENDBRANCH  27  28
ENDBRANCH  26  27
ENDBRANCH  14  26
ENDBRANCH   7  11
BRANCH   9  31
HETATM   31  N   UNL     1     -11.924  16.496  65.502  1.00  0.00     1.419 NA 
HETATM   32  C   UNL     1     -10.646  16.921  64.913  1.00  0.00     0.182 C  
HETATM   33  C   UNL     1     -12.405  17.369  63.350  1.00  0.00     9.621 C  
HETATM   34  C   UNL     1     -11.110  17.962  63.896  1.00  0.00     6.047 C  
HETATM   35  C   UNL     1     -12.797  16.259  64.343  1.00  0.00     2.279 C  
ENDBRANCH   9  31
ENDBRANCH   2   5
TORSDOF 7
ENDMDL
MODEL      144
REMARK 921   NORMALIZED FREE ENERGY PREDICTED BY IDOCK:   28.27 KCAL/MOL
REMARK 922        TOTAL FREE ENERGY PREDICTED BY IDOCK:   38.36 KCAL/MOL
REMARK 923 INTER-LIGAND FREE ENERGY PREDICTED BY IDOCK:   33.16 KCAL/MOL
REMARK 924 INTRA-LIGAND FREE ENERGY PREDICTED BY IDOCK:    5.20 KCAL/MOL
REMARK 927      BINDING AFFINITY PREDICTED BY RF-SCORE:    0.00 PKD
ROOT
HETATM    1  C   UNL     1      -7.676  11.962  67.640  1.00  0.00    -0.141 C  
HETATM    2  C   UNL     1      -8.302  11.647  66.263  1.00  0.00    -0.027 C  
HETATM    3  C   UNL     1      -7.503  12.426  65.167  1.00  0.00     4.251 C  
HETATM    4  C   UNL     1      -8.015  10.178  65.853  1.00  0.00    -0.134 C  
ENDROOT
BRANCH   2   5
HETATM    5  C   UNL     1      -9.797  12.089  66.247  1.00  0.00    -0.250 A  
HETATM    6  C   UNL     1     -10.046  13.465  66.576  1.00  0.00    -0.280 A  
HETATM    7  C   UNL     1     -11.212  14.175  66.241  1.00  0.00    -0.329 A  
HETATM    8  C   UNL     1     -12.120  13.439  65.488  1.00  0.00    -0.467 A  
HETATM    9  C   UNL     1     -10.898  11.300  65.856  1.00  0.00    -0.202 A  
HETATM   10  C   UNL     1     -12.006  12.031  65.377  1.00  0.00    -0.184 A  
BRANCH   7  11
HETATM   11  C   UNL     1     -11.421  15.616  66.656  1.00  0.00     0.144 A  
HETATM   12  C   UNL     1     -10.372  16.264  67.390  1.00  0.00    -0.285 A  
HETATM   13  C   UNL     1     -10.447  17.574  67.928  1.00  0.00    -0.384 A  
HETATM   14  C   UNL     1     -12.601  16.375  66.474  1.00  0.00     3.721 A  
HETATM   15  C   UNL     1     -11.592  18.307  67.610  1.00  0.00     1.267 A  
HETATM   16  C   UNL     1     -12.643  17.722  66.892  1.00  0.00     6.041 A  
BRANCH  13  17
HETATM   17  C   UNL     1      -9.404  18.111  68.857  1.00  0.00    -0.188 A  
HETATM   18  C   UNL     1      -9.393  19.450  69.295  1.00  0.00    -0.169 A  
HETATM   19  C   UNL     1      -7.273  19.158  70.446  1.00  0.00     0.925 A  
HETATM   20  C   UNL     1      -8.331  17.302  69.294  1.00  0.00     0.170 A  
HETATM   21  C   UNL     1      -8.347  19.971  70.077  1.00  0.00     1.047 A  
HETATM   22  O   UNL     1      -5.511  18.976  72.037  1.00  0.00    -0.494 OA 
HETATM   23  C   UNL     1      -7.285  17.812  70.079  1.00  0.00     1.091 A  
HETATM   24  C   UNL     1      -6.123  19.664  71.238  1.00  0.00    -0.007 C  
HETATM   25  O   UNL     1      -5.782  20.938  70.947  1.00  0.00    -0.555 OA 
ENDBRANCH  13  17
BRANCH  14  26
HETATM   26  O   UNL     1     -13.784  16.005  65.865  1.00  0.00     4.262 OA 
BRANCH  26  27
HETATM   27  C   UNL     1     -13.696  15.420  64.566  1.00  0.00     2.922 C  
BRANCH  27  28
HETATM   28  C   UNL     1     -12.253  15.383  64.073  1.00  0.00     0.051 C  
HETATM   29  O   UNL     1     -12.176  14.902  62.734  1.00  0.00     0.791 OA 
HETATM   30  H   UNL     1     -11.277  14.878  62.427  1.00  0.00     0.000 HD 
ENDBRANCH  27  28
ENDBRANCH  26  27
ENDBRANCH  14  26
ENDBRANCH   7  11
BRANCH   9  31
HETATM   31  N   UNL     1     -10.915   9.911  65.891  1.00  0.00     0.495 NA 
HETATM   32  C   UNL     1     -10.452   9.119  64.742  1.00  0.00     3.010 C  
HETATM   33  C   UNL     1     -10.719   7.665  66.626  1.00  0.00     0.049 C  
HETATM   34  C   UNL     1     -10.940   7.721  65.118  1.00  0.00     7.257 C  
HETATM   35  C   UNL     1     -10.502   9.125  67.063  1.00  0.00    -0.240 C  
ENDBRANCH   9  31
ENDBRANCH   2   5
TORSDOF 7
ENDMDL
MODEL      145
REMARK 921   NORMALIZED FREE ENERGY PREDICTED BY IDOCK:   37.60 KCAL/MOL
REMARK 922        TOTAL FREE ENERGY PREDICTED BY IDOCK:   51.52 KCAL/MOL
REMARK 923 INTER-LIGAND FREE ENERGY PREDICTED BY IDOCK:   52.98 KCAL/MOL
REMARK 924 INTRA-LIGAND FREE ENERGY PREDICTED BY IDOCK:   -1.46 KCAL/MOL
REMARK 927      BINDING AFFINITY PREDICTED BY RF-SCORE:    0.00 PKD
ROOT
HETATM    1  C   UNL     1     -10.263  19.694  69.356  1.00  0.00    -0.118 C  
HETATM    2  C   UNL     1      -9.240  18.627  69.809  1.00  0.00     0.879 C  
HETATM    3  C   UNL     1      -8.372  18.219  68.574  1.00  0.00    -0.327 C  
HETATM    4  C   UNL     1      -8.166  19.256  70.735  1.00  0.00     2.748 C  
ENDROOT
BRANCH   2   5
HETATM    5  C   UNL     1      -9.991  17.379  70.368  1.00  0.00     1.770 A  
HETATM    6  C   UNL     1     -10.163  16.289  69.450  1.00  0.00    -0.265 A  
HETATM    7  C   UNL     1     -10.424  14.958  69.819  1.00  0.00    -0.151 A  
HETATM    8  C   UNL     1     -10.448  14.752  71.193  1.00  0.00     0.916 A  
HETATM    9  C   UNL     1     -10.425  17.192  71.697  1.00  0.00     3.250 A  
HETATM   10  C   UNL     1     -10.533  15.842  72.095  1.00  0.00     1.927 A  
BRANCH   7  11
HETATM   11  C   UNL     1     -10.632  13.867  68.791  1.00  0.00    -0.258 A  
HETATM   12  C   UNL     1      -9.994  12.601  69.012  1.00  0.00     0.218 A  
HETATM   13  C   UNL     1     -10.015  11.511  68.105  1.00  0.00    -0.197 A  
HETATM   14  C   UNL     1     -11.328  13.997  67.565  1.00  0.00    -0.321 A  
HETATM   15  C   UNL     1     -10.816  11.667  66.971  1.00  0.00    -0.311 A  
HETATM   16  C   UNL     1     -11.464  12.881  66.711  1.00  0.00    -0.391 A  
BRANCH  13  17
HETATM   17  C   UNL     1      -9.159  10.300  68.300  1.00  0.00    -0.139 A  
HETATM   18  C   UNL     1      -8.114   9.958  67.419  1.00  0.00    -0.113 A  
HETATM   19  C   UNL     1      -7.696   7.861  68.574  1.00  0.00    -0.114 A  
HETATM   20  C   UNL     1      -9.405   9.396  69.357  1.00  0.00    -0.172 A  
HETATM   21  C   UNL     1      -7.390   8.760  67.548  1.00  0.00    -0.081 A  
HETATM   22  O   UNL     1      -6.784   6.050  69.821  1.00  0.00    -0.048 OA 
HETATM   23  C   UNL     1      -8.685   8.199  69.497  1.00  0.00    -0.142 A  
HETATM   24  C   UNL     1      -6.991   6.563  68.736  1.00  0.00    -0.080 C  
HETATM   25  O   UNL     1      -6.654   5.979  67.566  1.00  0.00    -0.052 OA 
ENDBRANCH  13  17
BRANCH  14  26
HETATM   26  O   UNL     1     -11.987  15.098  67.055  1.00  0.00    -0.147 OA 
BRANCH  26  27
HETATM   27  C   UNL     1     -11.233  15.989  66.234  1.00  0.00     0.159 C  
BRANCH  27  28
HETATM   28  C   UNL     1     -12.115  17.097  65.666  1.00  0.00     3.574 C  
HETATM   29  O   UNL     1     -13.118  17.489  66.600  1.00  0.00     7.442 OA 
HETATM   30  H   UNL     1     -13.668  18.178  66.246  1.00  0.00     0.000 HD 
ENDBRANCH  27  28
ENDBRANCH  26  27
ENDBRANCH  14  26
ENDBRANCH   7  11
BRANCH   9  31
HETATM   31  N   UNL     1     -10.699  18.226  72.583  1.00  0.00     2.738 NA 
HETATM   32  C   UNL     1     -12.033  18.843  72.637  1.00  0.00     8.520 C  
HETATM   33  C   UNL     1     -10.763  19.579  74.529  1.00  0.00     5.926 C  
HETATM   34  C   UNL     1     -11.763  20.079  73.492  1.00  0.00    11.162 C  
HETATM   35  C   UNL     1     -10.236  18.241  73.978  1.00  0.00     5.173 C  
ENDBRANCH   9  31
ENDBRANCH   2   5
TORSDOF 7
ENDMDL
MODEL      146
REMARK 921   NORMALIZED FREE ENERGY PREDICTED BY IDOCK:   42.56 KCAL/MOL
REMARK 922        TOTAL FREE ENERGY PREDICTED BY IDOCK:   58.51 KCAL/MOL
REMARK 923 INTER-LIGAND FREE ENERGY PREDICTED BY IDOCK:   54.44 KCAL/MOL
REMARK 924 INTRA-LIGAND FREE ENERGY PREDICTED BY IDOCK:    4.07 KCAL/MOL
REMARK 927      BINDING AFFINITY PREDICTED BY RF-SCORE:    0.00 PKD
ROOT
HETATM    1  C   UNL     1     -10.413  16.295  73.400  1.00  0.00     5.629 C  
HETATM    2  C   UNL     1     -10.143  14.805  73.093  1.00  0.00     5.381 C  
HETATM    3  C   UNL     1      -8.639  14.502  73.397  1.00  0.00     9.426 C  
HETATM    4  C   UNL     1     -10.847  13.893  74.132  1.00  0.00     6.027 C  
ENDROOT
BRANCH   2   5
HETATM    5  C   UNL     1     -10.452  14.510  71.592  1.00  0.00     2.349 A  
HETATM    6  C   UNL     1      -9.946  13.268  71.081  1.00  0.00     7.659 A  
HETATM    7  C   UNL     1     -10.425  12.613  69.932  1.00  0.00     1.253 A  
HETATM    8  C   UNL     1     -11.507  13.250  69.336  1.00  0.00    -0.323 A  
HETATM    9  C   UNL     1     -11.249  15.296  70.734  1.00  0.00    -0.318 A  
HETATM   10  C   UNL     1     -11.847  14.584  69.672  1.00  0.00    -0.367 A  
BRANCH   7  11
HETATM   11  C   UNL     1      -9.814  11.323  69.431  1.00  0.00     0.186 A  
HETATM   12  C   UNL     1     -10.027  10.132  70.202  1.00  0.00    -0.154 A  
HETATM   13  C   UNL     1      -9.451   8.867  69.920  1.00  0.00    -0.177 A  
HETATM   14  C   UNL     1      -8.961  11.183  68.310  1.00  0.00    -0.166 A  
HETATM   15  C   UNL     1      -8.717   8.774  68.736  1.00  0.00    -0.137 A  
HETATM   16  C   UNL     1      -8.483   9.907  67.944  1.00  0.00    -0.121 A  
BRANCH  13  17
HETATM   17  C   UNL     1      -9.544   7.721  70.877  1.00  0.00    -0.173 A  
HETATM   18  C   UNL     1     -10.701   6.928  71.002  1.00  0.00    -0.258 A  
HETATM   19  C   UNL     1      -9.768   5.690  72.875  1.00  0.00    -0.169 A  
HETATM   20  C   UNL     1      -8.482   7.420  71.759  1.00  0.00    -0.115 A  
HETATM   21  C   UNL     1     -10.818   5.926  71.983  1.00  0.00    -0.303 A  
HETATM   22  O   UNL     1      -8.886   4.040  74.346  1.00  0.00    -0.094 OA 
HETATM   23  C   UNL     1      -8.587   6.419  72.738  1.00  0.00    -0.125 A  
HETATM   24  C   UNL     1      -9.851   4.673  73.954  1.00  0.00    -0.145 C  
HETATM   25  O   UNL     1     -11.081   4.558  74.499  1.00  0.00    -0.203 OA 
ENDBRANCH  13  17
BRANCH  14  26
HETATM   26  O   UNL     1      -8.532  12.149  67.422  1.00  0.00    -0.156 OA 
BRANCH  26  27
HETATM   27  C   UNL     1      -7.987  11.702  66.181  1.00  0.00     0.173 C  
BRANCH  27  28
HETATM   28  C   UNL     1      -6.984  10.571  66.394  1.00  0.00    -0.124 C  
HETATM   29  O   UNL     1      -6.626   9.959  65.158  1.00  0.00    -0.091 OA 
HETATM   30  H   UNL     1      -6.002   9.255  65.290  1.00  0.00     0.000 HD 
ENDBRANCH  27  28
ENDBRANCH  26  27
ENDBRANCH  14  26
ENDBRANCH   7  11
BRANCH   9  31
HETATM   31  N   UNL     1     -11.481  16.654  70.908  1.00  0.00    -0.054 NA 
HETATM   32  C   UNL     1     -11.983  17.179  72.187  1.00  0.00     1.368 C  
HETATM   33  C   UNL     1     -11.260  19.014  70.829  1.00  0.00     4.738 C  
HETATM   34  C   UNL     1     -12.361  18.608  71.803  1.00  0.00    12.703 C  
HETATM   35  C   UNL     1     -10.568  17.700  70.421  1.00  0.00     1.320 C  
ENDBRANCH   9  31
ENDBRANCH   2   5
TORSDOF 7
ENDMDL
MODEL      147
REMARK 921   NORMALIZED FREE ENERGY PREDICTED BY IDOCK:   43.76 KCAL/MOL
REMARK 922        TOTAL FREE ENERGY PREDICTED BY IDOCK:   60.20 KCAL/MOL
REMARK 923 INTER-LIGAND FREE ENERGY PREDICTED BY IDOCK:   56.34 KCAL/MOL
REMARK 924 INTRA-LIGAND FREE ENERGY PREDICTED BY IDOCK:    3.86 KCAL/MOL
REMARK 927      BINDING AFFINITY PREDICTED BY RF-SCORE:    0.00 PKD
ROOT
HETATM    1  C   UNL     1     -10.354  11.878  63.384  1.00  0.00    -0.481 C  
HETATM    2  C   UNL     1      -9.439  12.078  64.614  1.00  0.00     0.106 C  
HETATM    3  C   UNL     1      -7.958  11.845  64.170  1.00  0.00     2.533 C  
HETATM    4  C   UNL     1      -9.396  13.572  65.028  1.00  0.00     0.780 C  
ENDROOT
BRANCH   2   5
HETATM    5  C   UNL     1      -9.827  11.061  65.732  1.00  0.00    -0.282 A  
HETATM    6  C   UNL     1      -8.867  10.895  66.786  1.00  0.00    -0.149 A  
HETATM    7  C   UNL     1      -9.152  10.375  68.061  1.00  0.00    -0.136 A  
HETATM    8  C   UNL     1     -10.495  10.076  68.256  1.00  0.00    -0.246 A  
HETATM    9  C   UNL     1     -11.052  10.373  65.847  1.00  0.00     0.451 A  
HETATM   10  C   UNL     1     -11.393   9.995  67.163  1.00  0.00     0.393 A  
BRANCH   7  11
HETATM   11  C   UNL     1      -8.078  10.193  69.112  1.00  0.00    -0.134 A  
HETATM   12  C   UNL     1      -7.898   8.886  69.673  1.00  0.00    -0.090 A  
HETATM   13  C   UNL     1      -7.002   8.568  70.726  1.00  0.00    -0.050 A  
HETATM   14  C   UNL     1      -7.279  11.217  69.675  1.00  0.00     0.036 A  
HETATM   15  C   UNL     1      -6.163   9.600  71.152  1.00  0.00    -0.046 A  
HETATM   16  C   UNL     1      -6.294  10.894  70.633  1.00  0.00     0.072 A  
BRANCH  13  17
HETATM   17  C   UNL     1      -7.015   7.235  71.404  1.00  0.00    -0.063 A  
HETATM   18  C   UNL     1      -5.961   6.791  72.226  1.00  0.00    -0.038 A  
HETATM   19  C   UNL     1      -6.968   4.596  72.497  1.00  0.00    -0.066 A  
HETATM   20  C   UNL     1      -8.072   6.321  71.196  1.00  0.00    -0.118 A  
HETATM   21  C   UNL     1      -5.931   5.494  72.768  1.00  0.00    -0.031 A  
HETATM   22  O   UNL     1      -7.990   2.605  73.308  1.00  0.00    -0.057 OA 
HETATM   23  C   UNL     1      -8.054   5.025  71.735  1.00  0.00    -0.115 A  
HETATM   24  C   UNL     1      -6.970   3.201  73.009  1.00  0.00    -0.039 C  
HETATM   25  O   UNL     1      -5.744   2.638  73.058  1.00  0.00     0.000 OA 
ENDBRANCH  13  17
BRANCH  14  26
HETATM   26  O   UNL     1      -7.267  12.566  69.384  1.00  0.00     0.070 OA 
BRANCH  26  27
HETATM   27  C   UNL     1      -8.512  13.173  69.041  1.00  0.00     0.433 C  
BRANCH  27  28
HETATM   28  C   UNL     1      -9.164  13.822  70.258  1.00  0.00     3.194 C  
HETATM   29  O   UNL     1      -9.555  12.844  71.218  1.00  0.00     8.613 OA 
HETATM   30  H   UNL     1      -9.961  13.248  71.976  1.00  0.00     0.000 HD 
ENDBRANCH  27  28
ENDBRANCH  26  27
ENDBRANCH  14  26
ENDBRANCH   7  11
BRANCH   9  31
HETATM   31  N   UNL     1     -11.900  10.103  64.780  1.00  0.00     4.070 NA 
HETATM   32  C   UNL     1     -13.361  10.161  64.940  1.00  0.00    12.839 C  
HETATM   33  C   UNL     1     -12.843  10.023  62.605  1.00  0.00     8.490 C  
HETATM   34  C   UNL     1     -13.836   9.508  63.643  1.00  0.00    14.068 C  
HETATM   35  C   UNL     1     -11.666  10.597  63.414  1.00  0.00     2.335 C  
ENDBRANCH   9  31
ENDBRANCH   2   5
TORSDOF 7
ENDMDL
MODEL      148
REMARK 921   NORMALIZED FREE ENERGY PREDICTED BY IDOCK:   44.45 KCAL/MOL
REMARK 922        TOTAL FREE ENERGY PREDICTED BY IDOCK:   61.16 KCAL/MOL
REMARK 923 INTER-LIGAND FREE ENERGY PREDICTED BY IDOCK:   61.22 KCAL/MOL
REMARK 924 INTRA-LIGAND FREE ENERGY PREDICTED BY IDOCK:   -0.06 KCAL/MOL
REMARK 927      BINDING AFFINITY PREDICTED BY RF-SCORE:    0.00 PKD
ROOT
HETATM    1  C   UNL     1     -11.939  16.026  70.321  1.00  0.00    -0.226 C  
HETATM    2  C   UNL     1     -11.802  14.569  69.823  1.00  0.00    -0.367 C  
HETATM    3  C   UNL     1     -13.226  13.925  69.784  1.00  0.00     1.093 C  
HETATM    4  C   UNL     1     -11.418  14.537  68.321  1.00  0.00    -0.336 C  
ENDROOT
BRANCH   2   5
HETATM    5  C   UNL     1     -10.880  13.765  70.791  1.00  0.00     1.683 A  
HETATM    6  C   UNL     1      -9.932  12.886  70.165  1.00  0.00     3.000 A  
HETATM    7  C   UNL     1      -8.766  12.392  70.776  1.00  0.00     8.643 A  
HETATM    8  C   UNL     1      -8.557  12.879  72.061  1.00  0.00    18.150 A  
HETATM    9  C   UNL     1     -10.830  13.890  72.194  1.00  0.00     4.394 A  
HETATM   10  C   UNL     1      -9.594  13.532  72.773  1.00  0.00    14.027 A  
BRANCH   7  11
HETATM   11  C   UNL     1      -7.832  11.436  70.066  1.00  0.00     1.360 A  
HETATM   12  C   UNL     1      -8.043  10.029  70.245  1.00  0.00    -0.010 A  
HETATM   13  C   UNL     1      -7.207   9.008  69.725  1.00  0.00    -0.056 A  
HETATM   14  C   UNL     1      -6.694  11.793  69.303  1.00  0.00    -0.110 A  
HETATM   15  C   UNL     1      -6.172   9.427  68.886  1.00  0.00    -0.043 A  
HETATM   16  C   UNL     1      -5.926  10.790  68.674  1.00  0.00    -0.039 A  
BRANCH  13  17
HETATM   17  C   UNL     1      -7.363   7.574  70.122  1.00  0.00    -0.077 A  
HETATM   18  C   UNL     1      -6.273   6.769  70.505  1.00  0.00    -0.031 A  
HETATM   19  C   UNL     1      -7.667   4.783  70.652  1.00  0.00    -0.065 A  
HETATM   20  C   UNL     1      -8.623   6.936  70.069  1.00  0.00    -0.141 A  
HETATM   21  C   UNL     1      -6.415   5.394  70.767  1.00  0.00    -0.035 A  
HETATM   22  O   UNL     1      -8.894   2.866  71.348  1.00  0.00    -0.074 OA 
HETATM   23  C   UNL     1      -8.776   5.566  70.333  1.00  0.00    -0.136 A  
HETATM   24  C   UNL     1      -7.869   3.329  70.879  1.00  0.00    -0.046 C  
HETATM   25  O   UNL     1      -6.836   2.565  70.463  1.00  0.00    -0.032 OA 
ENDBRANCH  13  17
BRANCH  14  26
HETATM   26  O   UNL     1      -6.208  13.051  69.009  1.00  0.00    -0.082 OA 
BRANCH  26  27
HETATM   27  C   UNL     1      -6.356  14.060  70.007  1.00  0.00    -0.118 C  
BRANCH  27  28
HETATM   28  C   UNL     1      -5.606  15.332  69.623  1.00  0.00    -0.106 C  
HETATM   29  O   UNL     1      -5.405  15.407  68.214  1.00  0.00    -0.098 OA 
HETATM   30  H   UNL     1      -4.938  16.199  67.974  1.00  0.00     0.000 HD 
ENDBRANCH  27  28
ENDBRANCH  26  27
ENDBRANCH  14  26
ENDBRANCH   7  11
BRANCH   9  31
HETATM   31  N   UNL     1     -11.880  14.358  72.975  1.00  0.00     0.244 NA 
HETATM   32  C   UNL     1     -12.233  13.700  74.242  1.00  0.00     4.791 C  
HETATM   33  C   UNL     1     -13.391  15.793  74.107  1.00  0.00     0.491 C  
HETATM   34  C   UNL     1     -13.581  14.348  74.556  1.00  0.00     6.068 C  
HETATM   35  C   UNL     1     -12.128  15.786  73.226  1.00  0.00    -0.495 C  
ENDBRANCH   9  31
ENDBRANCH   2   5
TORSDOF 7
ENDMDL
MODEL      149
REMARK 921   NORMALIZED FREE ENERGY PREDICTED BY IDOCK:   56.96 KCAL/MOL
REMARK 922        TOTAL FREE ENERGY PREDICTED BY IDOCK:   78.79 KCAL/MOL
REMARK 923 INTER-LIGAND FREE ENERGY PREDICTED BY IDOCK:   75.64 KCAL/MOL
REMARK 924 INTRA-LIGAND FREE ENERGY PREDICTED BY IDOCK:    3.15 KCAL/MOL
REMARK 927      BINDING AFFINITY PREDICTED BY RF-SCORE:    0.00 PKD
ROOT
HETATM    1  C   UNL     1     -12.470   5.021  68.318  1.00  0.00    11.851 C  
HETATM    2  C   UNL     1     -11.516   6.235  68.387  1.00  0.00     0.141 C  
HETATM    3  C   UNL     1     -12.335   7.479  68.867  1.00  0.00     3.077 C  
HETATM    4  C   UNL     1     -10.506   6.075  69.552  1.00  0.00    -0.330 C  
ENDROOT
BRANCH   2   5
HETATM    5  C   UNL     1     -10.908   6.510  66.977  1.00  0.00    -0.465 A  
HETATM    6  C   UNL     1     -10.296   7.797  66.799  1.00  0.00    -0.348 A  
HETATM    7  C   UNL     1      -9.356   8.111  65.802  1.00  0.00    -0.053 A  
HETATM    8  C   UNL     1      -9.003   7.030  65.004  1.00  0.00     0.453 A  
HETATM    9  C   UNL     1     -10.824   5.592  65.910  1.00  0.00     0.279 A  
HETATM   10  C   UNL     1      -9.772   5.840  65.002  1.00  0.00     0.781 A  
BRANCH   7  11
HETATM   11  C   UNL     1      -8.782   9.504  65.652  1.00  0.00    -0.173 A  
HETATM   12  C   UNL     1      -9.138  10.489  66.632  1.00  0.00    -0.172 A  
HETATM   13  C   UNL     1      -8.760  11.855  66.586  1.00  0.00    -0.185 A  
HETATM   14  C   UNL     1      -7.990   9.969  64.575  1.00  0.00    -0.148 A  
HETATM   15  C   UNL     1      -7.884  12.218  65.562  1.00  0.00     2.061 A  
HETATM   16  C   UNL     1      -7.501  11.293  64.582  1.00  0.00     1.132 A  
BRANCH  13  17
HETATM   17  C   UNL     1      -9.336  12.870  67.523  1.00  0.00    -0.190 A  
HETATM   18  C   UNL     1      -8.587  13.459  68.559  1.00  0.00    -0.074 A  
HETATM   19  C   UNL     1     -10.530  14.629  69.432  1.00  0.00    -0.175 A  
HETATM   20  C   UNL     1     -10.698  13.240  67.448  1.00  0.00    -0.266 A  
HETATM   21  C   UNL     1      -9.168  14.326  69.502  1.00  0.00     0.528 A  
HETATM   22  O   UNL     1     -12.138  16.237  70.136  1.00  0.00    -0.090 OA 
HETATM   23  C   UNL     1     -11.286  14.108  68.382  1.00  0.00    -0.315 A  
HETATM   24  C   UNL     1     -11.206  15.506  70.422  1.00  0.00    -0.337 C  
HETATM   25  O   UNL     1     -10.729  15.375  71.679  1.00  0.00    -0.081 OA 
ENDBRANCH  13  17
BRANCH  14  26
HETATM   26  O   UNL     1      -7.541   9.278  63.468  1.00  0.00    -0.102 OA 
BRANCH  26  27
HETATM   27  C   UNL     1      -6.142   9.321  63.192  1.00  0.00    -0.090 C  
BRANCH  27  28
HETATM   28  C   UNL     1      -5.586   7.923  62.934  1.00  0.00    -0.063 C  
HETATM   29  O   UNL     1      -6.587   6.926  63.122  1.00  0.00    -0.042 OA 
HETATM   30  H   UNL     1      -6.241   6.056  62.962  1.00  0.00     0.000 HD 
ENDBRANCH  27  28
ENDBRANCH  26  27
ENDBRANCH  14  26
ENDBRANCH   7  11
BRANCH   9  31
HETATM   31  N   UNL     1     -11.666   4.498  65.752  1.00  0.00     1.563 NA 
HETATM   32  C   UNL     1     -12.923   4.395  66.510  1.00  0.00    15.438 C  
HETATM   33  C   UNL     1     -12.916   2.727  64.790  1.00  0.00    14.425 C  
HETATM   34  C   UNL     1     -13.319   2.943  66.245  1.00  0.00    24.738 C  
HETATM   35  C   UNL     1     -11.980   3.900  64.445  1.00  0.00     2.875 C  
ENDBRANCH   9  31
ENDBRANCH   2   5
TORSDOF 7
ENDMDL
MODEL      150
REMARK 921   NORMALIZED FREE ENERGY PREDICTED BY IDOCK:   59.23 KCAL/MOL
REMARK 922        TOTAL FREE ENERGY PREDICTED BY IDOCK:   81.99 KCAL/MOL
REMARK 923 INTER-LIGAND FREE ENERGY PREDICTED BY IDOCK:   81.96 KCAL/MOL
REMARK 924 INTRA-LIGAND FREE ENERGY PREDICTED BY IDOCK:    0.04 KCAL/MOL
REMARK 927      BINDING AFFINITY PREDICTED BY RF-SCORE:    0.00 PKD
ROOT
HETATM    1  C   UNL     1     -10.101  11.878  68.370  1.00  0.00    -0.206 C  
HETATM    2  C   UNL     1     -10.535  12.736  69.580  1.00  0.00     0.520 C  
HETATM    3  C   UNL     1     -11.592  13.780  69.091  1.00  0.00    -0.363 C  
HETATM    4  C   UNL     1     -11.382  11.898  70.573  1.00  0.00     0.564 C  
ENDROOT
BRANCH   2   5
HETATM    5  C   UNL     1      -9.296  13.472  70.177  1.00  0.00     3.144 A  
HETATM    6  C   UNL     1      -9.299  14.903  70.055  1.00  0.00     0.416 A  
HETATM    7  C   UNL     1      -8.535  15.781  70.844  1.00  0.00     3.053 A  
HETATM    8  C   UNL     1      -7.790  15.144  71.829  1.00  0.00     4.440 A  
HETATM    9  C   UNL     1      -8.238  12.878  70.896  1.00  0.00     8.033 A  
HETATM   10  C   UNL     1      -7.582  13.743  71.799  1.00  0.00     6.143 A  
BRANCH   7  11
HETATM   11  C   UNL     1      -8.561  17.279  70.630  1.00  0.00     4.792 A  
HETATM   12  C   UNL     1      -9.186  17.780  69.440  1.00  0.00     0.369 A  
HETATM   13  C   UNL     1      -9.215  19.143  69.048  1.00  0.00    -0.302 A  
HETATM   14  C   UNL     1      -7.940  18.250  71.452  1.00  0.00     7.880 A  
HETATM   15  C   UNL     1      -8.687  20.058  69.962  1.00  0.00     1.113 A  
HETATM   16  C   UNL     1      -8.070  19.621  71.141  1.00  0.00     2.602 A  
BRANCH  13  17
HETATM   17  C   UNL     1      -9.697  19.571  67.698  1.00  0.00    -0.450 A  
HETATM   18  C   UNL     1     -11.058  19.796  67.414  1.00  0.00    -0.157 A  
HETATM   19  C   UNL     1     -10.604  20.162  65.054  1.00  0.00     0.497 A  
HETATM   20  C   UNL     1      -8.801  19.707  66.614  1.00  0.00    -0.403 A  
HETATM   21  C   UNL     1     -11.511  20.088  66.115  1.00  0.00     0.943 A  
HETATM   22  O   UNL     1     -10.347  21.046  62.860  1.00  0.00     6.407 OA 
HETATM   23  C   UNL     1      -9.244  20.003  65.315  1.00  0.00     0.892 A  
HETATM   24  C   UNL     1     -11.030  20.428  63.656  1.00  0.00     6.833 C  
HETATM   25  O   UNL     1     -12.218  19.872  63.335  1.00  0.00     7.996 OA 
ENDBRANCH  13  17
BRANCH  14  26
HETATM   26  O   UNL     1      -7.223  18.069  72.617  1.00  0.00     6.926 OA 
BRANCH  26  27
HETATM   27  C   UNL     1      -5.802  18.182  72.535  1.00  0.00     2.255 C  
BRANCH  27  28
HETATM   28  C   UNL     1      -5.378  19.619  72.243  1.00  0.00     0.247 C  
HETATM   29  O   UNL     1      -5.214  19.835  70.844  1.00  0.00    -0.206 OA 
HETATM   30  H   UNL     1      -4.950  20.730  70.662  1.00  0.00     0.000 HD 
ENDBRANCH  27  28
ENDBRANCH  26  27
ENDBRANCH  14  26
ENDBRANCH   7  11
BRANCH   9  31
HETATM   31  N   UNL     1      -7.866  11.545  70.779  1.00  0.00     3.404 NA 
HETATM   32  C   UNL     1      -6.455  11.142  70.876  1.00  0.00     0.771 C  
HETATM   33  C   UNL     1      -7.828   9.182  70.977  1.00  0.00    -0.152 C  
HETATM   34  C   UNL     1      -6.517   9.695  70.390  1.00  0.00    -0.088 C  
HETATM   35  C   UNL     1      -8.603  10.440  71.412  1.00  0.00     4.047 C  
ENDBRANCH   9  31
ENDBRANCH   2   5
TORSDOF 7
ENDMDL
MODEL      151
REMARK 921   NORMALIZED FREE ENERGY PREDICTED BY IDOCK:   62.42 KCAL/MOL
REMARK 922        TOTAL FREE ENERGY PREDICTED BY IDOCK:   86.50 KCAL/MOL
REMARK 923 INTER-LIGAND FREE ENERGY PREDICTED BY IDOCK:   76.22 KCAL/MOL
REMARK 924 INTRA-LIGAND FREE ENERGY PREDICTED BY IDOCK:   10.28 KCAL/MOL
REMARK 927      BINDING AFFINITY PREDICTED BY RF-SCORE:    0.00 PKD
ROOT
HETATM    1  C   UNL     1      -7.275   8.547  69.095  1.00  0.00    -0.068 C  
HETATM    2  C   UNL     1      -7.660  10.038  68.958  1.00  0.00    -0.090 C  
HETATM    3  C   UNL     1      -9.163  10.199  69.360  1.00  0.00    -0.229 C  
HETATM    4  C   UNL     1      -6.966  10.888  70.054  1.00  0.00    -0.036 C  
ENDROOT
BRANCH   2   5
HETATM    5  C   UNL     1      -7.450  10.505  67.484  1.00  0.00    -0.093 A  
HETATM    6  C   UNL     1      -7.321  11.922  67.289  1.00  0.00    -0.146 A  
HETATM    7  C   UNL     1      -6.736  12.530  66.164  1.00  0.00     2.195 A  
HETATM    8  C   UNL     1      -6.219  11.626  65.244  1.00  0.00     1.840 A  
HETATM    9  C   UNL     1      -7.285   9.671  66.359  1.00  0.00    -0.094 A  
HETATM   10  C   UNL     1      -6.559  10.252  65.298  1.00  0.00    -0.119 A  
BRANCH   7  11
HETATM   11  C   UNL     1      -6.669  14.034  66.010  1.00  0.00     5.845 A  
HETATM   12  C   UNL     1      -7.416  14.840  66.933  1.00  0.00     0.310 A  
HETATM   13  C   UNL     1      -7.532  16.252  66.870  1.00  0.00    -0.271 A  
HETATM   14  C   UNL     1      -6.010  14.739  64.975  1.00  0.00    16.062 A  
HETATM   15  C   UNL     1      -6.762  16.891  65.896  1.00  0.00     0.563 A  
HETATM   16  C   UNL     1      -6.012  16.151  64.973  1.00  0.00     7.894 A  
BRANCH  13  17
HETATM   17  C   UNL     1      -8.491  17.009  67.734  1.00  0.00    -0.199 A  
HETATM   18  C   UNL     1      -9.734  17.473  67.262  1.00  0.00    -0.276 A  
HETATM   19  C   UNL     1     -10.194  18.646  69.340  1.00  0.00     0.188 A  
HETATM   20  C   UNL     1      -8.160  17.352  69.064  1.00  0.00    -0.093 A  
HETATM   21  C   UNL     1     -10.577  18.279  68.047  1.00  0.00    -0.347 A  
HETATM   22  O   UNL     1     -11.072  19.420  71.413  1.00  0.00     3.355 OA 
HETATM   23  C   UNL     1      -8.997  18.153  69.857  1.00  0.00     1.549 A  
HETATM   24  C   UNL     1     -11.026  19.527  70.200  1.00  0.00     2.635 C  
HETATM   25  O   UNL     1     -11.679  20.493  69.518  1.00  0.00     2.678 OA 
ENDBRANCH  13  17
BRANCH  14  26
HETATM   26  O   UNL     1      -5.270  14.241  63.922  1.00  0.00    15.739 OA 
BRANCH  26  27
HETATM   27  C   UNL     1      -5.932  13.360  63.015  1.00  0.00    13.448 C  
BRANCH  27  28
HETATM   28  C   UNL     1      -6.333  12.058  63.702  1.00  0.00     4.922 C  
HETATM   29  O   UNL     1      -6.725  11.071  62.751  1.00  0.00    -0.359 OA 
HETATM   30  H   UNL     1      -6.974  10.260  63.179  1.00  0.00     0.000 HD 
ENDBRANCH  27  28
ENDBRANCH  26  27
ENDBRANCH  14  26
ENDBRANCH   7  11
BRANCH   9  31
HETATM   31  N   UNL     1      -7.754   8.365  66.279  1.00  0.00    -0.092 NA 
HETATM   32  C   UNL     1      -6.897   7.229  66.652  1.00  0.00    -0.065 C  
HETATM   33  C   UNL     1      -9.149   6.452  66.405  1.00  0.00    -0.168 C  
HETATM   34  C   UNL     1      -7.707   6.049  66.117  1.00  0.00    -0.102 C  
HETATM   35  C   UNL     1      -9.100   7.960  66.710  1.00  0.00    -0.156 C  
ENDBRANCH   9  31
ENDBRANCH   2   5
TORSDOF 7
ENDMDL
MODEL      152
REMARK 921   NORMALIZED FREE ENERGY PREDICTED BY IDOCK:   62.51 KCAL/MOL
REMARK 922        TOTAL FREE ENERGY PREDICTED BY IDOCK:   86.62 KCAL/MOL
REMARK 923 INTER-LIGAND FREE ENERGY PREDICTED BY IDOCK:   84.69 KCAL/MOL
REMARK 924 INTRA-LIGAND FREE ENERGY PREDICTED BY IDOCK:    1.93 KCAL/MOL
REMARK 927      BINDING AFFINITY PREDICTED BY RF-SCORE:    0.00 PKD
ROOT
HETATM    1  C   UNL     1      -5.872  12.384  65.462  1.00  0.00     4.188 C  
HETATM    2  C   UNL     1      -7.006  11.428  65.898  1.00  0.00     0.344 C  
HETATM    3  C   UNL     1      -7.654  10.813  64.615  1.00  0.00     0.265 C  
HETATM    4  C   UNL     1      -6.424  10.160  66.576  1.00  0.00    -0.076 C  
ENDROOT
BRANCH   2   5
HETATM    5  C   UNL     1      -8.078  12.216  66.711  1.00  0.00    -0.055 A  
HETATM    6  C   UNL     1      -8.437  11.655  67.983  1.00  0.00    -0.151 A  
HETATM    7  C   UNL     1      -9.042  12.364  69.036  1.00  0.00     0.449 A  
HETATM    8  C   UNL     1      -9.223  13.716  68.768  1.00  0.00     0.046 A  
HETATM    9  C   UNL     1      -8.649  13.457  66.358  1.00  0.00     0.358 A  
HETATM   10  C   UNL     1      -9.112  14.223  67.450  1.00  0.00    -0.199 A  
BRANCH   7  11
HETATM   11  C   UNL     1      -9.427  11.694  70.337  1.00  0.00     3.968 A  
HETATM   12  C   UNL     1      -8.986  10.347  70.558  1.00  0.00     1.173 A  
HETATM   13  C   UNL     1      -9.336   9.551  71.678  1.00  0.00     0.655 A  
HETATM   14  C   UNL     1     -10.269  12.236  71.338  1.00  0.00     9.385 A  
HETATM   15  C   UNL     1     -10.072  10.186  72.680  1.00  0.00     6.497 A  
HETATM   16  C   UNL     1     -10.522  11.502  72.517  1.00  0.00    13.578 A  
BRANCH  13  17
HETATM   17  C   UNL     1      -9.017   8.090  71.744  1.00  0.00    -0.194 A  
HETATM   18  C   UNL     1      -7.807   7.601  72.276  1.00  0.00    -0.116 A  
HETATM   19  C   UNL     1      -8.343   5.315  71.645  1.00  0.00    -0.118 A  
HETATM   20  C   UNL     1      -9.900   7.126  71.210  1.00  0.00    -0.178 A  
HETATM   21  C   UNL     1      -7.470   6.236  72.230  1.00  0.00    -0.094 A  
HETATM   22  O   UNL     1      -8.869   2.995  71.590  1.00  0.00    -0.072 OA 
HETATM   23  C   UNL     1      -9.574   5.762  71.163  1.00  0.00    -0.201 A  
HETATM   24  C   UNL     1      -8.023   3.869  71.534  1.00  0.00    -0.065 C  
HETATM   25  O   UNL     1      -6.715   3.619  71.307  1.00  0.00    -0.029 OA 
ENDBRANCH  13  17
BRANCH  14  26
HETATM   26  O   UNL     1     -10.886  13.470  71.377  1.00  0.00     2.858 OA 
BRANCH  26  27
HETATM   27  C   UNL     1     -10.849  14.258  70.187  1.00  0.00     0.228 C  
BRANCH  27  28
HETATM   28  C   UNL     1     -12.252  14.493  69.636  1.00  0.00    -0.292 C  
HETATM   29  O   UNL     1     -12.344  14.095  68.271  1.00  0.00    -0.574 OA 
HETATM   30  H   UNL     1     -13.218  14.241  67.927  1.00  0.00     0.000 HD 
ENDBRANCH  27  28
ENDBRANCH  26  27
ENDBRANCH  14  26
ENDBRANCH   7  11
BRANCH   9  31
HETATM   31  N   UNL     1      -8.733  13.937  65.057  1.00  0.00     2.652 NA 
HETATM   32  C   UNL     1      -9.928  13.692  64.236  1.00  0.00     0.535 C  
HETATM   33  C   UNL     1      -8.560  15.328  63.145  1.00  0.00    20.767 C  
HETATM   34  C   UNL     1      -9.439  14.116  62.852  1.00  0.00    11.329 C  
HETATM   35  C   UNL     1      -8.288  15.281  64.660  1.00  0.00     7.828 C  
ENDBRANCH   9  31
ENDBRANCH   2   5
TORSDOF 7
ENDMDL
MODEL      153
REMARK 921   NORMALIZED FREE ENERGY PREDICTED BY IDOCK:   70.00 KCAL/MOL
REMARK 922        TOTAL FREE ENERGY PREDICTED BY IDOCK:   97.18 KCAL/MOL
REMARK 923 INTER-LIGAND FREE ENERGY PREDICTED BY IDOCK:   95.32 KCAL/MOL
REMARK 924 INTRA-LIGAND FREE ENERGY PREDICTED BY IDOCK:    1.86 KCAL/MOL
REMARK 927      BINDING AFFINITY PREDICTED BY RF-SCORE:    0.00 PKD
ROOT
HETATM    1  C   UNL     1     -12.003  14.122  64.175  1.00  0.00    -0.421 C  
HETATM    2  C   UNL     1     -11.614  13.449  65.510  1.00  0.00    -0.346 C  
HETATM    3  C   UNL     1     -12.731  12.421  65.888  1.00  0.00     0.850 C  
HETATM    4  C   UNL     1     -10.396  12.508  65.317  1.00  0.00    -0.310 C  
ENDROOT
BRANCH   2   5
HETATM    5  C   UNL     1     -11.484  14.529  66.628  1.00  0.00    -0.373 A  
HETATM    6  C   UNL     1     -11.301  14.029  67.962  1.00  0.00    -0.320 A  
HETATM    7  C   UNL     1     -10.767  14.768  69.033  1.00  0.00    -0.251 A  
HETATM    8  C   UNL     1     -10.357  16.048  68.681  1.00  0.00    -0.241 A  
HETATM    9  C   UNL     1     -11.436  15.925  66.439  1.00  0.00     0.361 A  
HETATM   10  C   UNL     1     -10.758  16.634  67.455  1.00  0.00    -0.253 A  
BRANCH   7  11
HETATM   11  C   UNL     1     -10.640  14.185  70.424  1.00  0.00     0.871 A  
HETATM   12  C   UNL     1     -10.180  12.832  70.550  1.00  0.00     4.141 A  
HETATM   13  C   UNL     1     -10.093  12.113  71.768  1.00  0.00    12.731 A  
HETATM   14  C   UNL     1     -11.024  14.816  71.632  1.00  0.00     0.592 A  
HETATM   15  C   UNL     1     -10.375  12.833  72.931  1.00  0.00    16.330 A  
HETATM   16  C   UNL     1     -10.824  14.158  72.864  1.00  0.00     3.897 A  
BRANCH  13  17
HETATM   17  C   UNL     1      -9.806  10.645  71.805  1.00  0.00     6.192 A  
HETATM   18  C   UNL     1      -8.771  10.054  71.053  1.00  0.00     1.294 A  
HETATM   19  C   UNL     1      -9.434   7.813  71.721  1.00  0.00    -0.191 A  
HETATM   20  C   UNL     1     -10.613   9.762  72.557  1.00  0.00     2.848 A  
HETATM   21  C   UNL     1      -8.582   8.662  71.007  1.00  0.00    -0.211 A  
HETATM   22  O   UNL     1      -9.572   5.617  72.627  1.00  0.00    -0.150 OA 
HETATM   23  C   UNL     1     -10.430   8.371  72.521  1.00  0.00    -0.372 A  
HETATM   24  C   UNL     1      -9.306   6.334  71.679  1.00  0.00    -0.147 C  
HETATM   25  O   UNL     1      -8.924   5.855  70.475  1.00  0.00    -0.141 OA 
ENDBRANCH  13  17
BRANCH  14  26
HETATM   26  O   UNL     1     -11.551  16.078  71.821  1.00  0.00    -0.444 OA 
BRANCH  26  27
HETATM   27  C   UNL     1     -11.147  16.788  72.991  1.00  0.00     1.982 C  
BRANCH  27  28
HETATM   28  C   UNL     1      -9.655  17.107  72.957  1.00  0.00    12.274 C  
HETATM   29  O   UNL     1      -9.386  18.382  73.534  1.00  0.00     7.227 OA 
HETATM   30  H   UNL     1      -8.458  18.581  73.513  1.00  0.00     0.000 HD 
ENDBRANCH  27  28
ENDBRANCH  26  27
ENDBRANCH  14  26
ENDBRANCH   7  11
BRANCH   9  31
HETATM   31  N   UNL     1     -11.970  16.583  65.339  1.00  0.00     1.246 NA 
HETATM   32  C   UNL     1     -11.101  17.099  64.270  1.00  0.00     1.561 C  
HETATM   33  C   UNL     1     -13.377  17.184  63.526  1.00  0.00    10.663 C  
HETATM   34  C   UNL     1     -12.073  17.975  63.483  1.00  0.00    11.390 C  
HETATM   35  C   UNL     1     -13.182  16.135  64.636  1.00  0.00     3.040 C  
ENDBRANCH   9  31
ENDBRANCH   2   5
TORSDOF 7
ENDMDL
MODEL      154
REMARK 921   NORMALIZED FREE ENERGY PREDICTED BY IDOCK:   84.99 KCAL/MOL
REMARK 922        TOTAL FREE ENERGY PREDICTED BY IDOCK:  118.30 KCAL/MOL
REMARK 923 INTER-LIGAND FREE ENERGY PREDICTED BY IDOCK:  103.59 KCAL/MOL
REMARK 924 INTRA-LIGAND FREE ENERGY PREDICTED BY IDOCK:   14.71 KCAL/MOL
REMARK 927      BINDING AFFINITY PREDICTED BY RF-SCORE:    0.00 PKD
ROOT
HETATM    1  C   UNL     1      -7.343  13.544  66.473  1.00  0.00     1.697 C  
HETATM    2  C   UNL     1      -7.842  13.758  65.026  1.00  0.00     8.285 C  
HETATM    3  C   UNL     1      -7.178  15.057  64.462  1.00  0.00    16.518 C  
HETATM    4  C   UNL     1      -7.249  12.684  64.076  1.00  0.00     9.349 C  
ENDROOT
BRANCH   2   5
HETATM    5  C   UNL     1      -9.395  13.907  65.018  1.00  0.00     0.924 A  
HETATM    6  C   UNL     1      -9.920  15.023  65.753  1.00  0.00    -0.376 A  
HETATM    7  C   UNL     1     -11.195  15.586  65.562  1.00  0.00    -0.188 A  
HETATM    8  C   UNL     1     -11.917  14.997  64.531  1.00  0.00    -0.379 A  
HETATM    9  C   UNL     1     -10.306  13.113  64.292  1.00  0.00    -0.339 A  
HETATM   10  C   UNL     1     -11.524  13.754  63.978  1.00  0.00    -0.244 A  
BRANCH   7  11
HETATM   11  C   UNL     1     -11.695  16.740  66.403  1.00  0.00     1.609 A  
HETATM   12  C   UNL     1     -10.783  17.345  67.329  1.00  0.00    -0.219 A  
HETATM   13  C   UNL     1     -11.118  18.371  68.249  1.00  0.00     0.452 A  
HETATM   14  C   UNL     1     -13.022  17.234  66.438  1.00  0.00     8.366 A  
HETATM   15  C   UNL     1     -12.411  18.891  68.148  1.00  0.00     4.982 A  
HETATM   16  C   UNL     1     -13.340  18.339  67.256  1.00  0.00     9.183 A  
BRANCH  13  17
HETATM   17  C   UNL     1     -10.178  18.811  69.326  1.00  0.00     0.043 A  
HETATM   18  C   UNL     1      -9.892  18.018  70.455  1.00  0.00     2.502 A  
HETATM   19  C   UNL     1      -8.558  19.776  71.473  1.00  0.00     3.078 A  
HETATM   20  C   UNL     1      -9.574  20.087  69.291  1.00  0.00    -0.009 A  
HETATM   21  C   UNL     1      -9.096  18.487  71.515  1.00  0.00     8.016 A  
HETATM   22  O   UNL     1      -6.829  21.123  72.400  1.00  0.00     1.638 OA 
HETATM   23  C   UNL     1      -8.774  20.563  70.342  1.00  0.00     1.966 A  
HETATM   24  C   UNL     1      -7.743  20.338  72.580  1.00  0.00     2.872 C  
HETATM   25  O   UNL     1      -8.147  19.943  73.807  1.00  0.00     3.636 OA 
ENDBRANCH  13  17
BRANCH  14  26
HETATM   26  O   UNL     1     -14.121  16.818  65.714  1.00  0.00     8.238 OA 
BRANCH  26  27
HETATM   27  C   UNL     1     -13.935  16.585  64.318  1.00  0.00     6.509 C  
BRANCH  27  28
HETATM   28  C   UNL     1     -12.458  16.640  63.940  1.00  0.00     3.263 C  
HETATM   29  O   UNL     1     -11.769  17.635  64.692  1.00  0.00     0.399 OA 
HETATM   30  H   UNL     1     -10.849  17.669  64.457  1.00  0.00     0.000 HD 
ENDBRANCH  27  28
ENDBRANCH  26  27
ENDBRANCH  14  26
ENDBRANCH   7  11
BRANCH   9  31
HETATM   31  N   UNL     1     -10.049  11.814  63.871  1.00  0.00    -0.338 NA 
HETATM   32  C   UNL     1      -9.562  10.795  64.814  1.00  0.00    -0.262 C  
HETATM   33  C   UNL     1     -10.215   9.717  62.777  1.00  0.00     2.003 C  
HETATM   34  C   UNL     1      -9.145   9.675  63.863  1.00  0.00    -0.229 C  
HETATM   35  C   UNL     1     -10.927  11.071  62.955  1.00  0.00     0.648 C  
ENDBRANCH   9  31
ENDBRANCH   2   5
TORSDOF 7
ENDMDL
