MODEL        1
REMARK 921   NORMALIZED FREE ENERGY PREDICTED BY IDOCK:   -6.20 KCAL/MOL
REMARK 922        TOTAL FREE ENERGY PREDICTED BY IDOCK:   -7.16 KCAL/MOL
REMARK 923 INTER-LIGAND FREE ENERGY PREDICTED BY IDOCK:   -6.92 KCAL/MOL
REMARK 924 INTRA-LIGAND FREE ENERGY PREDICTED BY IDOCK:   -0.24 KCAL/MOL
REMARK 927      BINDING AFFINITY PREDICTED BY RF-SCORE:    0.00 PKD
ROOT
HETATM    1  C   UNL     1     -10.797  12.461  63.346  1.00  0.00    -0.417 C  
HETATM    2  C   UNL     1     -12.254  12.627  63.649  1.00  0.00    -0.536 C  
HETATM    3  O   UNL     1     -13.134  11.871  63.265  1.00  0.00    -0.674 OA 
ENDROOT
BRANCH   2   4
HETATM    4  O   UNL     1     -12.441  13.798  64.397  1.00  0.00    -0.601 OA 
BRANCH   4   5
HETATM    5  C   UNL     1     -11.744  13.874  65.624  1.00  0.00    -0.354 A  
HETATM    6  C   UNL     1     -11.084  15.049  66.011  1.00  0.00    -0.329 A  
HETATM    7  C   UNL     1     -10.479  15.078  67.281  1.00  0.00    -0.265 A  
HETATM    8  C   UNL     1     -10.967  16.300  65.202  1.00  0.00    -0.274 C  
HETATM    9  O   UNL     1     -11.583  16.295  64.005  1.00  0.00    -0.953 OA 
HETATM   10  C   UNL     1     -10.519  13.968  68.134  1.00  0.00    -0.243 A  
HETATM   11  O   UNL     1     -10.345  17.276  65.595  1.00  0.00    -0.580 OA 
HETATM   12  C   UNL     1     -11.183  12.802  67.744  1.00  0.00    -0.317 A  
HETATM   13  C   UNL     1     -11.822  12.780  66.498  1.00  0.00    -0.471 A  
HETATM   14  C   UNL     1     -11.217  11.567  68.612  1.00  0.00    -0.248 C  
HETATM   15  F   UNL     1     -12.488  11.206  68.941  1.00  0.00    -0.355 F  
HETATM   16  F   UNL     1     -10.672  10.487  67.990  1.00  0.00    -0.207 F  
HETATM   17  F   UNL     1     -10.547  11.705  69.786  1.00  0.00    -0.099 F  
ENDBRANCH   4   5
ENDBRANCH   2   4
TORSDOF 2
ENDMDL
MODEL        2
REMARK 921   NORMALIZED FREE ENERGY PREDICTED BY IDOCK:   -6.20 KCAL/MOL
REMARK 922        TOTAL FREE ENERGY PREDICTED BY IDOCK:   -7.16 KCAL/MOL
REMARK 923 INTER-LIGAND FREE ENERGY PREDICTED BY IDOCK:   -6.78 KCAL/MOL
REMARK 924 INTRA-LIGAND FREE ENERGY PREDICTED BY IDOCK:   -0.38 KCAL/MOL
REMARK 927      BINDING AFFINITY PREDICTED BY RF-SCORE:    0.00 PKD
ROOT
HETATM    1  C   UNL     1     -11.306  10.044  70.915  1.00  0.00    -0.439 C  
HETATM    2  C   UNL     1     -12.629  10.618  71.320  1.00  0.00    -0.427 C  
HETATM    3  O   UNL     1     -13.266  10.269  72.303  1.00  0.00    -0.409 OA 
ENDROOT
BRANCH   2   4
HETATM    4  O   UNL     1     -13.027  11.575  70.378  1.00  0.00    -0.015 OA 
BRANCH   4   5
HETATM    5  C   UNL     1     -12.440  12.855  70.499  1.00  0.00    -0.217 A  
HETATM    6  C   UNL     1     -11.733  13.433  69.436  1.00  0.00    -0.382 A  
HETATM    7  C   UNL     1     -11.243  14.742  69.601  1.00  0.00    -0.305 A  
HETATM    8  C   UNL     1     -11.451  12.792  68.115  1.00  0.00    -0.314 C  
HETATM    9  O   UNL     1     -11.955  11.558  67.932  1.00  0.00    -0.618 OA 
HETATM   10  C   UNL     1     -11.442  15.449  70.794  1.00  0.00    -0.385 A  
HETATM   11  O   UNL     1     -10.797  13.349  67.246  1.00  0.00    -0.264 OA 
HETATM   12  C   UNL     1     -12.152  14.869  71.848  1.00  0.00    -0.435 A  
HETATM   13  C   UNL     1     -12.676  13.582  71.675  1.00  0.00    -0.380 A  
HETATM   14  C   UNL     1     -12.355  15.577  73.166  1.00  0.00    -0.459 C  
HETATM   15  F   UNL     1     -13.674  15.756  73.455  1.00  0.00    -0.571 F  
HETATM   16  F   UNL     1     -11.837  14.876  74.211  1.00  0.00    -0.618 F  
HETATM   17  F   UNL     1     -11.785  16.809  73.219  1.00  0.00    -0.542 F  
ENDBRANCH   4   5
ENDBRANCH   2   4
TORSDOF 2
ENDMDL
MODEL        3
REMARK 921   NORMALIZED FREE ENERGY PREDICTED BY IDOCK:   -6.10 KCAL/MOL
REMARK 922        TOTAL FREE ENERGY PREDICTED BY IDOCK:   -7.05 KCAL/MOL
REMARK 923 INTER-LIGAND FREE ENERGY PREDICTED BY IDOCK:   -6.99 KCAL/MOL
REMARK 924 INTRA-LIGAND FREE ENERGY PREDICTED BY IDOCK:   -0.05 KCAL/MOL
REMARK 927      BINDING AFFINITY PREDICTED BY RF-SCORE:    0.00 PKD
ROOT
HETATM    1  C   UNL     1     -12.220  12.589  63.631  1.00  0.00    -0.642 C  
HETATM    2  C   UNL     1     -12.036  13.951  64.226  1.00  0.00    -0.440 C  
HETATM    3  O   UNL     1     -12.688  14.938  63.916  1.00  0.00    -0.789 OA 
ENDROOT
BRANCH   2   4
HETATM    4  O   UNL     1     -10.984  13.915  65.151  1.00  0.00    -0.319 OA 
BRANCH   4   5
HETATM    5  C   UNL     1     -11.010  14.895  66.168  1.00  0.00    -0.334 A  
HETATM    6  C   UNL     1     -11.405  14.576  67.474  1.00  0.00    -0.355 A  
HETATM    7  C   UNL     1     -11.330  15.584  68.453  1.00  0.00    -0.357 A  
HETATM    8  C   UNL     1     -11.894  13.243  67.944  1.00  0.00    -0.349 C  
HETATM    9  O   UNL     1     -11.925  12.262  67.024  1.00  0.00    -0.576 OA 
HETATM   10  C   UNL     1     -10.888  16.874  68.137  1.00  0.00    -0.351 A  
HETATM   11  O   UNL     1     -12.252  13.049  69.096  1.00  0.00    -0.225 OA 
HETATM   12  C   UNL     1     -10.490  17.186  66.834  1.00  0.00    -0.274 A  
HETATM   13  C   UNL     1     -10.524  16.176  65.865  1.00  0.00    -0.366 A  
HETATM   14  C   UNL     1     -10.046  18.573  66.438  1.00  0.00    -0.405 C  
HETATM   15  F   UNL     1      -8.772  18.586  65.957  1.00  0.00    -0.278 F  
HETATM   16  F   UNL     1     -10.822  19.100  65.453  1.00  0.00    -0.535 F  
HETATM   17  F   UNL     1     -10.074  19.469  67.460  1.00  0.00    -0.399 F  
ENDBRANCH   4   5
ENDBRANCH   2   4
TORSDOF 2
ENDMDL
MODEL        4
REMARK 921   NORMALIZED FREE ENERGY PREDICTED BY IDOCK:   -6.10 KCAL/MOL
REMARK 922        TOTAL FREE ENERGY PREDICTED BY IDOCK:   -7.05 KCAL/MOL
REMARK 923 INTER-LIGAND FREE ENERGY PREDICTED BY IDOCK:   -6.70 KCAL/MOL
REMARK 924 INTRA-LIGAND FREE ENERGY PREDICTED BY IDOCK:   -0.35 KCAL/MOL
REMARK 927      BINDING AFFINITY PREDICTED BY RF-SCORE:    0.00 PKD
ROOT
HETATM    1  C   UNL     1      -9.088  16.238  68.712  1.00  0.00    -0.245 C  
HETATM    2  C   UNL     1     -10.294  17.124  68.657  1.00  0.00    -0.359 C  
HETATM    3  O   UNL     1     -10.297  18.312  68.945  1.00  0.00    -0.345 OA 
ENDROOT
BRANCH   2   4
HETATM    4  O   UNL     1     -11.408  16.368  68.268  1.00  0.00    -0.350 OA 
BRANCH   4   5
HETATM    5  C   UNL     1     -11.832  15.368  69.172  1.00  0.00    -0.335 A  
HETATM    6  C   UNL     1     -11.921  14.025  68.780  1.00  0.00    -0.382 A  
HETATM    7  C   UNL     1     -12.275  13.074  69.755  1.00  0.00    -0.242 A  
HETATM    8  C   UNL     1     -11.661  13.490  67.409  1.00  0.00    -0.380 C  
HETATM    9  O   UNL     1     -11.279  14.388  66.482  1.00  0.00    -0.324 OA 
HETATM   10  C   UNL     1     -12.544  13.450  71.077  1.00  0.00    -0.425 A  
HETATM   11  O   UNL     1     -11.792  12.307  67.134  1.00  0.00    -0.511 OA 
HETATM   12  C   UNL     1     -12.448  14.790  71.463  1.00  0.00    -0.403 A  
HETATM   13  C   UNL     1     -12.058  15.736  70.508  1.00  0.00    -0.407 A  
HETATM   14  C   UNL     1     -12.769  15.247  72.865  1.00  0.00    -0.421 C  
HETATM   15  F   UNL     1     -11.703  15.847  73.465  1.00  0.00    -0.484 F  
HETATM   16  F   UNL     1     -13.775  16.163  72.890  1.00  0.00    -0.606 F  
HETATM   17  F   UNL     1     -13.153  14.242  73.695  1.00  0.00    -0.480 F  
ENDBRANCH   4   5
ENDBRANCH   2   4
TORSDOF 2
ENDMDL
MODEL        5
REMARK 921   NORMALIZED FREE ENERGY PREDICTED BY IDOCK:   -6.04 KCAL/MOL
REMARK 922        TOTAL FREE ENERGY PREDICTED BY IDOCK:   -6.99 KCAL/MOL
REMARK 923 INTER-LIGAND FREE ENERGY PREDICTED BY IDOCK:   -6.67 KCAL/MOL
REMARK 924 INTRA-LIGAND FREE ENERGY PREDICTED BY IDOCK:   -0.32 KCAL/MOL
REMARK 927      BINDING AFFINITY PREDICTED BY RF-SCORE:    0.00 PKD
ROOT
HETATM    1  C   UNL     1      -9.989  18.780  68.545  1.00  0.00    -0.450 C  
HETATM    2  C   UNL     1      -9.918  17.286  68.623  1.00  0.00    -0.327 C  
HETATM    3  O   UNL     1      -8.918  16.654  68.931  1.00  0.00    -0.250 OA 
ENDROOT
BRANCH   2   4
HETATM    4  O   UNL     1     -11.155  16.743  68.250  1.00  0.00    -0.361 OA 
BRANCH   4   5
HETATM    5  C   UNL     1     -11.600  15.628  68.996  1.00  0.00    -0.386 A  
HETATM    6  C   UNL     1     -11.654  14.349  68.426  1.00  0.00    -0.351 A  
HETATM    7  C   UNL     1     -12.031  13.272  69.250  1.00  0.00    -0.354 A  
HETATM    8  C   UNL     1     -11.333  14.003  67.007  1.00  0.00    -0.330 C  
HETATM    9  O   UNL     1     -10.928  15.020  66.223  1.00  0.00    -0.332 OA 
HETATM   10  C   UNL     1     -12.356  13.467  70.598  1.00  0.00    -0.432 A  
HETATM   11  O   UNL     1     -11.435  12.866  66.573  1.00  0.00    -0.307 OA 
HETATM   12  C   UNL     1     -12.295  14.744  71.162  1.00  0.00    -0.397 A  
HETATM   13  C   UNL     1     -11.882  15.813  70.358  1.00  0.00    -0.391 A  
HETATM   14  C   UNL     1     -12.677  15.008  72.599  1.00  0.00    -0.376 C  
HETATM   15  F   UNL     1     -11.644  15.533  73.316  1.00  0.00    -0.515 F  
HETATM   16  F   UNL     1     -13.696  15.903  72.704  1.00  0.00    -0.547 F  
HETATM   17  F   UNL     1     -13.078  13.897  73.271  1.00  0.00    -0.563 F  
ENDBRANCH   4   5
ENDBRANCH   2   4
TORSDOF 2
ENDMDL
MODEL        6
REMARK 921   NORMALIZED FREE ENERGY PREDICTED BY IDOCK:   -5.91 KCAL/MOL
REMARK 922        TOTAL FREE ENERGY PREDICTED BY IDOCK:   -6.84 KCAL/MOL
REMARK 923 INTER-LIGAND FREE ENERGY PREDICTED BY IDOCK:   -6.49 KCAL/MOL
REMARK 924 INTRA-LIGAND FREE ENERGY PREDICTED BY IDOCK:   -0.35 KCAL/MOL
REMARK 927      BINDING AFFINITY PREDICTED BY RF-SCORE:    0.00 PKD
ROOT
HETATM    1  C   UNL     1     -12.262   9.900  71.127  1.00  0.00    -0.468 C  
HETATM    2  C   UNL     1     -11.594  10.766  70.105  1.00  0.00    -0.337 C  
HETATM    3  O   UNL     1     -10.409  10.705  69.811  1.00  0.00    -0.205 OA 
ENDROOT
BRANCH   2   4
HETATM    4  O   UNL     1     -12.528  11.671  69.582  1.00  0.00    -0.136 OA 
BRANCH   4   5
HETATM    5  C   UNL     1     -12.235  13.043  69.754  1.00  0.00    -0.177 A  
HETATM    6  C   UNL     1     -11.873  13.849  68.666  1.00  0.00    -0.407 A  
HETATM    7  C   UNL     1     -11.672  15.222  68.898  1.00  0.00    -0.362 A  
HETATM    8  C   UNL     1     -11.687  13.391  67.254  1.00  0.00    -0.380 C  
HETATM    9  O   UNL     1     -11.921  12.087  67.016  1.00  0.00    -0.609 OA 
HETATM   10  C   UNL     1     -11.816  15.773  70.178  1.00  0.00    -0.369 A  
HETATM   11  O   UNL     1     -11.338  14.150  66.363  1.00  0.00    -0.320 OA 
HETATM   12  C   UNL     1     -12.182  14.965  71.257  1.00  0.00    -0.383 A  
HETATM   13  C   UNL     1     -12.422  13.605  71.025  1.00  0.00    -0.456 A  
HETATM   14  C   UNL     1     -12.308  15.507  72.661  1.00  0.00    -0.414 C  
HETATM   15  F   UNL     1     -13.563  15.341  73.164  1.00  0.00    -0.523 F  
HETATM   16  F   UNL     1     -11.471  14.879  73.531  1.00  0.00    -0.375 F  
HETATM   17  F   UNL     1     -12.033  16.834  72.762  1.00  0.00    -0.564 F  
ENDBRANCH   4   5
ENDBRANCH   2   4
TORSDOF 2
ENDMDL
MODEL        7
REMARK 921   NORMALIZED FREE ENERGY PREDICTED BY IDOCK:   -5.83 KCAL/MOL
REMARK 922        TOTAL FREE ENERGY PREDICTED BY IDOCK:   -6.75 KCAL/MOL
REMARK 923 INTER-LIGAND FREE ENERGY PREDICTED BY IDOCK:   -6.51 KCAL/MOL
REMARK 924 INTRA-LIGAND FREE ENERGY PREDICTED BY IDOCK:   -0.24 KCAL/MOL
REMARK 927      BINDING AFFINITY PREDICTED BY RF-SCORE:    0.00 PKD
ROOT
HETATM    1  C   UNL     1     -11.963  13.178  63.721  1.00  0.00    -0.572 C  
HETATM    2  C   UNL     1     -12.310  13.674  65.091  1.00  0.00    -0.452 C  
HETATM    3  O   UNL     1     -13.409  14.096  65.418  1.00  0.00    -0.705 OA 
ENDROOT
BRANCH   2   4
HETATM    4  O   UNL     1     -11.173  13.613  65.908  1.00  0.00    -0.302 OA 
BRANCH   4   5
HETATM    5  C   UNL     1     -11.139  14.508  67.001  1.00  0.00    -0.322 A  
HETATM    6  C   UNL     1     -11.437  14.076  68.301  1.00  0.00    -0.337 A  
HETATM    7  C   UNL     1     -11.305  15.004  69.352  1.00  0.00    -0.314 A  
HETATM    8  C   UNL     1     -11.874  12.702  68.694  1.00  0.00    -0.302 C  
HETATM    9  O   UNL     1     -11.958  11.797  67.701  1.00  0.00    -0.599 OA 
HETATM   10  C   UNL     1     -10.903  16.324  69.113  1.00  0.00    -0.314 A  
HETATM   11  O   UNL     1     -12.148  12.409  69.848  1.00  0.00    -0.299 OA 
HETATM   12  C   UNL     1     -10.603  16.746  67.815  1.00  0.00    -0.341 A  
HETATM   13  C   UNL     1     -10.692  15.818  66.771  1.00  0.00    -0.293 A  
HETATM   14  C   UNL     1     -10.206  18.169  67.504  1.00  0.00    -0.371 C  
HETATM   15  F   UNL     1      -8.969  18.244  66.938  1.00  0.00    -0.251 F  
HETATM   16  F   UNL     1     -11.056  18.759  66.621  1.00  0.00    -0.338 F  
HETATM   17  F   UNL     1     -10.172  18.979  68.595  1.00  0.00    -0.394 F  
ENDBRANCH   4   5
ENDBRANCH   2   4
TORSDOF 2
ENDMDL
MODEL        8
REMARK 921   NORMALIZED FREE ENERGY PREDICTED BY IDOCK:   -5.82 KCAL/MOL
REMARK 922        TOTAL FREE ENERGY PREDICTED BY IDOCK:   -6.74 KCAL/MOL
REMARK 923 INTER-LIGAND FREE ENERGY PREDICTED BY IDOCK:   -6.82 KCAL/MOL
REMARK 924 INTRA-LIGAND FREE ENERGY PREDICTED BY IDOCK:    0.08 KCAL/MOL
REMARK 927      BINDING AFFINITY PREDICTED BY RF-SCORE:    0.00 PKD
ROOT
HETATM    1  C   UNL     1     -11.987  13.805  66.727  1.00  0.00    -0.465 C  
HETATM    2  C   UNL     1     -11.766  12.658  67.664  1.00  0.00    -0.361 C  
HETATM    3  O   UNL     1     -12.034  11.493  67.411  1.00  0.00    -0.623 OA 
ENDROOT
BRANCH   2   4
HETATM    4  O   UNL     1     -11.248  13.141  68.873  1.00  0.00    -0.253 OA 
BRANCH   4   5
HETATM    5  C   UNL     1     -11.960  12.794  70.043  1.00  0.00    -0.301 A  
HETATM    6  C   UNL     1     -12.612  13.768  70.813  1.00  0.00    -0.410 A  
HETATM    7  C   UNL     1     -13.368  13.339  71.920  1.00  0.00    -0.540 A  
HETATM    8  C   UNL     1     -12.594  15.242  70.564  1.00  0.00    -0.399 C  
HETATM    9  O   UNL     1     -11.911  15.655  69.481  1.00  0.00    -0.347 OA 
HETATM   10  C   UNL     1     -13.461  11.983  72.257  1.00  0.00    -0.239 A  
HETATM   11  O   UNL     1     -13.162  16.034  71.301  1.00  0.00    -0.398 OA 
HETATM   12  C   UNL     1     -12.814  11.017  71.483  1.00  0.00    -0.555 A  
HETATM   13  C   UNL     1     -12.094  11.433  70.357  1.00  0.00    -0.473 A  
HETATM   14  C   UNL     1     -12.853   9.549  71.832  1.00  0.00    -0.420 C  
HETATM   15  F   UNL     1     -13.405   8.799  70.837  1.00  0.00    -0.176 F  
HETATM   16  F   UNL     1     -11.610   9.036  72.038  1.00  0.00    -0.390 F  
HETATM   17  F   UNL     1     -13.567   9.272  72.955  1.00  0.00    -0.466 F  
ENDBRANCH   4   5
ENDBRANCH   2   4
TORSDOF 2
ENDMDL
MODEL        9
REMARK 921   NORMALIZED FREE ENERGY PREDICTED BY IDOCK:   -5.82 KCAL/MOL
REMARK 922        TOTAL FREE ENERGY PREDICTED BY IDOCK:   -6.74 KCAL/MOL
REMARK 923 INTER-LIGAND FREE ENERGY PREDICTED BY IDOCK:   -6.72 KCAL/MOL
REMARK 924 INTRA-LIGAND FREE ENERGY PREDICTED BY IDOCK:   -0.01 KCAL/MOL
REMARK 927      BINDING AFFINITY PREDICTED BY RF-SCORE:    0.00 PKD
ROOT
HETATM    1  C   UNL     1     -12.221  12.579  64.190  1.00  0.00    -0.552 C  
HETATM    2  C   UNL     1     -12.128  12.794  65.670  1.00  0.00    -0.459 C  
HETATM    3  O   UNL     1     -11.923  11.909  66.488  1.00  0.00    -0.588 OA 
ENDROOT
BRANCH   2   4
HETATM    4  O   UNL     1     -12.353  14.147  65.956  1.00  0.00    -0.444 OA 
BRANCH   4   5
HETATM    5  C   UNL     1     -11.734  14.651  67.123  1.00  0.00    -0.373 A  
HETATM    6  C   UNL     1     -10.712  15.607  67.047  1.00  0.00    -0.314 A  
HETATM    7  C   UNL     1     -10.197  16.121  68.251  1.00  0.00    -0.248 A  
HETATM    8  C   UNL     1     -10.111  16.154  65.792  1.00  0.00    -0.363 C  
HETATM    9  O   UNL     1     -10.629  15.701  64.636  1.00  0.00    -0.425 OA 
HETATM   10  C   UNL     1     -10.677  15.688  69.493  1.00  0.00    -0.271 A  
HETATM   11  O   UNL     1      -9.197  16.965  65.807  1.00  0.00    -0.527 OA 
HETATM   12  C   UNL     1     -11.700  14.738  69.562  1.00  0.00    -0.358 A  
HETATM   13  C   UNL     1     -12.245  14.252  68.367  1.00  0.00    -0.197 A  
HETATM   14  C   UNL     1     -12.221  14.211  70.877  1.00  0.00    -0.363 C  
HETATM   15  F   UNL     1     -13.550  14.458  71.039  1.00  0.00    -0.405 F  
HETATM   16  F   UNL     1     -12.076  12.862  70.984  1.00  0.00    -0.421 F  
HETATM   17  F   UNL     1     -11.602  14.744  71.964  1.00  0.00    -0.414 F  
ENDBRANCH   4   5
ENDBRANCH   2   4
TORSDOF 2
ENDMDL
MODEL       10
REMARK 921   NORMALIZED FREE ENERGY PREDICTED BY IDOCK:   -5.81 KCAL/MOL
REMARK 922        TOTAL FREE ENERGY PREDICTED BY IDOCK:   -6.73 KCAL/MOL
REMARK 923 INTER-LIGAND FREE ENERGY PREDICTED BY IDOCK:   -6.32 KCAL/MOL
REMARK 924 INTRA-LIGAND FREE ENERGY PREDICTED BY IDOCK:   -0.41 KCAL/MOL
REMARK 927      BINDING AFFINITY PREDICTED BY RF-SCORE:    0.00 PKD
ROOT
HETATM    1  C   UNL     1      -9.851  11.773  66.908  1.00  0.00    -0.221 C  
HETATM    2  C   UNL     1     -11.331  11.863  67.117  1.00  0.00    -0.331 C  
HETATM    3  O   UNL     1     -12.019  10.975  67.599  1.00  0.00    -0.583 OA 
ENDROOT
BRANCH   2   4
HETATM    4  O   UNL     1     -11.792  13.096  66.637  1.00  0.00    -0.362 OA 
BRANCH   4   5
HETATM    5  C   UNL     1     -11.535  14.221  67.452  1.00  0.00    -0.347 A  
HETATM    6  C   UNL     1     -10.856  15.340  66.951  1.00  0.00    -0.317 A  
HETATM    7  C   UNL     1     -10.705  16.455  67.797  1.00  0.00    -0.328 A  
HETATM    8  C   UNL     1     -10.276  15.476  65.580  1.00  0.00    -0.376 C  
HETATM    9  O   UNL     1     -10.456  14.431  64.751  1.00  0.00    -0.430 OA 
HETATM   10  C   UNL     1     -11.205  16.450  69.105  1.00  0.00    -0.275 A  
HETATM   11  O   UNL     1      -9.666  16.474  65.226  1.00  0.00    -0.440 OA 
HETATM   12  C   UNL     1     -11.886  15.334  69.597  1.00  0.00    -0.363 A  
HETATM   13  C   UNL     1     -12.074  14.237  68.747  1.00  0.00    -0.300 A  
HETATM   14  C   UNL     1     -12.405  15.268  71.012  1.00  0.00    -0.367 C  
HETATM   15  F   UNL     1     -13.755  15.092  71.056  1.00  0.00    -0.446 F  
HETATM   16  F   UNL     1     -11.871  14.227  71.708  1.00  0.00    -0.355 F  
HETATM   17  F   UNL     1     -12.145  16.384  71.743  1.00  0.00    -0.481 F  
ENDBRANCH   4   5
ENDBRANCH   2   4
TORSDOF 2
ENDMDL
MODEL       11
REMARK 921   NORMALIZED FREE ENERGY PREDICTED BY IDOCK:   -5.81 KCAL/MOL
REMARK 922        TOTAL FREE ENERGY PREDICTED BY IDOCK:   -6.72 KCAL/MOL
REMARK 923 INTER-LIGAND FREE ENERGY PREDICTED BY IDOCK:   -6.37 KCAL/MOL
REMARK 924 INTRA-LIGAND FREE ENERGY PREDICTED BY IDOCK:   -0.35 KCAL/MOL
REMARK 927      BINDING AFFINITY PREDICTED BY RF-SCORE:    0.00 PKD
ROOT
HETATM    1  C   UNL     1     -11.994  16.321  72.534  1.00  0.00    -0.648 C  
HETATM    2  C   UNL     1     -12.543  15.579  71.354  1.00  0.00    -0.431 C  
HETATM    3  O   UNL     1     -13.714  15.603  71.003  1.00  0.00    -0.582 OA 
ENDROOT
BRANCH   2   4
HETATM    4  O   UNL     1     -11.517  14.835  70.756  1.00  0.00    -0.272 OA 
BRANCH   4   5
HETATM    5  C   UNL     1     -11.233  15.134  69.404  1.00  0.00    -0.283 A  
HETATM    6  C   UNL     1     -11.403  14.173  68.398  1.00  0.00    -0.315 A  
HETATM    7  C   UNL     1     -11.177  14.564  67.065  1.00  0.00    -0.342 A  
HETATM    8  C   UNL     1     -11.820  12.751  68.600  1.00  0.00    -0.304 C  
HETATM    9  O   UNL     1     -12.083  12.382  69.867  1.00  0.00    -0.299 OA 
HETATM   10  C   UNL     1     -10.781  15.869  66.746  1.00  0.00    -0.281 A  
HETATM   11  O   UNL     1     -11.915  11.962  67.672  1.00  0.00    -0.575 OA 
HETATM   12  C   UNL     1     -10.619  16.824  67.754  1.00  0.00    -0.341 A  
HETATM   13  C   UNL     1     -10.882  16.452  69.078  1.00  0.00    -0.331 A  
HETATM   14  C   UNL     1     -10.155  18.230  67.462  1.00  0.00    -0.350 C  
HETATM   15  F   UNL     1     -11.066  19.164  67.853  1.00  0.00    -0.404 F  
HETATM   16  F   UNL     1      -9.002  18.538  68.117  1.00  0.00    -0.281 F  
HETATM   17  F   UNL     1      -9.915  18.465  66.145  1.00  0.00    -0.334 F  
ENDBRANCH   4   5
ENDBRANCH   2   4
TORSDOF 2
ENDMDL
MODEL       12
REMARK 921   NORMALIZED FREE ENERGY PREDICTED BY IDOCK:   -5.80 KCAL/MOL
REMARK 922        TOTAL FREE ENERGY PREDICTED BY IDOCK:   -6.71 KCAL/MOL
REMARK 923 INTER-LIGAND FREE ENERGY PREDICTED BY IDOCK:   -6.37 KCAL/MOL
REMARK 924 INTRA-LIGAND FREE ENERGY PREDICTED BY IDOCK:   -0.34 KCAL/MOL
REMARK 927      BINDING AFFINITY PREDICTED BY RF-SCORE:    0.00 PKD
ROOT
HETATM    1  C   UNL     1     -10.544  11.107  65.418  1.00  0.00    -0.291 C  
HETATM    2  C   UNL     1     -11.294  12.206  66.105  1.00  0.00    -0.361 C  
HETATM    3  O   UNL     1     -12.419  12.574  65.801  1.00  0.00    -0.626 OA 
ENDROOT
BRANCH   2   4
HETATM    4  O   UNL     1     -10.488  12.760  67.109  1.00  0.00    -0.232 OA 
BRANCH   4   5
HETATM    5  C   UNL     1     -11.122  13.028  68.343  1.00  0.00    -0.262 A  
HETATM    6  C   UNL     1     -11.382  14.343  68.754  1.00  0.00    -0.299 A  
HETATM    7  C   UNL     1     -12.087  14.531  69.958  1.00  0.00    -0.395 A  
HETATM    8  C   UNL     1     -10.991  15.587  68.024  1.00  0.00    -0.311 C  
HETATM    9  O   UNL     1     -10.357  15.414  66.849  1.00  0.00    -0.266 OA 
HETATM   10  C   UNL     1     -12.508  13.444  70.734  1.00  0.00    -0.418 A  
HETATM   11  O   UNL     1     -11.226  16.703  68.463  1.00  0.00    -0.344 OA 
HETATM   12  C   UNL     1     -12.250  12.136  70.316  1.00  0.00    -0.344 A  
HETATM   13  C   UNL     1     -11.585  11.941  69.100  1.00  0.00    -0.373 A  
HETATM   14  C   UNL     1     -12.648  10.936  71.140  1.00  0.00    -0.428 C  
HETATM   15  F   UNL     1     -13.500  10.112  70.468  1.00  0.00    -0.402 F  
HETATM   16  F   UNL     1     -11.577  10.167  71.479  1.00  0.00    -0.427 F  
HETATM   17  F   UNL     1     -13.269  11.253  72.306  1.00  0.00    -0.590 F  
ENDBRANCH   4   5
ENDBRANCH   2   4
TORSDOF 2
ENDMDL
MODEL       13
REMARK 921   NORMALIZED FREE ENERGY PREDICTED BY IDOCK:   -5.79 KCAL/MOL
REMARK 922        TOTAL FREE ENERGY PREDICTED BY IDOCK:   -6.71 KCAL/MOL
REMARK 923 INTER-LIGAND FREE ENERGY PREDICTED BY IDOCK:   -6.29 KCAL/MOL
REMARK 924 INTRA-LIGAND FREE ENERGY PREDICTED BY IDOCK:   -0.42 KCAL/MOL
REMARK 927      BINDING AFFINITY PREDICTED BY RF-SCORE:    0.00 PKD
ROOT
HETATM    1  C   UNL     1     -10.728  11.205  67.129  1.00  0.00    -0.305 C  
HETATM    2  C   UNL     1     -11.609  12.016  68.028  1.00  0.00    -0.342 C  
HETATM    3  O   UNL     1     -11.657  11.899  69.243  1.00  0.00    -0.267 OA 
ENDROOT
BRANCH   2   4
HETATM    4  O   UNL     1     -12.386  12.887  67.251  1.00  0.00    -0.312 OA 
BRANCH   4   5
HETATM    5  C   UNL     1     -11.717  14.006  66.707  1.00  0.00    -0.407 A  
HETATM    6  C   UNL     1     -11.768  14.284  65.334  1.00  0.00    -0.354 A  
HETATM    7  C   UNL     1     -11.144  15.459  64.874  1.00  0.00    -0.435 A  
HETATM    8  C   UNL     1     -12.441  13.451  64.291  1.00  0.00    -0.257 C  
HETATM    9  O   UNL     1     -13.079  12.350  64.730  1.00  0.00    -0.806 OA 
HETATM   10  C   UNL     1     -10.479  16.323  65.753  1.00  0.00    -0.379 A  
HETATM   11  O   UNL     1     -12.414  13.743  63.105  1.00  0.00    -0.786 OA 
HETATM   12  C   UNL     1     -10.436  16.043  67.121  1.00  0.00    -0.308 A  
HETATM   13  C   UNL     1     -11.090  14.897  67.591  1.00  0.00    -0.315 A  
HETATM   14  C   UNL     1      -9.697  16.923  68.100  1.00  0.00    -0.254 C  
HETATM   15  F   UNL     1     -10.521  17.427  69.060  1.00  0.00    -0.318 F  
HETATM   16  F   UNL     1      -8.721  16.246  68.764  1.00  0.00    -0.195 F  
HETATM   17  F   UNL     1      -9.089  17.992  67.523  1.00  0.00    -0.247 F  
ENDBRANCH   4   5
ENDBRANCH   2   4
TORSDOF 2
ENDMDL
MODEL       14
REMARK 921   NORMALIZED FREE ENERGY PREDICTED BY IDOCK:   -5.76 KCAL/MOL
REMARK 922        TOTAL FREE ENERGY PREDICTED BY IDOCK:   -6.67 KCAL/MOL
REMARK 923 INTER-LIGAND FREE ENERGY PREDICTED BY IDOCK:   -6.25 KCAL/MOL
REMARK 924 INTRA-LIGAND FREE ENERGY PREDICTED BY IDOCK:   -0.42 KCAL/MOL
REMARK 927      BINDING AFFINITY PREDICTED BY RF-SCORE:    0.00 PKD
ROOT
HETATM    1  C   UNL     1      -9.498  16.272  69.134  1.00  0.00    -0.246 C  
HETATM    2  C   UNL     1     -10.703  16.733  68.373  1.00  0.00    -0.362 C  
HETATM    3  O   UNL     1     -10.736  17.726  67.661  1.00  0.00    -0.386 OA 
ENDROOT
BRANCH   2   4
HETATM    4  O   UNL     1     -11.777  15.874  68.642  1.00  0.00    -0.387 OA 
BRANCH   4   5
HETATM    5  C   UNL     1     -11.718  14.593  68.049  1.00  0.00    -0.342 A  
HETATM    6  C   UNL     1     -11.884  13.431  68.815  1.00  0.00    -0.386 A  
HETATM    7  C   UNL     1     -11.892  12.193  68.145  1.00  0.00    -0.362 A  
HETATM    8  C   UNL     1     -12.072  13.373  70.297  1.00  0.00    -0.349 C  
HETATM    9  O   UNL     1     -12.111  14.556  70.939  1.00  0.00    -0.299 OA 
HETATM   10  C   UNL     1     -11.726  12.115  66.757  1.00  0.00    -0.377 A  
HETATM   11  O   UNL     1     -12.178  12.316  70.901  1.00  0.00    -0.353 OA 
HETATM   12  C   UNL     1     -11.565  13.277  65.998  1.00  0.00    -0.384 A  
HETATM   13  C   UNL     1     -11.597  14.514  66.653  1.00  0.00    -0.385 A  
HETATM   14  C   UNL     1     -11.342  13.239  64.506  1.00  0.00    -0.363 C  
HETATM   15  F   UNL     1     -12.314  13.907  63.824  1.00  0.00    -0.498 F  
HETATM   16  F   UNL     1     -10.167  13.823  64.147  1.00  0.00    -0.411 F  
HETATM   17  F   UNL     1     -11.312  11.982  63.989  1.00  0.00    -0.357 F  
ENDBRANCH   4   5
ENDBRANCH   2   4
TORSDOF 2
ENDMDL
MODEL       15
REMARK 921   NORMALIZED FREE ENERGY PREDICTED BY IDOCK:   -5.75 KCAL/MOL
REMARK 922        TOTAL FREE ENERGY PREDICTED BY IDOCK:   -6.66 KCAL/MOL
REMARK 923 INTER-LIGAND FREE ENERGY PREDICTED BY IDOCK:   -6.56 KCAL/MOL
REMARK 924 INTRA-LIGAND FREE ENERGY PREDICTED BY IDOCK:   -0.10 KCAL/MOL
REMARK 927      BINDING AFFINITY PREDICTED BY RF-SCORE:    0.00 PKD
ROOT
HETATM    1  C   UNL     1     -12.405  14.268  64.313  1.00  0.00    -0.407 C  
HETATM    2  C   UNL     1     -11.464  15.422  64.472  1.00  0.00    -0.311 C  
HETATM    3  O   UNL     1     -11.552  16.478  63.863  1.00  0.00    -1.175 OA 
ENDROOT
BRANCH   2   4
HETATM    4  O   UNL     1     -10.461  15.080  65.389  1.00  0.00    -0.324 OA 
BRANCH   4   5
HETATM    5  C   UNL     1     -10.547  15.680  66.665  1.00  0.00    -0.307 A  
HETATM    6  C   UNL     1     -10.706  14.905  67.822  1.00  0.00    -0.271 A  
HETATM    7  C   UNL     1     -10.705  15.565  69.065  1.00  0.00    -0.243 A  
HETATM    8  C   UNL     1     -10.868  13.420  67.871  1.00  0.00    -0.247 C  
HETATM    9  O   UNL     1     -10.825  12.777  66.689  1.00  0.00    -0.258 OA 
HETATM   10  C   UNL     1     -10.561  16.956  69.152  1.00  0.00    -0.330 A  
HETATM   11  O   UNL     1     -11.036  12.816  68.920  1.00  0.00    -0.252 OA 
HETATM   12  C   UNL     1     -10.397  17.722  67.995  1.00  0.00    -0.395 A  
HETATM   13  C   UNL     1     -10.357  17.067  66.758  1.00  0.00    -0.302 A  
HETATM   14  C   UNL     1     -10.280  19.226  68.036  1.00  0.00    -0.408 C  
HETATM   15  F   UNL     1      -9.102  19.664  67.511  1.00  0.00    -0.328 F  
HETATM   16  F   UNL     1     -11.260  19.838  67.317  1.00  0.00    -0.532 F  
HETATM   17  F   UNL     1     -10.351  19.746  69.290  1.00  0.00    -0.468 F  
ENDBRANCH   4   5
ENDBRANCH   2   4
TORSDOF 2
ENDMDL
MODEL       16
REMARK 921   NORMALIZED FREE ENERGY PREDICTED BY IDOCK:   -5.73 KCAL/MOL
REMARK 922        TOTAL FREE ENERGY PREDICTED BY IDOCK:   -6.64 KCAL/MOL
REMARK 923 INTER-LIGAND FREE ENERGY PREDICTED BY IDOCK:   -6.38 KCAL/MOL
REMARK 924 INTRA-LIGAND FREE ENERGY PREDICTED BY IDOCK:   -0.26 KCAL/MOL
REMARK 927      BINDING AFFINITY PREDICTED BY RF-SCORE:    0.00 PKD
ROOT
HETATM    1  C   UNL     1      -9.834  11.804  68.029  1.00  0.00    -0.184 C  
HETATM    2  C   UNL     1     -11.216  11.339  68.373  1.00  0.00    -0.262 C  
HETATM    3  O   UNL     1     -12.156  11.319  67.592  1.00  0.00    -0.600 OA 
ENDROOT
BRANCH   2   4
HETATM    4  O   UNL     1     -11.260  10.978  69.726  1.00  0.00    -0.258 OA 
BRANCH   4   5
HETATM    5  C   UNL     1     -12.095  11.759  70.556  1.00  0.00    -0.347 A  
HETATM    6  C   UNL     1     -12.982  11.161  71.462  1.00  0.00    -0.542 A  
HETATM    7  C   UNL     1     -13.726  12.001  72.312  1.00  0.00    -0.035 A  
HETATM    8  C   UNL     1     -13.214   9.693  71.628  1.00  0.00    -0.411 C  
HETATM    9  O   UNL     1     -12.473   8.882  70.850  1.00  0.00    -0.198 OA 
HETATM   10  C   UNL     1     -13.598  13.395  72.252  1.00  0.00    -0.703 A  
HETATM   11  O   UNL     1     -14.031   9.247  72.419  1.00  0.00    -0.460 OA 
HETATM   12  C   UNL     1     -12.708  13.985  71.351  1.00  0.00    -0.442 A  
HETATM   13  C   UNL     1     -11.936  13.153  70.531  1.00  0.00    -0.303 A  
HETATM   14  C   UNL     1     -12.567  15.482  71.223  1.00  0.00    -0.447 C  
HETATM   15  F   UNL     1     -11.299  15.903  71.489  1.00  0.00    -0.377 F  
HETATM   16  F   UNL     1     -12.849  15.920  69.966  1.00  0.00    -0.334 F  
HETATM   17  F   UNL     1     -13.381  16.181  72.058  1.00  0.00    -0.475 F  
ENDBRANCH   4   5
ENDBRANCH   2   4
TORSDOF 2
ENDMDL
MODEL       17
REMARK 921   NORMALIZED FREE ENERGY PREDICTED BY IDOCK:   -5.68 KCAL/MOL
REMARK 922        TOTAL FREE ENERGY PREDICTED BY IDOCK:   -6.58 KCAL/MOL
REMARK 923 INTER-LIGAND FREE ENERGY PREDICTED BY IDOCK:   -6.40 KCAL/MOL
REMARK 924 INTRA-LIGAND FREE ENERGY PREDICTED BY IDOCK:   -0.18 KCAL/MOL
REMARK 927      BINDING AFFINITY PREDICTED BY RF-SCORE:    0.00 PKD
ROOT
HETATM    1  C   UNL     1     -10.183  19.829  66.092  1.00  0.00    -0.618 C  
HETATM    2  C   UNL     1     -10.362  18.415  66.550  1.00  0.00    -0.400 C  
HETATM    3  O   UNL     1     -10.911  18.086  67.592  1.00  0.00    -0.390 OA 
ENDROOT
BRANCH   2   4
HETATM    4  O   UNL     1      -9.769  17.548  65.622  1.00  0.00    -0.532 OA 
BRANCH   4   5
HETATM    5  C   UNL     1      -9.724  16.182  65.981  1.00  0.00    -0.344 A  
HETATM    6  C   UNL     1     -10.581  15.247  65.385  1.00  0.00    -0.413 A  
HETATM    7  C   UNL     1     -10.425  13.892  65.733  1.00  0.00    -0.313 A  
HETATM    8  C   UNL     1     -11.655  15.546  64.389  1.00  0.00    -0.258 C  
HETATM    9  O   UNL     1     -11.779  16.834  64.017  1.00  0.00    -1.120 OA 
HETATM   10  C   UNL     1      -9.454  13.484  66.656  1.00  0.00    -0.271 A  
HETATM   11  O   UNL     1     -12.386  14.678  63.937  1.00  0.00    -0.730 OA 
HETATM   12  C   UNL     1      -8.599  14.420  67.242  1.00  0.00    -0.230 A  
HETATM   13  C   UNL     1      -8.722  15.765  66.870  1.00  0.00    -0.274 A  
HETATM   14  C   UNL     1      -7.566  14.033  68.272  1.00  0.00    -0.135 C  
HETATM   15  F   UNL     1      -6.301  14.343  67.872  1.00  0.00    -0.108 F  
HETATM   16  F   UNL     1      -7.751  14.678  69.455  1.00  0.00    -0.152 F  
HETATM   17  F   UNL     1      -7.555  12.705  68.564  1.00  0.00    -0.113 F  
ENDBRANCH   4   5
ENDBRANCH   2   4
TORSDOF 2
ENDMDL
MODEL       18
REMARK 921   NORMALIZED FREE ENERGY PREDICTED BY IDOCK:   -5.65 KCAL/MOL
REMARK 922        TOTAL FREE ENERGY PREDICTED BY IDOCK:   -6.55 KCAL/MOL
REMARK 923 INTER-LIGAND FREE ENERGY PREDICTED BY IDOCK:   -6.18 KCAL/MOL
REMARK 924 INTRA-LIGAND FREE ENERGY PREDICTED BY IDOCK:   -0.38 KCAL/MOL
REMARK 927      BINDING AFFINITY PREDICTED BY RF-SCORE:    0.00 PKD
ROOT
HETATM    1  C   UNL     1     -11.755  12.738  69.478  1.00  0.00    -0.383 C  
HETATM    2  C   UNL     1     -11.403  13.233  68.109  1.00  0.00    -0.288 C  
HETATM    3  O   UNL     1     -10.592  14.117  67.878  1.00  0.00    -0.239 OA 
ENDROOT
BRANCH   2   4
HETATM    4  O   UNL     1     -12.176  12.553  67.158  1.00  0.00    -0.474 OA 
BRANCH   4   5
HETATM    5  C   UNL     1     -11.469  11.943  66.098  1.00  0.00    -0.288 A  
HETATM    6  C   UNL     1     -11.542  12.447  64.792  1.00  0.00    -0.395 A  
HETATM    7  C   UNL     1     -10.750  11.837  63.802  1.00  0.00    -0.480 A  
HETATM    8  C   UNL     1     -12.383  13.598  64.339  1.00  0.00    -0.338 C  
HETATM    9  O   UNL     1     -13.109  14.216  65.289  1.00  0.00    -0.763 OA 
HETATM   10  C   UNL     1      -9.920  10.749  64.101  1.00  0.00    -0.405 A  
HETATM   11  O   UNL     1     -12.419  13.960  63.172  1.00  0.00    -0.766 OA 
HETATM   12  C   UNL     1      -9.848  10.254  65.406  1.00  0.00    -0.362 A  
HETATM   13  C   UNL     1     -10.603  10.883  66.403  1.00  0.00    -0.289 A  
HETATM   14  C   UNL     1      -9.000   9.059  65.766  1.00  0.00    -0.197 C  
HETATM   15  F   UNL     1      -8.056   9.362  66.701  1.00  0.00    -0.105 F  
HETATM   16  F   UNL     1      -9.737   8.046  66.297  1.00  0.00    -0.263 F  
HETATM   17  F   UNL     1      -8.330   8.525  64.711  1.00  0.00    -0.142 F  
ENDBRANCH   4   5
ENDBRANCH   2   4
TORSDOF 2
ENDMDL
MODEL       19
REMARK 921   NORMALIZED FREE ENERGY PREDICTED BY IDOCK:   -5.64 KCAL/MOL
REMARK 922        TOTAL FREE ENERGY PREDICTED BY IDOCK:   -6.54 KCAL/MOL
REMARK 923 INTER-LIGAND FREE ENERGY PREDICTED BY IDOCK:   -6.17 KCAL/MOL
REMARK 924 INTRA-LIGAND FREE ENERGY PREDICTED BY IDOCK:   -0.37 KCAL/MOL
REMARK 927      BINDING AFFINITY PREDICTED BY RF-SCORE:    0.00 PKD
ROOT
HETATM    1  C   UNL     1      -9.785  10.837  67.522  1.00  0.00    -0.188 C  
HETATM    2  C   UNL     1     -11.073  11.189  68.201  1.00  0.00    -0.264 C  
HETATM    3  O   UNL     1     -12.149  11.305  67.632  1.00  0.00    -0.600 OA 
ENDROOT
BRANCH   2   4
HETATM    4  O   UNL     1     -10.835  11.400  69.565  1.00  0.00    -0.204 OA 
BRANCH   4   5
HETATM    5  C   UNL     1     -11.564  10.586  70.462  1.00  0.00    -0.350 A  
HETATM    6  C   UNL     1     -12.539  11.132  71.308  1.00  0.00    -0.503 A  
HETATM    7  C   UNL     1     -13.281  10.251  72.116  1.00  0.00    -0.443 A  
HETATM    8  C   UNL     1     -12.886  12.581  71.431  1.00  0.00    -0.260 C  
HETATM    9  O   UNL     1     -12.213  13.425  70.627  1.00  0.00    -0.356 OA 
HETATM   10  C   UNL     1     -13.049   8.870  72.092  1.00  0.00    -0.475 A  
HETATM   11  O   UNL     1     -13.729  12.985  72.217  1.00  0.00    -0.552 OA 
HETATM   12  C   UNL     1     -12.079   8.332  71.243  1.00  0.00    -0.307 A  
HETATM   13  C   UNL     1     -11.366   9.199  70.406  1.00  0.00    -0.260 A  
HETATM   14  C   UNL     1     -11.766   6.855  71.213  1.00  0.00    -0.328 C  
HETATM   15  F   UNL     1     -11.974   6.311  69.981  1.00  0.00    -0.474 F  
HETATM   16  F   UNL     1     -10.465   6.599  71.518  1.00  0.00    -0.221 F  
HETATM   17  F   UNL     1     -12.510   6.120  72.081  1.00  0.00    -0.384 F  
ENDBRANCH   4   5
ENDBRANCH   2   4
TORSDOF 2
ENDMDL
MODEL       20
REMARK 921   NORMALIZED FREE ENERGY PREDICTED BY IDOCK:   -5.64 KCAL/MOL
REMARK 922        TOTAL FREE ENERGY PREDICTED BY IDOCK:   -6.53 KCAL/MOL
REMARK 923 INTER-LIGAND FREE ENERGY PREDICTED BY IDOCK:   -6.16 KCAL/MOL
REMARK 924 INTRA-LIGAND FREE ENERGY PREDICTED BY IDOCK:   -0.38 KCAL/MOL
REMARK 927      BINDING AFFINITY PREDICTED BY RF-SCORE:    0.00 PKD
ROOT
HETATM    1  C   UNL     1      -8.867  16.685  67.551  1.00  0.00    -0.202 C  
HETATM    2  C   UNL     1     -10.036  16.921  66.645  1.00  0.00    -0.296 C  
HETATM    3  O   UNL     1      -9.986  17.548  65.597  1.00  0.00    -0.561 OA 
ENDROOT
BRANCH   2   4
HETATM    4  O   UNL     1     -11.184  16.351  67.211  1.00  0.00    -0.097 OA 
BRANCH   4   5
HETATM    5  C   UNL     1     -11.347  14.959  67.029  1.00  0.00    -0.342 A  
HETATM    6  C   UNL     1     -11.668  14.119  68.104  1.00  0.00    -0.390 A  
HETATM    7  C   UNL     1     -11.893  12.756  67.834  1.00  0.00    -0.392 A  
HETATM    8  C   UNL     1     -11.812  14.535  69.533  1.00  0.00    -0.329 C  
HETATM    9  O   UNL     1     -11.643  15.845  69.792  1.00  0.00    -0.326 OA 
HETATM   10  C   UNL     1     -11.788  12.244  66.535  1.00  0.00    -0.378 A  
HETATM   11  O   UNL     1     -12.063  13.736  70.423  1.00  0.00    -0.322 OA 
HETATM   12  C   UNL     1     -11.472  13.087  65.467  1.00  0.00    -0.352 A  
HETATM   13  C   UNL     1     -11.287  14.452  65.722  1.00  0.00    -0.330 A  
HETATM   14  C   UNL     1     -11.308  12.573  64.057  1.00  0.00    -0.405 C  
HETATM   15  F   UNL     1     -12.186  13.155  63.193  1.00  0.00    -0.610 F  
HETATM   16  F   UNL     1     -10.068  12.828  63.557  1.00  0.00    -0.381 F  
HETATM   17  F   UNL     1     -11.494  11.232  63.939  1.00  0.00    -0.444 F  
ENDBRANCH   4   5
ENDBRANCH   2   4
TORSDOF 2
ENDMDL
MODEL       21
REMARK 921   NORMALIZED FREE ENERGY PREDICTED BY IDOCK:   -5.62 KCAL/MOL
REMARK 922        TOTAL FREE ENERGY PREDICTED BY IDOCK:   -6.52 KCAL/MOL
REMARK 923 INTER-LIGAND FREE ENERGY PREDICTED BY IDOCK:   -6.19 KCAL/MOL
REMARK 924 INTRA-LIGAND FREE ENERGY PREDICTED BY IDOCK:   -0.32 KCAL/MOL
REMARK 927      BINDING AFFINITY PREDICTED BY RF-SCORE:    0.00 PKD
ROOT
HETATM    1  C   UNL     1      -9.779  10.677  68.966  1.00  0.00    -0.214 C  
HETATM    2  C   UNL     1     -10.907  10.314  68.050  1.00  0.00    -0.275 C  
HETATM    3  O   UNL     1     -10.846   9.459  67.178  1.00  0.00    -0.219 OA 
ENDROOT
BRANCH   2   4
HETATM    4  O   UNL     1     -12.011  11.132  68.326  1.00  0.00    -0.592 OA 
BRANCH   4   5
HETATM    5  C   UNL     1     -11.876  12.498  67.993  1.00  0.00    -0.325 A  
HETATM    6  C   UNL     1     -11.886  13.491  68.982  1.00  0.00    -0.385 A  
HETATM    7  C   UNL     1     -11.667  14.823  68.584  1.00  0.00    -0.356 A  
HETATM    8  C   UNL     1     -12.096  13.272  70.446  1.00  0.00    -0.327 C  
HETATM    9  O   UNL     1     -12.260  11.996  70.840  1.00  0.00    -0.352 OA 
HETATM   10  C   UNL     1     -11.458  15.157  67.240  1.00  0.00    -0.284 A  
HETATM   11  O   UNL     1     -12.123  14.195  71.246  1.00  0.00    -0.351 OA 
HETATM   12  C   UNL     1     -11.445  14.162  66.259  1.00  0.00    -0.358 A  
HETATM   13  C   UNL     1     -11.621  12.830  66.654  1.00  0.00    -0.430 A  
HETATM   14  C   UNL     1     -11.265  14.479  64.795  1.00  0.00    -0.390 C  
HETATM   15  F   UNL     1     -10.166  13.870  64.269  1.00  0.00    -0.441 F  
HETATM   16  F   UNL     1     -12.319  14.059  64.044  1.00  0.00    -0.474 F  
HETATM   17  F   UNL     1     -11.122  15.806  64.535  1.00  0.00    -0.419 F  
ENDBRANCH   4   5
ENDBRANCH   2   4
TORSDOF 2
ENDMDL
MODEL       22
REMARK 921   NORMALIZED FREE ENERGY PREDICTED BY IDOCK:   -5.61 KCAL/MOL
REMARK 922        TOTAL FREE ENERGY PREDICTED BY IDOCK:   -6.50 KCAL/MOL
REMARK 923 INTER-LIGAND FREE ENERGY PREDICTED BY IDOCK:   -6.70 KCAL/MOL
REMARK 924 INTRA-LIGAND FREE ENERGY PREDICTED BY IDOCK:    0.20 KCAL/MOL
REMARK 927      BINDING AFFINITY PREDICTED BY RF-SCORE:    0.00 PKD
ROOT
HETATM    1  C   UNL     1     -12.586  15.203  73.610  1.00  0.00    -0.702 C  
HETATM    2  C   UNL     1     -13.221  14.465  72.473  1.00  0.00    -0.469 C  
HETATM    3  O   UNL     1     -14.268  13.838  72.550  1.00  0.00    -0.706 OA 
ENDROOT
BRANCH   2   4
HETATM    4  O   UNL     1     -12.409  14.576  71.336  1.00  0.00    -0.323 OA 
BRANCH   4   5
HETATM    5  C   UNL     1     -12.276  13.412  70.545  1.00  0.00    -0.352 A  
HETATM    6  C   UNL     1     -11.902  13.491  69.197  1.00  0.00    -0.386 A  
HETATM    7  C   UNL     1     -11.712  12.287  68.492  1.00  0.00    -0.381 A  
HETATM    8  C   UNL     1     -11.668  14.747  68.420  1.00  0.00    -0.314 C  
HETATM    9  O   UNL     1     -11.803  15.901  69.099  1.00  0.00    -0.389 OA 
HETATM   10  C   UNL     1     -11.902  11.044  69.109  1.00  0.00    -0.407 A  
HETATM   11  O   UNL     1     -11.375  14.735  67.234  1.00  0.00    -0.335 OA 
HETATM   12  C   UNL     1     -12.270  10.973  70.455  1.00  0.00    -0.472 A  
HETATM   13  C   UNL     1     -12.420  12.166  71.173  1.00  0.00    -0.337 A  
HETATM   14  C   UNL     1     -12.525   9.658  71.150  1.00  0.00    -0.332 C  
HETATM   15  F   UNL     1     -11.693   9.468  72.212  1.00  0.00    -0.381 F  
HETATM   16  F   UNL     1     -13.789   9.576  71.648  1.00  0.00    -0.387 F  
HETATM   17  F   UNL     1     -12.365   8.573  70.346  1.00  0.00    -0.027 F  
ENDBRANCH   4   5
ENDBRANCH   2   4
TORSDOF 2
ENDMDL
MODEL       23
REMARK 921   NORMALIZED FREE ENERGY PREDICTED BY IDOCK:   -5.57 KCAL/MOL
REMARK 922        TOTAL FREE ENERGY PREDICTED BY IDOCK:   -6.45 KCAL/MOL
REMARK 923 INTER-LIGAND FREE ENERGY PREDICTED BY IDOCK:   -6.84 KCAL/MOL
REMARK 924 INTRA-LIGAND FREE ENERGY PREDICTED BY IDOCK:    0.39 KCAL/MOL
REMARK 927      BINDING AFFINITY PREDICTED BY RF-SCORE:    0.00 PKD
ROOT
HETATM    1  C   UNL     1      -9.911  15.549  65.743  1.00  0.00    -0.391 C  
HETATM    2  C   UNL     1     -11.110  15.853  64.898  1.00  0.00    -0.389 C  
HETATM    3  O   UNL     1     -11.298  16.910  64.313  1.00  0.00    -1.202 OA 
ENDROOT
BRANCH   2   4
HETATM    4  O   UNL     1     -11.984  14.757  64.923  1.00  0.00    -0.386 OA 
BRANCH   4   5
HETATM    5  C   UNL     1     -11.823  13.853  65.997  1.00  0.00    -0.393 A  
HETATM    6  C   UNL     1     -11.391  12.537  65.779  1.00  0.00    -0.373 A  
HETATM    7  C   UNL     1     -11.177  11.717  66.902  1.00  0.00    -0.387 A  
HETATM    8  C   UNL     1     -11.116  11.910  64.450  1.00  0.00    -0.336 C  
HETATM    9  O   UNL     1     -11.274  12.702  63.373  1.00  0.00    -0.467 OA 
HETATM   10  C   UNL     1     -11.400  12.189  68.202  1.00  0.00    -0.349 A  
HETATM   11  O   UNL     1     -10.772  10.743  64.338  1.00  0.00    -0.301 OA 
HETATM   12  C   UNL     1     -11.826  13.503  68.413  1.00  0.00    -0.408 A  
HETATM   13  C   UNL     1     -12.001  14.337  67.301  1.00  0.00    -0.439 A  
HETATM   14  C   UNL     1     -12.118  14.043  69.792  1.00  0.00    -0.348 C  
HETATM   15  F   UNL     1     -11.333  15.112  70.102  1.00  0.00    -0.226 F  
HETATM   16  F   UNL     1     -13.402  14.475  69.914  1.00  0.00    -0.046 F  
HETATM   17  F   UNL     1     -11.929  13.135  70.786  1.00  0.00    -0.403 F  
ENDBRANCH   4   5
ENDBRANCH   2   4
TORSDOF 2
ENDMDL
MODEL       24
REMARK 921   NORMALIZED FREE ENERGY PREDICTED BY IDOCK:   -5.57 KCAL/MOL
REMARK 922        TOTAL FREE ENERGY PREDICTED BY IDOCK:   -6.45 KCAL/MOL
REMARK 923 INTER-LIGAND FREE ENERGY PREDICTED BY IDOCK:   -6.13 KCAL/MOL
REMARK 924 INTRA-LIGAND FREE ENERGY PREDICTED BY IDOCK:   -0.32 KCAL/MOL
REMARK 927      BINDING AFFINITY PREDICTED BY RF-SCORE:    0.00 PKD
ROOT
HETATM    1  C   UNL     1     -10.752  15.598  66.044  1.00  0.00    -0.322 C  
HETATM    2  C   UNL     1     -11.470  14.354  66.470  1.00  0.00    -0.362 C  
HETATM    3  O   UNL     1     -12.625  14.084  66.176  1.00  0.00    -0.468 OA 
ENDROOT
BRANCH   2   4
HETATM    4  O   UNL     1     -10.624  13.587  67.282  1.00  0.00    -0.260 OA 
BRANCH   4   5
HETATM    5  C   UNL     1     -11.233  12.926  68.373  1.00  0.00    -0.270 A  
HETATM    6  C   UNL     1     -11.299  11.527  68.429  1.00  0.00    -0.342 A  
HETATM    7  C   UNL     1     -11.849  10.937  69.583  1.00  0.00    -0.416 A  
HETATM    8  C   UNL     1     -10.823  10.581  67.374  1.00  0.00    -0.291 C  
HETATM    9  O   UNL     1     -10.255  11.136  66.288  1.00  0.00    -0.224 OA 
HETATM   10  C   UNL     1     -12.330  11.717  70.641  1.00  0.00    -0.421 A  
HETATM   11  O   UNL     1     -10.945   9.370  67.481  1.00  0.00    -0.223 OA 
HETATM   12  C   UNL     1     -12.256  13.111  70.582  1.00  0.00    -0.402 A  
HETATM   13  C   UNL     1     -11.674  13.704  69.455  1.00  0.00    -0.379 A  
HETATM   14  C   UNL     1     -12.799  13.993  71.680  1.00  0.00    -0.352 C  
HETATM   15  F   UNL     1     -11.834  14.782  72.229  1.00  0.00    -0.402 F  
HETATM   16  F   UNL     1     -13.762  14.842  71.229  1.00  0.00    -0.402 F  
HETATM   17  F   UNL     1     -13.356  13.304  72.710  1.00  0.00    -0.596 F  
ENDBRANCH   4   5
ENDBRANCH   2   4
TORSDOF 2
ENDMDL
MODEL       25
REMARK 921   NORMALIZED FREE ENERGY PREDICTED BY IDOCK:   -5.56 KCAL/MOL
REMARK 922        TOTAL FREE ENERGY PREDICTED BY IDOCK:   -6.45 KCAL/MOL
REMARK 923 INTER-LIGAND FREE ENERGY PREDICTED BY IDOCK:   -6.22 KCAL/MOL
REMARK 924 INTRA-LIGAND FREE ENERGY PREDICTED BY IDOCK:   -0.22 KCAL/MOL
REMARK 927      BINDING AFFINITY PREDICTED BY RF-SCORE:    0.00 PKD
ROOT
HETATM    1  C   UNL     1     -10.519  19.815  65.914  1.00  0.00    -0.587 C  
HETATM    2  C   UNL     1     -10.310  18.473  66.544  1.00  0.00    -0.414 C  
HETATM    3  O   UNL     1     -10.698  18.163  67.661  1.00  0.00    -0.416 OA 
ENDROOT
BRANCH   2   4
HETATM    4  O   UNL     1      -9.572  17.661  65.672  1.00  0.00    -0.503 OA 
BRANCH   4   5
HETATM    5  C   UNL     1      -9.694  16.266  65.862  1.00  0.00    -0.321 A  
HETATM    6  C   UNL     1      -8.719  15.542  66.562  1.00  0.00    -0.340 A  
HETATM    7  C   UNL     1      -8.945  14.170  66.781  1.00  0.00    -0.229 A  
HETATM    8  C   UNL     1      -7.446  16.092  67.120  1.00  0.00    -0.218 C  
HETATM    9  O   UNL     1      -7.244  17.412  66.954  1.00  0.00    -0.166 OA 
HETATM   10  C   UNL     1     -10.101  13.537  66.307  1.00  0.00    -0.298 A  
HETATM   11  O   UNL     1      -6.626  15.388  67.692  1.00  0.00    -0.146 OA 
HETATM   12  C   UNL     1     -11.072  14.266  65.615  1.00  0.00    -0.316 A  
HETATM   13  C   UNL     1     -10.872  15.639  65.429  1.00  0.00    -0.394 A  
HETATM   14  C   UNL     1     -12.313  13.619  65.050  1.00  0.00    -0.427 C  
HETATM   15  F   UNL     1     -13.453  14.154  65.570  1.00  0.00    -0.470 F  
HETATM   16  F   UNL     1     -12.407  13.777  63.702  1.00  0.00    -0.505 F  
HETATM   17  F   UNL     1     -12.384  12.281  65.279  1.00  0.00    -0.475 F  
ENDBRANCH   4   5
ENDBRANCH   2   4
TORSDOF 2
ENDMDL
MODEL       26
REMARK 921   NORMALIZED FREE ENERGY PREDICTED BY IDOCK:   -5.51 KCAL/MOL
REMARK 922        TOTAL FREE ENERGY PREDICTED BY IDOCK:   -6.39 KCAL/MOL
REMARK 923 INTER-LIGAND FREE ENERGY PREDICTED BY IDOCK:   -6.06 KCAL/MOL
REMARK 924 INTRA-LIGAND FREE ENERGY PREDICTED BY IDOCK:   -0.33 KCAL/MOL
REMARK 927      BINDING AFFINITY PREDICTED BY RF-SCORE:    0.00 PKD
ROOT
HETATM    1  C   UNL     1     -12.340  11.967  63.559  1.00  0.00    -0.661 C  
HETATM    2  C   UNL     1     -12.448  13.206  64.393  1.00  0.00    -0.310 C  
HETATM    3  O   UNL     1     -13.361  13.442  65.170  1.00  0.00    -0.611 OA 
ENDROOT
BRANCH   2   4
HETATM    4  O   UNL     1     -11.368  14.052  64.108  1.00  0.00    -0.300 OA 
BRANCH   4   5
HETATM    5  C   UNL     1     -10.530  14.386  65.195  1.00  0.00    -0.415 A  
HETATM    6  C   UNL     1     -10.349  15.719  65.589  1.00  0.00    -0.411 A  
HETATM    7  C   UNL     1      -9.563  15.971  66.730  1.00  0.00    -0.248 A  
HETATM    8  C   UNL     1     -10.926  16.922  64.915  1.00  0.00    -0.001 C  
HETATM    9  O   UNL     1     -11.716  16.687  63.850  1.00  0.00    -1.153 OA 
HETATM   10  C   UNL     1      -8.967  14.927  67.448  1.00  0.00    -0.198 A  
HETATM   11  O   UNL     1     -10.695  18.059  65.299  1.00  0.00    -0.625 OA 
HETATM   12  C   UNL     1      -9.156  13.600  67.054  1.00  0.00    -0.254 A  
HETATM   13  C   UNL     1      -9.969  13.341  65.944  1.00  0.00    -0.280 A  
HETATM   14  C   UNL     1      -8.500  12.447  67.773  1.00  0.00    -0.169 C  
HETATM   15  F   UNL     1      -9.413  11.570  68.277  1.00  0.00    -0.163 F  
HETATM   16  F   UNL     1      -7.698  11.717  66.950  1.00  0.00    -0.142 F  
HETATM   17  F   UNL     1      -7.721  12.826  68.820  1.00  0.00    -0.123 F  
ENDBRANCH   4   5
ENDBRANCH   2   4
TORSDOF 2
ENDMDL
MODEL       27
REMARK 921   NORMALIZED FREE ENERGY PREDICTED BY IDOCK:   -5.47 KCAL/MOL
REMARK 922        TOTAL FREE ENERGY PREDICTED BY IDOCK:   -6.34 KCAL/MOL
REMARK 923 INTER-LIGAND FREE ENERGY PREDICTED BY IDOCK:   -6.00 KCAL/MOL
REMARK 924 INTRA-LIGAND FREE ENERGY PREDICTED BY IDOCK:   -0.35 KCAL/MOL
REMARK 927      BINDING AFFINITY PREDICTED BY RF-SCORE:    0.00 PKD
ROOT
HETATM    1  C   UNL     1      -9.670   8.812  67.180  1.00  0.00    -0.248 C  
HETATM    2  C   UNL     1      -9.721  10.168  67.815  1.00  0.00    -0.153 C  
HETATM    3  O   UNL     1      -8.739  10.816  68.148  1.00  0.00    -0.122 OA 
ENDROOT
BRANCH   2   4
HETATM    4  O   UNL     1     -11.058  10.543  67.998  1.00  0.00    -0.266 OA 
BRANCH   4   5
HETATM    5  C   UNL     1     -11.492  11.682  67.282  1.00  0.00    -0.277 A  
HETATM    6  C   UNL     1     -11.812  12.876  67.943  1.00  0.00    -0.388 A  
HETATM    7  C   UNL     1     -12.161  13.992  67.160  1.00  0.00    -0.436 A  
HETATM    8  C   UNL     1     -11.808  13.091  69.422  1.00  0.00    -0.322 C  
HETATM    9  O   UNL     1     -11.432  12.041  70.176  1.00  0.00    -0.192 OA 
HETATM   10  C   UNL     1     -12.201  13.917  65.762  1.00  0.00    -0.488 A  
HETATM   11  O   UNL     1     -12.132  14.155  69.928  1.00  0.00    -0.308 OA 
HETATM   12  C   UNL     1     -11.876  12.726  65.109  1.00  0.00    -0.428 A  
HETATM   13  C   UNL     1     -11.489  11.623  65.880  1.00  0.00    -0.189 A  
HETATM   14  C   UNL     1     -11.946  12.587  63.607  1.00  0.00    -0.537 C  
HETATM   15  F   UNL     1     -10.740  12.258  63.066  1.00  0.00    -0.433 F  
HETATM   16  F   UNL     1     -12.807  11.607  63.221  1.00  0.00    -0.691 F  
HETATM   17  F   UNL     1     -12.351  13.717  62.971  1.00  0.00    -0.516 F  
ENDBRANCH   4   5
ENDBRANCH   2   4
TORSDOF 2
ENDMDL
MODEL       28
REMARK 921   NORMALIZED FREE ENERGY PREDICTED BY IDOCK:   -5.39 KCAL/MOL
REMARK 922        TOTAL FREE ENERGY PREDICTED BY IDOCK:   -6.25 KCAL/MOL
REMARK 923 INTER-LIGAND FREE ENERGY PREDICTED BY IDOCK:   -6.08 KCAL/MOL
REMARK 924 INTRA-LIGAND FREE ENERGY PREDICTED BY IDOCK:   -0.17 KCAL/MOL
REMARK 927      BINDING AFFINITY PREDICTED BY RF-SCORE:    0.00 PKD
ROOT
HETATM    1  C   UNL     1      -9.352  16.241  65.864  1.00  0.00    -0.299 C  
HETATM    2  C   UNL     1     -10.783  16.253  65.422  1.00  0.00    -0.327 C  
HETATM    3  O   UNL     1     -11.181  16.730  64.370  1.00  0.00    -1.112 OA 
ENDROOT
BRANCH   2   4
HETATM    4  O   UNL     1     -11.580  15.673  66.418  1.00  0.00     0.057 OA 
BRANCH   4   5
HETATM    5  C   UNL     1     -11.358  14.302  66.678  1.00  0.00    -0.349 A  
HETATM    6  C   UNL     1     -11.491  13.778  67.971  1.00  0.00    -0.344 A  
HETATM    7  C   UNL     1     -11.333  12.389  68.142  1.00  0.00    -0.341 A  
HETATM    8  C   UNL     1     -11.802  14.557  69.209  1.00  0.00    -0.323 C  
HETATM    9  O   UNL     1     -12.000  15.878  69.047  1.00  0.00    -0.378 OA 
HETATM   10  C   UNL     1     -11.039  11.552  67.059  1.00  0.00    -0.365 A  
HETATM   11  O   UNL     1     -11.870  14.032  70.310  1.00  0.00    -0.299 OA 
HETATM   12  C   UNL     1     -10.913  12.079  65.771  1.00  0.00    -0.351 A  
HETATM   13  C   UNL     1     -11.109  13.453  65.589  1.00  0.00    -0.298 A  
HETATM   14  C   UNL     1     -10.557  11.221  64.582  1.00  0.00    -0.327 C  
HETATM   15  F   UNL     1     -11.519  11.254  63.618  1.00  0.00    -0.471 F  
HETATM   16  F   UNL     1      -9.409  11.632  63.977  1.00  0.00    -0.186 F  
HETATM   17  F   UNL     1     -10.373   9.910  64.888  1.00  0.00    -0.364 F  
ENDBRANCH   4   5
ENDBRANCH   2   4
TORSDOF 2
ENDMDL
MODEL       29
REMARK 921   NORMALIZED FREE ENERGY PREDICTED BY IDOCK:   -5.37 KCAL/MOL
REMARK 922        TOTAL FREE ENERGY PREDICTED BY IDOCK:   -6.23 KCAL/MOL
REMARK 923 INTER-LIGAND FREE ENERGY PREDICTED BY IDOCK:   -5.97 KCAL/MOL
REMARK 924 INTRA-LIGAND FREE ENERGY PREDICTED BY IDOCK:   -0.26 KCAL/MOL
REMARK 927      BINDING AFFINITY PREDICTED BY RF-SCORE:    0.00 PKD
ROOT
HETATM    1  C   UNL     1      -9.903  15.681  69.460  1.00  0.00    -0.289 C  
HETATM    2  C   UNL     1     -10.989  15.600  68.432  1.00  0.00    -0.308 C  
HETATM    3  O   UNL     1     -10.870  15.949  67.266  1.00  0.00    -0.319 OA 
ENDROOT
BRANCH   2   4
HETATM    4  O   UNL     1     -12.156  15.106  69.029  1.00  0.00    -0.285 OA 
BRANCH   4   5
HETATM    5  C   UNL     1     -12.069  13.816  69.601  1.00  0.00    -0.336 A  
HETATM    6  C   UNL     1     -12.637  13.538  70.852  1.00  0.00    -0.414 A  
HETATM    7  C   UNL     1     -12.580  12.213  71.324  1.00  0.00    -0.341 A  
HETATM    8  C   UNL     1     -13.320  14.521  71.747  1.00  0.00    -0.363 C  
HETATM    9  O   UNL     1     -13.418  15.781  71.283  1.00  0.00    -0.555 OA 
HETATM   10  C   UNL     1     -11.965  11.200  70.577  1.00  0.00    -0.475 A  
HETATM   11  O   UNL     1     -13.763  14.209  72.842  1.00  0.00    -0.658 OA 
HETATM   12  C   UNL     1     -11.406  11.482  69.329  1.00  0.00    -0.353 A  
HETATM   13  C   UNL     1     -11.495  12.790  68.836  1.00  0.00    -0.352 A  
HETATM   14  C   UNL     1     -10.698  10.432  68.508  1.00  0.00    -0.221 C  
HETATM   15  F   UNL     1     -11.285  10.248  67.293  1.00  0.00    -0.348 F  
HETATM   16  F   UNL     1      -9.404  10.767  68.250  1.00  0.00    -0.141 F  
HETATM   17  F   UNL     1     -10.661   9.209  69.099  1.00  0.00    -0.215 F  
ENDBRANCH   4   5
ENDBRANCH   2   4
TORSDOF 2
ENDMDL
MODEL       30
REMARK 921   NORMALIZED FREE ENERGY PREDICTED BY IDOCK:   -5.36 KCAL/MOL
REMARK 922        TOTAL FREE ENERGY PREDICTED BY IDOCK:   -6.23 KCAL/MOL
REMARK 923 INTER-LIGAND FREE ENERGY PREDICTED BY IDOCK:   -5.83 KCAL/MOL
REMARK 924 INTRA-LIGAND FREE ENERGY PREDICTED BY IDOCK:   -0.40 KCAL/MOL
REMARK 927      BINDING AFFINITY PREDICTED BY RF-SCORE:    0.00 PKD
ROOT
HETATM    1  C   UNL     1      -8.912  11.196  66.774  1.00  0.00    -0.169 C  
HETATM    2  C   UNL     1     -10.266  10.575  66.618  1.00  0.00    -0.233 C  
HETATM    3  O   UNL     1     -10.467   9.383  66.440  1.00  0.00    -0.204 OA 
ENDROOT
BRANCH   2   4
HETATM    4  O   UNL     1     -11.244  11.578  66.670  1.00  0.00    -0.306 OA 
BRANCH   4   5
HETATM    5  C   UNL     1     -11.577  12.062  67.955  1.00  0.00    -0.337 A  
HETATM    6  C   UNL     1     -11.602  13.437  68.229  1.00  0.00    -0.379 A  
HETATM    7  C   UNL     1     -12.020  13.849  69.508  1.00  0.00    -0.396 A  
HETATM    8  C   UNL     1     -11.235  14.530  67.277  1.00  0.00    -0.332 C  
HETATM    9  O   UNL     1     -10.878  14.146  66.038  1.00  0.00    -0.291 OA 
HETATM   10  C   UNL     1     -12.389  12.919  70.488  1.00  0.00    -0.362 A  
HETATM   11  O   UNL     1     -11.250  15.708  67.600  1.00  0.00    -0.326 OA 
HETATM   12  C   UNL     1     -12.368  11.551  70.207  1.00  0.00    -0.355 A  
HETATM   13  C   UNL     1     -11.992  11.136  68.924  1.00  0.00    -0.367 A  
HETATM   14  C   UNL     1     -12.718  10.511  71.244  1.00  0.00    -0.428 C  
HETATM   15  F   UNL     1     -13.775   9.742  70.864  1.00  0.00    -0.418 F  
HETATM   16  F   UNL     1     -11.692   9.647  71.474  1.00  0.00    -0.389 F  
HETATM   17  F   UNL     1     -13.048  11.035  72.455  1.00  0.00    -0.534 F  
ENDBRANCH   4   5
ENDBRANCH   2   4
TORSDOF 2
ENDMDL
MODEL       31
REMARK 921   NORMALIZED FREE ENERGY PREDICTED BY IDOCK:   -5.35 KCAL/MOL
REMARK 922        TOTAL FREE ENERGY PREDICTED BY IDOCK:   -6.21 KCAL/MOL
REMARK 923 INTER-LIGAND FREE ENERGY PREDICTED BY IDOCK:   -6.36 KCAL/MOL
REMARK 924 INTRA-LIGAND FREE ENERGY PREDICTED BY IDOCK:    0.15 KCAL/MOL
REMARK 927      BINDING AFFINITY PREDICTED BY RF-SCORE:    0.00 PKD
ROOT
HETATM    1  C   UNL     1     -10.371  10.336  69.573  1.00  0.00    -0.267 C  
HETATM    2  C   UNL     1     -11.542  11.042  68.962  1.00  0.00    -0.323 C  
HETATM    3  O   UNL     1     -11.814  11.033  67.771  1.00  0.00    -0.605 OA 
ENDROOT
BRANCH   2   4
HETATM    4  O   UNL     1     -12.238  11.736  69.961  1.00  0.00    -0.287 OA 
BRANCH   4   5
HETATM    5  C   UNL     1     -12.230  13.146  69.865  1.00  0.00    -0.225 A  
HETATM    6  C   UNL     1     -12.781  13.945  70.876  1.00  0.00    -0.410 A  
HETATM    7  C   UNL     1     -12.667  15.343  70.751  1.00  0.00    -0.516 A  
HETATM    8  C   UNL     1     -13.480  13.454  72.104  1.00  0.00    -0.552 C  
HETATM    9  O   UNL     1     -13.553  12.119  72.253  1.00  0.00    -0.432 OA 
HETATM   10  C   UNL     1     -12.034  15.925  69.646  1.00  0.00    -0.272 A  
HETATM   11  O   UNL     1     -13.964  14.216  72.927  1.00  0.00    -0.602 OA 
HETATM   12  C   UNL     1     -11.482  15.123  68.644  1.00  0.00    -0.341 A  
HETATM   13  C   UNL     1     -11.556  13.732  68.783  1.00  0.00    -0.363 A  
HETATM   14  C   UNL     1     -10.827  15.707  67.415  1.00  0.00    -0.315 C  
HETATM   15  F   UNL     1      -9.523  15.330  67.300  1.00  0.00    -0.200 F  
HETATM   16  F   UNL     1     -11.434  15.302  66.267  1.00  0.00    -0.321 F  
HETATM   17  F   UNL     1     -10.833  17.066  67.386  1.00  0.00    -0.330 F  
ENDBRANCH   4   5
ENDBRANCH   2   4
TORSDOF 2
ENDMDL
MODEL       32
REMARK 921   NORMALIZED FREE ENERGY PREDICTED BY IDOCK:   -5.33 KCAL/MOL
REMARK 922        TOTAL FREE ENERGY PREDICTED BY IDOCK:   -6.19 KCAL/MOL
REMARK 923 INTER-LIGAND FREE ENERGY PREDICTED BY IDOCK:   -5.84 KCAL/MOL
REMARK 924 INTRA-LIGAND FREE ENERGY PREDICTED BY IDOCK:   -0.35 KCAL/MOL
REMARK 927      BINDING AFFINITY PREDICTED BY RF-SCORE:    0.00 PKD
ROOT
HETATM    1  C   UNL     1     -11.993  13.301  70.207  1.00  0.00    -0.372 C  
HETATM    2  C   UNL     1     -11.899  14.666  69.599  1.00  0.00    -0.320 C  
HETATM    3  O   UNL     1     -12.742  15.543  69.727  1.00  0.00    -0.189 OA 
ENDROOT
BRANCH   2   4
HETATM    4  O   UNL     1     -10.726  14.755  68.838  1.00  0.00    -0.236 OA 
BRANCH   4   5
HETATM    5  C   UNL     1     -10.893  14.980  67.453  1.00  0.00    -0.305 A  
HETATM    6  C   UNL     1     -10.531  16.202  66.868  1.00  0.00    -0.300 A  
HETATM    7  C   UNL     1     -10.652  16.327  65.471  1.00  0.00    -0.369 A  
HETATM    8  C   UNL     1     -10.009  17.402  67.590  1.00  0.00    -0.300 C  
HETATM    9  O   UNL     1      -9.848  17.275  68.920  1.00  0.00    -0.290 OA 
HETATM   10  C   UNL     1     -11.129  15.272  64.684  1.00  0.00    -0.346 A  
HETATM   11  O   UNL     1      -9.745  18.447  67.012  1.00  0.00    -0.290 OA 
HETATM   12  C   UNL     1     -11.483  14.055  65.272  1.00  0.00    -0.322 A  
HETATM   13  C   UNL     1     -11.328  13.910  66.657  1.00  0.00    -0.342 A  
HETATM   14  C   UNL     1     -12.042  12.906  64.469  1.00  0.00    -0.413 C  
HETATM   15  F   UNL     1     -11.265  11.790  64.562  1.00  0.00    -0.353 F  
HETATM   16  F   UNL     1     -13.280  12.534  64.895  1.00  0.00    -0.487 F  
HETATM   17  F   UNL     1     -12.163  13.173  63.142  1.00  0.00    -0.610 F  
ENDBRANCH   4   5
ENDBRANCH   2   4
TORSDOF 2
ENDMDL
MODEL       33
REMARK 921   NORMALIZED FREE ENERGY PREDICTED BY IDOCK:   -5.28 KCAL/MOL
REMARK 922        TOTAL FREE ENERGY PREDICTED BY IDOCK:   -6.13 KCAL/MOL
REMARK 923 INTER-LIGAND FREE ENERGY PREDICTED BY IDOCK:   -5.98 KCAL/MOL
REMARK 924 INTRA-LIGAND FREE ENERGY PREDICTED BY IDOCK:   -0.15 KCAL/MOL
REMARK 927      BINDING AFFINITY PREDICTED BY RF-SCORE:    0.00 PKD
ROOT
HETATM    1  C   UNL     1     -10.955  10.411  69.811  1.00  0.00    -0.345 C  
HETATM    2  C   UNL     1     -11.397  11.374  68.752  1.00  0.00    -0.271 C  
HETATM    3  O   UNL     1     -12.258  11.139  67.917  1.00  0.00    -0.521 OA 
ENDROOT
BRANCH   2   4
HETATM    4  O   UNL     1     -10.644  12.551  68.852  1.00  0.00    -0.204 OA 
BRANCH   4   5
HETATM    5  C   UNL     1     -11.295  13.664  69.429  1.00  0.00    -0.245 A  
HETATM    6  C   UNL     1     -11.296  14.914  68.794  1.00  0.00    -0.304 A  
HETATM    7  C   UNL     1     -12.032  15.957  69.388  1.00  0.00    -0.268 A  
HETATM    8  C   UNL     1     -10.593  15.254  67.519  1.00  0.00    -0.273 C  
HETATM    9  O   UNL     1      -9.925  14.250  66.922  1.00  0.00    -0.252 OA 
HETATM   10  C   UNL     1     -12.734  15.763  70.584  1.00  0.00    -0.336 A  
HETATM   11  O   UNL     1     -10.613  16.379  67.043  1.00  0.00    -0.305 OA 
HETATM   12  C   UNL     1     -12.733  14.514  71.209  1.00  0.00    -0.413 A  
HETATM   13  C   UNL     1     -12.037  13.461  70.603  1.00  0.00    -0.374 A  
HETATM   14  C   UNL     1     -13.441  14.270  72.520  1.00  0.00    -0.515 C  
HETATM   15  F   UNL     1     -14.399  13.307  72.415  1.00  0.00    -0.555 F  
HETATM   16  F   UNL     1     -12.590  13.845  73.493  1.00  0.00    -0.292 F  
HETATM   17  F   UNL     1     -14.065  15.370  73.018  1.00  0.00    -0.505 F  
ENDBRANCH   4   5
ENDBRANCH   2   4
TORSDOF 2
ENDMDL
MODEL       34
REMARK 921   NORMALIZED FREE ENERGY PREDICTED BY IDOCK:   -5.27 KCAL/MOL
REMARK 922        TOTAL FREE ENERGY PREDICTED BY IDOCK:   -6.13 KCAL/MOL
REMARK 923 INTER-LIGAND FREE ENERGY PREDICTED BY IDOCK:   -5.76 KCAL/MOL
REMARK 924 INTRA-LIGAND FREE ENERGY PREDICTED BY IDOCK:   -0.36 KCAL/MOL
REMARK 927      BINDING AFFINITY PREDICTED BY RF-SCORE:    0.00 PKD
ROOT
HETATM    1  C   UNL     1     -11.933  12.334  63.247  1.00  0.00    -0.499 C  
HETATM    2  C   UNL     1     -12.309  12.533  64.683  1.00  0.00    -0.474 C  
HETATM    3  O   UNL     1     -13.409  12.899  65.069  1.00  0.00    -0.682 OA 
ENDROOT
BRANCH   2   4
HETATM    4  O   UNL     1     -11.195  12.273  65.493  1.00  0.00    -0.310 OA 
BRANCH   4   5
HETATM    5  C   UNL     1     -10.876  13.260  66.454  1.00  0.00    -0.288 A  
HETATM    6  C   UNL     1     -10.972  12.994  67.827  1.00  0.00    -0.273 A  
HETATM    7  C   UNL     1     -10.563  13.997  68.725  1.00  0.00    -0.260 A  
HETATM    8  C   UNL     1     -11.463  11.724  68.444  1.00  0.00    -0.294 C  
HETATM    9  O   UNL     1     -11.814  10.743  67.592  1.00  0.00    -0.505 OA 
HETATM   10  C   UNL     1     -10.084  15.231  68.269  1.00  0.00    -0.225 A  
HETATM   11  O   UNL     1     -11.550  11.578  69.654  1.00  0.00    -0.283 OA 
HETATM   12  C   UNL     1      -9.985  15.488  66.900  1.00  0.00    -0.251 A  
HETATM   13  C   UNL     1     -10.352  14.480  66.000  1.00  0.00    -0.320 A  
HETATM   14  C   UNL     1      -9.513  16.818  66.363  1.00  0.00    -0.282 C  
HETATM   15  F   UNL     1      -8.399  16.694  65.590  1.00  0.00    -0.240 F  
HETATM   16  F   UNL     1     -10.448  17.415  65.575  1.00  0.00    -0.335 F  
HETATM   17  F   UNL     1      -9.204  17.720  67.331  1.00  0.00    -0.241 F  
ENDBRANCH   4   5
ENDBRANCH   2   4
TORSDOF 2
ENDMDL
MODEL       35
REMARK 921   NORMALIZED FREE ENERGY PREDICTED BY IDOCK:   -5.25 KCAL/MOL
REMARK 922        TOTAL FREE ENERGY PREDICTED BY IDOCK:   -6.10 KCAL/MOL
REMARK 923 INTER-LIGAND FREE ENERGY PREDICTED BY IDOCK:   -5.75 KCAL/MOL
REMARK 924 INTRA-LIGAND FREE ENERGY PREDICTED BY IDOCK:   -0.36 KCAL/MOL
REMARK 927      BINDING AFFINITY PREDICTED BY RF-SCORE:    0.00 PKD
ROOT
HETATM    1  C   UNL     1     -13.225  15.326  70.339  1.00  0.00    -0.171 C  
HETATM    2  C   UNL     1     -11.829  15.585  70.816  1.00  0.00    -0.367 C  
HETATM    3  O   UNL     1     -11.547  16.183  71.844  1.00  0.00    -0.458 OA 
ENDROOT
BRANCH   2   4
HETATM    4  O   UNL     1     -10.918  15.073  69.882  1.00  0.00    -0.255 OA 
BRANCH   4   5
HETATM    5  C   UNL     1     -10.656  15.882  68.754  1.00  0.00    -0.245 A  
HETATM    6  C   UNL     1     -10.860  15.402  67.453  1.00  0.00    -0.309 A  
HETATM    7  C   UNL     1     -10.654  16.289  66.381  1.00  0.00    -0.253 A  
HETATM    8  C   UNL     1     -11.294  14.019  67.084  1.00  0.00    -0.331 C  
HETATM    9  O   UNL     1     -11.536  13.178  68.106  1.00  0.00    -0.296 OA 
HETATM   10  C   UNL     1     -10.246  17.611  66.597  1.00  0.00    -0.341 A  
HETATM   11  O   UNL     1     -11.418  13.663  65.922  1.00  0.00    -0.307 OA 
HETATM   12  C   UNL     1     -10.050  18.086  67.896  1.00  0.00    -0.360 A  
HETATM   13  C   UNL     1     -10.292  17.220  68.970  1.00  0.00    -0.330 A  
HETATM   14  C   UNL     1      -9.572  19.490  68.176  1.00  0.00    -0.368 C  
HETATM   15  F   UNL     1     -10.462  20.196  68.927  1.00  0.00    -0.546 F  
HETATM   16  F   UNL     1      -8.402  19.506  68.872  1.00  0.00    -0.386 F  
HETATM   17  F   UNL     1      -9.354  20.228  67.055  1.00  0.00    -0.424 F  
ENDBRANCH   4   5
ENDBRANCH   2   4
TORSDOF 2
ENDMDL
MODEL       36
REMARK 921   NORMALIZED FREE ENERGY PREDICTED BY IDOCK:   -5.24 KCAL/MOL
REMARK 922        TOTAL FREE ENERGY PREDICTED BY IDOCK:   -6.09 KCAL/MOL
REMARK 923 INTER-LIGAND FREE ENERGY PREDICTED BY IDOCK:   -6.34 KCAL/MOL
REMARK 924 INTRA-LIGAND FREE ENERGY PREDICTED BY IDOCK:    0.26 KCAL/MOL
REMARK 927      BINDING AFFINITY PREDICTED BY RF-SCORE:    0.00 PKD
ROOT
HETATM    1  C   UNL     1     -13.194  10.493  71.991  1.00  0.00    -0.483 C  
HETATM    2  C   UNL     1     -12.501  11.546  71.183  1.00  0.00    -0.337 C  
HETATM    3  O   UNL     1     -11.504  11.355  70.502  1.00  0.00    -0.201 OA 
ENDROOT
BRANCH   2   4
HETATM    4  O   UNL     1     -13.150  12.774  71.367  1.00  0.00    -0.329 OA 
BRANCH   4   5
HETATM    5  C   UNL     1     -12.575  13.890  70.718  1.00  0.00    -0.354 A  
HETATM    6  C   UNL     1     -12.229  15.046  71.432  1.00  0.00    -0.388 A  
HETATM    7  C   UNL     1     -11.588  16.087  70.734  1.00  0.00    -0.431 A  
HETATM    8  C   UNL     1     -12.464  15.284  72.889  1.00  0.00    -0.406 C  
HETATM    9  O   UNL     1     -13.036  14.275  73.572  1.00  0.00    -0.494 OA 
HETATM   10  C   UNL     1     -11.312  15.984  69.365  1.00  0.00    -0.355 A  
HETATM   11  O   UNL     1     -12.163  16.334  73.435  1.00  0.00    -0.491 OA 
HETATM   12  C   UNL     1     -11.655  14.828  68.660  1.00  0.00    -0.345 A  
HETATM   13  C   UNL     1     -12.256  13.772  69.357  1.00  0.00    -0.325 A  
HETATM   14  C   UNL     1     -11.414  14.689  67.176  1.00  0.00    -0.368 C  
HETATM   15  F   UNL     1     -10.595  13.640  66.885  1.00  0.00    -0.264 F  
HETATM   16  F   UNL     1     -12.566  14.464  66.488  1.00  0.00    -0.461 F  
HETATM   17  F   UNL     1     -10.843  15.784  66.610  1.00  0.00    -0.312 F  
ENDBRANCH   4   5
ENDBRANCH   2   4
TORSDOF 2
ENDMDL
MODEL       37
REMARK 921   NORMALIZED FREE ENERGY PREDICTED BY IDOCK:   -5.22 KCAL/MOL
REMARK 922        TOTAL FREE ENERGY PREDICTED BY IDOCK:   -6.06 KCAL/MOL
REMARK 923 INTER-LIGAND FREE ENERGY PREDICTED BY IDOCK:   -5.75 KCAL/MOL
REMARK 924 INTRA-LIGAND FREE ENERGY PREDICTED BY IDOCK:   -0.31 KCAL/MOL
REMARK 927      BINDING AFFINITY PREDICTED BY RF-SCORE:    0.00 PKD
ROOT
HETATM    1  C   UNL     1     -12.101  14.573  64.686  1.00  0.00    -0.486 C  
HETATM    2  C   UNL     1     -11.983  13.190  64.122  1.00  0.00    -0.436 C  
HETATM    3  O   UNL     1     -12.910  12.556  63.641  1.00  0.00    -0.731 OA 
ENDROOT
BRANCH   2   4
HETATM    4  O   UNL     1     -10.666  12.739  64.274  1.00  0.00    -0.345 OA 
BRANCH   4   5
HETATM    5  C   UNL     1     -10.479  11.626  65.124  1.00  0.00    -0.279 A  
HETATM    6  C   UNL     1      -9.834  10.467  64.671  1.00  0.00    -0.405 A  
HETATM    7  C   UNL     1      -9.613   9.429  65.595  1.00  0.00    -0.345 A  
HETATM    8  C   UNL     1      -9.335  10.223  63.283  1.00  0.00    -0.306 C  
HETATM    9  O   UNL     1      -9.502  11.229  62.405  1.00  0.00    -0.232 OA 
HETATM   10  C   UNL     1     -10.033   9.537  66.926  1.00  0.00    -0.278 A  
HETATM   11  O   UNL     1      -8.810   9.170  62.954  1.00  0.00    -0.213 OA 
HETATM   12  C   UNL     1     -10.672  10.697  67.373  1.00  0.00    -0.326 A  
HETATM   13  C   UNL     1     -10.858  11.749  66.469  1.00  0.00    -0.323 A  
HETATM   14  C   UNL     1     -11.179  10.842  68.788  1.00  0.00    -0.272 C  
HETATM   15  F   UNL     1     -10.600  11.891  69.436  1.00  0.00    -0.193 F  
HETATM   16  F   UNL     1     -12.520  11.070  68.832  1.00  0.00    -0.362 F  
HETATM   17  F   UNL     1     -10.956   9.748  69.564  1.00  0.00    -0.219 F  
ENDBRANCH   4   5
ENDBRANCH   2   4
TORSDOF 2
ENDMDL
MODEL       38
REMARK 921   NORMALIZED FREE ENERGY PREDICTED BY IDOCK:   -5.19 KCAL/MOL
REMARK 922        TOTAL FREE ENERGY PREDICTED BY IDOCK:   -6.04 KCAL/MOL
REMARK 923 INTER-LIGAND FREE ENERGY PREDICTED BY IDOCK:   -5.96 KCAL/MOL
REMARK 924 INTRA-LIGAND FREE ENERGY PREDICTED BY IDOCK:   -0.07 KCAL/MOL
REMARK 927      BINDING AFFINITY PREDICTED BY RF-SCORE:    0.00 PKD
ROOT
HETATM    1  C   UNL     1     -14.297  15.091  71.911  1.00  0.00    -0.677 C  
HETATM    2  C   UNL     1     -13.001  14.344  71.983  1.00  0.00    -0.353 C  
HETATM    3  O   UNL     1     -11.928  14.843  72.293  1.00  0.00    -0.352 OA 
ENDROOT
BRANCH   2   4
HETATM    4  O   UNL     1     -13.212  13.012  71.602  1.00  0.00    -0.386 OA 
BRANCH   4   5
HETATM    5  C   UNL     1     -12.469  12.554  70.491  1.00  0.00    -0.185 A  
HETATM    6  C   UNL     1     -12.159  11.196  70.336  1.00  0.00    -0.475 A  
HETATM    7  C   UNL     1     -11.485  10.801  69.165  1.00  0.00    -0.368 A  
HETATM    8  C   UNL     1     -12.489  10.102  71.301  1.00  0.00    -0.406 C  
HETATM    9  O   UNL     1     -13.173  10.466  72.402  1.00  0.00    -0.307 OA 
HETATM   10  C   UNL     1     -11.121  11.732  68.185  1.00  0.00    -0.297 A  
HETATM   11  O   UNL     1     -12.155   8.942  71.112  1.00  0.00    -0.291 OA 
HETATM   12  C   UNL     1     -11.437  13.083  68.343  1.00  0.00    -0.345 A  
HETATM   13  C   UNL     1     -12.143  13.477  69.486  1.00  0.00    -0.352 A  
HETATM   14  C   UNL     1     -11.029  14.128  67.333  1.00  0.00    -0.299 C  
HETATM   15  F   UNL     1     -12.103  14.780  66.805  1.00  0.00    -0.374 F  
HETATM   16  F   UNL     1     -10.241  15.093  67.881  1.00  0.00    -0.225 F  
HETATM   17  F   UNL     1     -10.334  13.627  66.278  1.00  0.00    -0.271 F  
ENDBRANCH   4   5
ENDBRANCH   2   4
TORSDOF 2
ENDMDL
MODEL       39
REMARK 921   NORMALIZED FREE ENERGY PREDICTED BY IDOCK:   -5.19 KCAL/MOL
REMARK 922        TOTAL FREE ENERGY PREDICTED BY IDOCK:   -6.03 KCAL/MOL
REMARK 923 INTER-LIGAND FREE ENERGY PREDICTED BY IDOCK:   -5.86 KCAL/MOL
REMARK 924 INTRA-LIGAND FREE ENERGY PREDICTED BY IDOCK:   -0.17 KCAL/MOL
REMARK 927      BINDING AFFINITY PREDICTED BY RF-SCORE:    0.00 PKD
ROOT
HETATM    1  C   UNL     1     -12.183   8.693  72.468  1.00  0.00    -0.374 C  
HETATM    2  C   UNL     1     -12.706   9.518  71.333  1.00  0.00    -0.358 C  
HETATM    3  O   UNL     1     -13.886   9.616  71.031  1.00  0.00    -0.219 OA 
ENDROOT
BRANCH   2   4
HETATM    4  O   UNL     1     -11.631  10.116  70.661  1.00  0.00    -0.291 OA 
BRANCH   4   5
HETATM    5  C   UNL     1     -11.817  11.455  70.249  1.00  0.00    -0.350 A  
HETATM    6  C   UNL     1     -11.608  11.840  68.917  1.00  0.00    -0.370 A  
HETATM    7  C   UNL     1     -11.890  13.172  68.562  1.00  0.00    -0.377 A  
HETATM    8  C   UNL     1     -11.120  10.958  67.813  1.00  0.00    -0.309 C  
HETATM    9  O   UNL     1     -10.893   9.671  68.135  1.00  0.00    -0.237 OA 
HETATM   10  C   UNL     1     -12.353  14.096  69.507  1.00  0.00    -0.275 A  
HETATM   11  O   UNL     1     -10.931  11.376  66.680  1.00  0.00    -0.281 OA 
HETATM   12  C   UNL     1     -12.564  13.705  70.832  1.00  0.00    -0.421 A  
HETATM   13  C   UNL     1     -12.325  12.371  71.183  1.00  0.00    -0.243 A  
HETATM   14  C   UNL     1     -13.022  14.675  71.894  1.00  0.00    -0.331 C  
HETATM   15  F   UNL     1     -14.207  14.302  72.453  1.00  0.00    -0.519 F  
HETATM   16  F   UNL     1     -12.137  14.767  72.923  1.00  0.00    -0.388 F  
HETATM   17  F   UNL     1     -13.202  15.942  71.436  1.00  0.00    -0.521 F  
ENDBRANCH   4   5
ENDBRANCH   2   4
TORSDOF 2
ENDMDL
MODEL       40
REMARK 921   NORMALIZED FREE ENERGY PREDICTED BY IDOCK:   -5.17 KCAL/MOL
REMARK 922        TOTAL FREE ENERGY PREDICTED BY IDOCK:   -6.01 KCAL/MOL
REMARK 923 INTER-LIGAND FREE ENERGY PREDICTED BY IDOCK:   -5.70 KCAL/MOL
REMARK 924 INTRA-LIGAND FREE ENERGY PREDICTED BY IDOCK:   -0.31 KCAL/MOL
REMARK 927      BINDING AFFINITY PREDICTED BY RF-SCORE:    0.00 PKD
ROOT
HETATM    1  C   UNL     1     -10.429   9.849  67.675  1.00  0.00    -0.296 C  
HETATM    2  C   UNL     1     -11.060  11.071  67.082  1.00  0.00    -0.267 C  
HETATM    3  O   UNL     1     -12.101  11.576  67.477  1.00  0.00    -0.614 OA 
ENDROOT
BRANCH   2   4
HETATM    4  O   UNL     1     -10.292  11.507  65.994  1.00  0.00    -0.231 OA 
BRANCH   4   5
HETATM    5  C   UNL     1     -10.077  12.900  65.898  1.00  0.00    -0.289 A  
HETATM    6  C   UNL     1     -10.822  13.691  65.012  1.00  0.00    -0.358 A  
HETATM    7  C   UNL     1     -10.608  15.082  65.028  1.00  0.00    -0.437 A  
HETATM    8  C   UNL     1     -11.849  13.198  64.044  1.00  0.00    -0.453 C  
HETATM    9  O   UNL     1     -12.092  11.874  64.056  1.00  0.00    -0.378 OA 
HETATM   10  C   UNL     1      -9.672  15.666  65.890  1.00  0.00    -0.388 A  
HETATM   11  O   UNL     1     -12.437  13.947  63.279  1.00  0.00    -0.817 OA 
HETATM   12  C   UNL     1      -8.936  14.873  66.774  1.00  0.00    -0.295 A  
HETATM   13  C   UNL     1      -9.172  13.493  66.792  1.00  0.00    -0.248 A  
HETATM   14  C   UNL     1      -7.887  15.453  67.692  1.00  0.00    -0.157 C  
HETATM   15  F   UNL     1      -8.168  15.222  69.004  1.00  0.00    -0.146 F  
HETATM   16  F   UNL     1      -6.657  14.913  67.473  1.00  0.00    -0.165 F  
HETATM   17  F   UNL     1      -7.736  16.798  67.569  1.00  0.00    -0.160 F  
ENDBRANCH   4   5
ENDBRANCH   2   4
TORSDOF 2
ENDMDL
MODEL       41
REMARK 921   NORMALIZED FREE ENERGY PREDICTED BY IDOCK:   -5.15 KCAL/MOL
REMARK 922        TOTAL FREE ENERGY PREDICTED BY IDOCK:   -5.99 KCAL/MOL
REMARK 923 INTER-LIGAND FREE ENERGY PREDICTED BY IDOCK:   -5.71 KCAL/MOL
REMARK 924 INTRA-LIGAND FREE ENERGY PREDICTED BY IDOCK:   -0.28 KCAL/MOL
REMARK 927      BINDING AFFINITY PREDICTED BY RF-SCORE:    0.00 PKD
ROOT
HETATM    1  C   UNL     1     -11.941  14.668  64.630  1.00  0.00    -0.472 C  
HETATM    2  C   UNL     1     -12.214  13.296  65.164  1.00  0.00    -0.443 C  
HETATM    3  O   UNL     1     -13.146  12.587  64.813  1.00  0.00    -0.853 OA 
ENDROOT
BRANCH   2   4
HETATM    4  O   UNL     1     -11.263  12.983  66.145  1.00  0.00    -0.280 OA 
BRANCH   4   5
HETATM    5  C   UNL     1     -10.691  11.693  66.073  1.00  0.00    -0.280 A  
HETATM    6  C   UNL     1     -10.809  10.787  67.136  1.00  0.00    -0.335 A  
HETATM    7  C   UNL     1     -10.283   9.493  66.964  1.00  0.00    -0.321 A  
HETATM    8  C   UNL     1     -11.461  11.057  68.455  1.00  0.00    -0.308 C  
HETATM    9  O   UNL     1     -12.006  12.277  68.610  1.00  0.00    -0.309 OA 
HETATM   10  C   UNL     1      -9.649   9.117  65.774  1.00  0.00    -0.323 A  
HETATM   11  O   UNL     1     -11.496  10.224  69.348  1.00  0.00    -0.234 OA 
HETATM   12  C   UNL     1      -9.539  10.023  64.716  1.00  0.00    -0.374 A  
HETATM   13  C   UNL     1     -10.096  11.299  64.866  1.00  0.00    -0.333 A  
HETATM   14  C   UNL     1      -8.827   9.676  63.430  1.00  0.00    -0.232 C  
HETATM   15  F   UNL     1      -9.649   9.767  62.348  1.00  0.00    -0.293 F  
HETATM   16  F   UNL     1      -7.785  10.514  63.178  1.00  0.00    -0.151 F  
HETATM   17  F   UNL     1      -8.314   8.418  63.411  1.00  0.00    -0.171 F  
ENDBRANCH   4   5
ENDBRANCH   2   4
TORSDOF 2
ENDMDL
MODEL       42
REMARK 921   NORMALIZED FREE ENERGY PREDICTED BY IDOCK:   -5.10 KCAL/MOL
REMARK 922        TOTAL FREE ENERGY PREDICTED BY IDOCK:   -5.93 KCAL/MOL
REMARK 923 INTER-LIGAND FREE ENERGY PREDICTED BY IDOCK:   -6.09 KCAL/MOL
REMARK 924 INTRA-LIGAND FREE ENERGY PREDICTED BY IDOCK:    0.16 KCAL/MOL
REMARK 927      BINDING AFFINITY PREDICTED BY RF-SCORE:    0.00 PKD
ROOT
HETATM    1  C   UNL     1     -11.935  12.966  64.139  1.00  0.00    -0.491 C  
HETATM    2  C   UNL     1     -12.238  13.502  65.504  1.00  0.00    -0.451 C  
HETATM    3  O   UNL     1     -13.278  14.066  65.813  1.00  0.00    -0.528 OA 
ENDROOT
BRANCH   2   4
HETATM    4  O   UNL     1     -11.134  13.290  66.341  1.00  0.00    -0.290 OA 
BRANCH   4   5
HETATM    5  C   UNL     1     -11.412  12.766  67.623  1.00  0.00    -0.334 A  
HETATM    6  C   UNL     1     -11.198  11.412  67.916  1.00  0.00    -0.352 A  
HETATM    7  C   UNL     1     -11.422  10.978  69.236  1.00  0.00    -0.370 A  
HETATM    8  C   UNL     1     -10.735  10.366  66.953  1.00  0.00    -0.207 C  
HETATM    9  O   UNL     1     -10.476  10.783  65.700  1.00  0.00    -0.243 OA 
HETATM   10  C   UNL     1     -11.857  11.862  70.230  1.00  0.00    -0.368 A  
HETATM   11  O   UNL     1     -10.602   9.195  67.276  1.00  0.00    -0.271 OA 
HETATM   12  C   UNL     1     -12.064  13.212  69.933  1.00  0.00    -0.357 A  
HETATM   13  C   UNL     1     -11.805  13.659  68.632  1.00  0.00    -0.409 A  
HETATM   14  C   UNL     1     -12.573  14.193  70.962  1.00  0.00    -0.369 C  
HETATM   15  F   UNL     1     -11.698  15.216  71.172  1.00  0.00    -0.294 F  
HETATM   16  F   UNL     1     -13.742  14.775  70.583  1.00  0.00    -0.353 F  
HETATM   17  F   UNL     1     -12.805  13.637  72.180  1.00  0.00    -0.403 F  
ENDBRANCH   4   5
ENDBRANCH   2   4
TORSDOF 2
ENDMDL
MODEL       43
REMARK 921   NORMALIZED FREE ENERGY PREDICTED BY IDOCK:   -5.09 KCAL/MOL
REMARK 922        TOTAL FREE ENERGY PREDICTED BY IDOCK:   -5.92 KCAL/MOL
REMARK 923 INTER-LIGAND FREE ENERGY PREDICTED BY IDOCK:   -5.64 KCAL/MOL
REMARK 924 INTRA-LIGAND FREE ENERGY PREDICTED BY IDOCK:   -0.28 KCAL/MOL
REMARK 927      BINDING AFFINITY PREDICTED BY RF-SCORE:    0.00 PKD
ROOT
HETATM    1  C   UNL     1     -11.646   9.139  71.968  1.00  0.00    -0.371 C  
HETATM    2  C   UNL     1     -10.843   9.637  70.806  1.00  0.00    -0.330 C  
HETATM    3  O   UNL     1      -9.624   9.725  70.791  1.00  0.00    -0.169 OA 
ENDROOT
BRANCH   2   4
HETATM    4  O   UNL     1     -11.710  10.019  69.774  1.00  0.00    -0.188 OA 
BRANCH   4   5
HETATM    5  C   UNL     1     -11.820  11.407  69.529  1.00  0.00    -0.357 A  
HETATM    6  C   UNL     1     -11.506  11.949  68.275  1.00  0.00    -0.372 A  
HETATM    7  C   UNL     1     -11.714  13.328  68.080  1.00  0.00    -0.397 A  
HETATM    8  C   UNL     1     -10.976  11.196  67.098  1.00  0.00    -0.291 C  
HETATM    9  O   UNL     1     -10.817   9.869  67.262  1.00  0.00    -0.267 OA 
HETATM   10  C   UNL     1     -12.207  14.142  69.107  1.00  0.00    -0.290 A  
HETATM   11  O   UNL     1     -10.694  11.746  66.044  1.00  0.00    -0.261 OA 
HETATM   12  C   UNL     1     -12.523  13.595  70.353  1.00  0.00    -0.364 A  
HETATM   13  C   UNL     1     -12.357  12.217  70.541  1.00  0.00    -0.358 A  
HETATM   14  C   UNL     1     -13.018  14.440  71.501  1.00  0.00    -0.336 C  
HETATM   15  F   UNL     1     -14.251  14.052  71.931  1.00  0.00    -0.466 F  
HETATM   16  F   UNL     1     -12.203  14.360  72.588  1.00  0.00    -0.331 F  
HETATM   17  F   UNL     1     -13.120  15.762  71.203  1.00  0.00    -0.495 F  
ENDBRANCH   4   5
ENDBRANCH   2   4
TORSDOF 2
ENDMDL
MODEL       44
REMARK 921   NORMALIZED FREE ENERGY PREDICTED BY IDOCK:   -5.06 KCAL/MOL
REMARK 922        TOTAL FREE ENERGY PREDICTED BY IDOCK:   -5.88 KCAL/MOL
REMARK 923 INTER-LIGAND FREE ENERGY PREDICTED BY IDOCK:   -5.54 KCAL/MOL
REMARK 924 INTRA-LIGAND FREE ENERGY PREDICTED BY IDOCK:   -0.34 KCAL/MOL
REMARK 927      BINDING AFFINITY PREDICTED BY RF-SCORE:    0.00 PKD
ROOT
HETATM    1  C   UNL     1      -9.378   8.478  65.863  1.00  0.00    -0.231 C  
HETATM    2  C   UNL     1      -9.322   9.961  65.661  1.00  0.00    -0.214 C  
HETATM    3  O   UNL     1      -8.293  10.619  65.628  1.00  0.00    -0.161 OA 
ENDROOT
BRANCH   2   4
HETATM    4  O   UNL     1     -10.626  10.464  65.559  1.00  0.00    -0.164 OA 
BRANCH   4   5
HETATM    5  C   UNL     1     -10.998  11.436  66.515  1.00  0.00    -0.272 A  
HETATM    6  C   UNL     1     -11.135  12.786  66.162  1.00  0.00    -0.322 A  
HETATM    7  C   UNL     1     -11.585  13.685  67.147  1.00  0.00    -0.392 A  
HETATM    8  C   UNL     1     -10.857  13.376  64.816  1.00  0.00    -0.375 C  
HETATM    9  O   UNL     1     -10.470  12.515  63.857  1.00  0.00    -0.398 OA 
HETATM   10  C   UNL     1     -11.879  13.254  68.447  1.00  0.00    -0.395 A  
HETATM   11  O   UNL     1     -10.968  14.572  64.593  1.00  0.00    -0.382 OA 
HETATM   12  C   UNL     1     -11.746  11.906  68.791  1.00  0.00    -0.379 A  
HETATM   13  C   UNL     1     -11.337  11.000  67.805  1.00  0.00    -0.365 A  
HETATM   14  C   UNL     1     -12.011  11.404  70.189  1.00  0.00    -0.377 C  
HETATM   15  F   UNL     1     -13.002  10.470  70.220  1.00  0.00    -0.385 F  
HETATM   16  F   UNL     1     -10.918  10.805  70.736  1.00  0.00    -0.287 F  
HETATM   17  F   UNL     1     -12.382  12.379  71.060  1.00  0.00    -0.443 F  
ENDBRANCH   4   5
ENDBRANCH   2   4
TORSDOF 2
ENDMDL
MODEL       45
REMARK 921   NORMALIZED FREE ENERGY PREDICTED BY IDOCK:   -5.03 KCAL/MOL
REMARK 922        TOTAL FREE ENERGY PREDICTED BY IDOCK:   -5.85 KCAL/MOL
REMARK 923 INTER-LIGAND FREE ENERGY PREDICTED BY IDOCK:   -5.47 KCAL/MOL
REMARK 924 INTRA-LIGAND FREE ENERGY PREDICTED BY IDOCK:   -0.38 KCAL/MOL
REMARK 927      BINDING AFFINITY PREDICTED BY RF-SCORE:    0.00 PKD
ROOT
HETATM    1  C   UNL     1     -10.178  15.568  67.089  1.00  0.00    -0.260 C  
HETATM    2  C   UNL     1     -11.414  15.196  67.848  1.00  0.00    -0.332 C  
HETATM    3  O   UNL     1     -11.638  15.510  69.008  1.00  0.00    -0.322 OA 
ENDROOT
BRANCH   2   4
HETATM    4  O   UNL     1     -12.237  14.406  67.034  1.00  0.00    -0.400 OA 
BRANCH   4   5
HETATM    5  C   UNL     1     -11.784  13.093  66.771  1.00  0.00    -0.385 A  
HETATM    6  C   UNL     1     -11.579  12.646  65.458  1.00  0.00    -0.409 A  
HETATM    7  C   UNL     1     -11.051  11.354  65.275  1.00  0.00    -0.198 A  
HETATM    8  C   UNL     1     -11.857  13.421  64.211  1.00  0.00    -0.423 C  
HETATM    9  O   UNL     1     -12.319  14.674  64.379  1.00  0.00    -0.553 OA 
HETATM   10  C   UNL     1     -10.749  10.529  66.366  1.00  0.00    -0.166 A  
HETATM   11  O   UNL     1     -11.683  12.949  63.097  1.00  0.00    -0.472 OA 
HETATM   12  C   UNL     1     -10.950  10.983  67.672  1.00  0.00    -0.332 A  
HETATM   13  C   UNL     1     -11.437  12.282  67.862  1.00  0.00    -0.390 A  
HETATM   14  C   UNL     1     -10.678  10.115  68.876  1.00  0.00    -0.223 C  
HETATM   15  F   UNL     1      -9.742  10.661  69.702  1.00  0.00    -0.222 F  
HETATM   16  F   UNL     1     -11.789   9.933  69.641  1.00  0.00    -0.201 F  
HETATM   17  F   UNL     1     -10.227   8.871  68.564  1.00  0.00    -0.185 F  
ENDBRANCH   4   5
ENDBRANCH   2   4
TORSDOF 2
ENDMDL
MODEL       46
REMARK 921   NORMALIZED FREE ENERGY PREDICTED BY IDOCK:   -5.01 KCAL/MOL
REMARK 922        TOTAL FREE ENERGY PREDICTED BY IDOCK:   -5.83 KCAL/MOL
REMARK 923 INTER-LIGAND FREE ENERGY PREDICTED BY IDOCK:   -5.67 KCAL/MOL
REMARK 924 INTRA-LIGAND FREE ENERGY PREDICTED BY IDOCK:   -0.16 KCAL/MOL
REMARK 927      BINDING AFFINITY PREDICTED BY RF-SCORE:    0.00 PKD
ROOT
HETATM    1  C   UNL     1     -11.861   9.247  72.070  1.00  0.00    -0.370 C  
HETATM    2  C   UNL     1     -12.973  10.155  71.644  1.00  0.00    -0.456 C  
HETATM    3  O   UNL     1     -14.030   9.778  71.159  1.00  0.00    -0.155 OA 
ENDROOT
BRANCH   2   4
HETATM    4  O   UNL     1     -12.589  11.487  71.851  1.00  0.00    -0.213 OA 
BRANCH   4   5
HETATM    5  C   UNL     1     -12.338  12.254  70.692  1.00  0.00    -0.286 A  
HETATM    6  C   UNL     1     -12.699  13.607  70.625  1.00  0.00    -0.303 A  
HETATM    7  C   UNL     1     -12.347  14.329  69.469  1.00  0.00    -0.272 A  
HETATM    8  C   UNL     1     -13.422  14.379  71.682  1.00  0.00    -0.372 C  
HETATM    9  O   UNL     1     -13.721  13.707  72.809  1.00  0.00    -0.707 OA 
HETATM   10  C   UNL     1     -11.668  13.718  68.408  1.00  0.00    -0.393 A  
HETATM   11  O   UNL     1     -13.731  15.552  71.537  1.00  0.00    -0.492 OA 
HETATM   12  C   UNL     1     -11.306  12.371  68.482  1.00  0.00    -0.336 A  
HETATM   13  C   UNL     1     -11.618  11.657  69.646  1.00  0.00    -0.401 A  
HETATM   14  C   UNL     1     -10.611  11.660  67.347  1.00  0.00    -0.220 C  
HETATM   15  F   UNL     1      -9.398  11.162  67.719  1.00  0.00    -0.154 F  
HETATM   16  F   UNL     1     -11.326  10.597  66.890  1.00  0.00    -0.299 F  
HETATM   17  F   UNL     1     -10.379  12.452  66.266  1.00  0.00    -0.241 F  
ENDBRANCH   4   5
ENDBRANCH   2   4
TORSDOF 2
ENDMDL
MODEL       47
REMARK 921   NORMALIZED FREE ENERGY PREDICTED BY IDOCK:   -5.00 KCAL/MOL
REMARK 922        TOTAL FREE ENERGY PREDICTED BY IDOCK:   -5.83 KCAL/MOL
REMARK 923 INTER-LIGAND FREE ENERGY PREDICTED BY IDOCK:   -5.61 KCAL/MOL
REMARK 924 INTRA-LIGAND FREE ENERGY PREDICTED BY IDOCK:   -0.22 KCAL/MOL
REMARK 927      BINDING AFFINITY PREDICTED BY RF-SCORE:    0.00 PKD
ROOT
HETATM    1  C   UNL     1     -14.398  15.078  71.408  1.00  0.00    -0.594 C  
HETATM    2  C   UNL     1     -13.254  15.356  72.333  1.00  0.00    -0.426 C  
HETATM    3  O   UNL     1     -13.220  16.275  73.138  1.00  0.00    -0.462 OA 
ENDROOT
BRANCH   2   4
HETATM    4  O   UNL     1     -12.230  14.428  72.097  1.00  0.00    -0.271 OA 
BRANCH   4   5
HETATM    5  C   UNL     1     -11.786  14.313  70.761  1.00  0.00    -0.269 A  
HETATM    6  C   UNL     1     -11.954  13.122  70.041  1.00  0.00    -0.391 A  
HETATM    7  C   UNL     1     -11.560  13.105  68.690  1.00  0.00    -0.356 A  
HETATM    8  C   UNL     1     -12.532  11.848  70.569  1.00  0.00    -0.215 C  
HETATM    9  O   UNL     1     -12.954  11.871  71.847  1.00  0.00    -0.409 OA 
HETATM   10  C   UNL     1     -11.004  14.235  68.079  1.00  0.00    -0.261 A  
HETATM   11  O   UNL     1     -12.616  10.838  69.887  1.00  0.00    -0.294 OA 
HETATM   12  C   UNL     1     -10.844  15.421  68.800  1.00  0.00    -0.252 A  
HETATM   13  C   UNL     1     -11.271  15.457  70.133  1.00  0.00    -0.318 A  
HETATM   14  C   UNL     1     -10.211  16.651  68.196  1.00  0.00    -0.280 C  
HETATM   15  F   UNL     1     -11.057  17.719  68.204  1.00  0.00    -0.320 F  
HETATM   16  F   UNL     1      -9.103  17.048  68.878  1.00  0.00    -0.253 F  
HETATM   17  F   UNL     1      -9.821  16.488  66.904  1.00  0.00    -0.233 F  
ENDBRANCH   4   5
ENDBRANCH   2   4
TORSDOF 2
ENDMDL
MODEL       48
REMARK 921   NORMALIZED FREE ENERGY PREDICTED BY IDOCK:   -4.99 KCAL/MOL
REMARK 922        TOTAL FREE ENERGY PREDICTED BY IDOCK:   -5.81 KCAL/MOL
REMARK 923 INTER-LIGAND FREE ENERGY PREDICTED BY IDOCK:   -6.00 KCAL/MOL
REMARK 924 INTRA-LIGAND FREE ENERGY PREDICTED BY IDOCK:    0.19 KCAL/MOL
REMARK 927      BINDING AFFINITY PREDICTED BY RF-SCORE:    0.00 PKD
ROOT
HETATM    1  C   UNL     1     -12.392  14.303  64.345  1.00  0.00    -0.417 C  
HETATM    2  C   UNL     1     -11.725  15.573  64.776  1.00  0.00    -0.187 C  
HETATM    3  O   UNL     1     -11.616  16.571  64.079  1.00  0.00    -1.154 OA 
ENDROOT
BRANCH   2   4
HETATM    4  O   UNL     1     -11.218  15.413  66.073  1.00  0.00    -0.284 OA 
BRANCH   4   5
HETATM    5  C   UNL     1     -10.148  16.261  66.436  1.00  0.00    -0.305 A  
HETATM    6  C   UNL     1      -8.892  15.739  66.778  1.00  0.00    -0.299 A  
HETATM    7  C   UNL     1      -7.852  16.646  67.052  1.00  0.00    -0.233 A  
HETATM    8  C   UNL     1      -8.537  14.290  66.870  1.00  0.00    -0.146 C  
HETATM    9  O   UNL     1      -9.515  13.417  66.565  1.00  0.00    -0.258 OA 
HETATM   10  C   UNL     1      -8.059  18.030  66.999  1.00  0.00    -0.241 A  
HETATM   11  O   UNL     1      -7.426  13.911  67.207  1.00  0.00    -0.155 OA 
HETATM   12  C   UNL     1      -9.311  18.544  66.653  1.00  0.00    -0.310 A  
HETATM   13  C   UNL     1     -10.340  17.647  66.340  1.00  0.00    -0.345 A  
HETATM   14  C   UNL     1      -9.592  20.027  66.623  1.00  0.00    -0.425 C  
HETATM   15  F   UNL     1      -9.985  20.451  65.390  1.00  0.00    -0.446 F  
HETATM   16  F   UNL     1     -10.594  20.378  67.474  1.00  0.00    -0.441 F  
HETATM   17  F   UNL     1      -8.523  20.793  66.963  1.00  0.00    -0.353 F  
ENDBRANCH   4   5
ENDBRANCH   2   4
TORSDOF 2
ENDMDL
MODEL       49
REMARK 921   NORMALIZED FREE ENERGY PREDICTED BY IDOCK:   -4.99 KCAL/MOL
REMARK 922        TOTAL FREE ENERGY PREDICTED BY IDOCK:   -5.80 KCAL/MOL
REMARK 923 INTER-LIGAND FREE ENERGY PREDICTED BY IDOCK:   -5.46 KCAL/MOL
REMARK 924 INTRA-LIGAND FREE ENERGY PREDICTED BY IDOCK:   -0.34 KCAL/MOL
REMARK 927      BINDING AFFINITY PREDICTED BY RF-SCORE:    0.00 PKD
ROOT
HETATM    1  C   UNL     1      -9.628  11.905  68.560  1.00  0.00    -0.160 C  
HETATM    2  C   UNL     1     -10.632  12.264  67.508  1.00  0.00    -0.218 C  
HETATM    3  O   UNL     1     -11.844  12.198  67.654  1.00  0.00    -0.478 OA 
ENDROOT
BRANCH   2   4
HETATM    4  O   UNL     1      -9.962  12.641  66.337  1.00  0.00    -0.243 OA 
BRANCH   4   5
HETATM    5  C   UNL     1     -10.217  13.947  65.862  1.00  0.00    -0.315 A  
HETATM    6  C   UNL     1     -11.071  14.169  64.772  1.00  0.00    -0.393 A  
HETATM    7  C   UNL     1     -11.341  15.500  64.405  1.00  0.00    -0.260 A  
HETATM    8  C   UNL     1     -11.746  13.115  63.955  1.00  0.00    -0.456 C  
HETATM    9  O   UNL     1     -11.528  11.840  64.329  1.00  0.00    -0.343 OA 
HETATM   10  C   UNL     1     -10.769  16.576  65.093  1.00  0.00    -0.261 A  
HETATM   11  O   UNL     1     -12.452  13.386  62.996  1.00  0.00    -0.667 OA 
HETATM   12  C   UNL     1      -9.923  16.349  66.182  1.00  0.00    -0.360 A  
HETATM   13  C   UNL     1      -9.682  15.028  66.578  1.00  0.00    -0.285 A  
HETATM   14  C   UNL     1      -9.251  17.476  66.928  1.00  0.00    -0.265 C  
HETATM   15  F   UNL     1      -9.596  17.498  68.245  1.00  0.00    -0.258 F  
HETATM   16  F   UNL     1      -7.894  17.375  66.900  1.00  0.00    -0.202 F  
HETATM   17  F   UNL     1      -9.547  18.709  66.439  1.00  0.00    -0.298 F  
ENDBRANCH   4   5
ENDBRANCH   2   4
TORSDOF 2
ENDMDL
MODEL       50
REMARK 921   NORMALIZED FREE ENERGY PREDICTED BY IDOCK:   -4.98 KCAL/MOL
REMARK 922        TOTAL FREE ENERGY PREDICTED BY IDOCK:   -5.80 KCAL/MOL
REMARK 923 INTER-LIGAND FREE ENERGY PREDICTED BY IDOCK:   -5.55 KCAL/MOL
REMARK 924 INTRA-LIGAND FREE ENERGY PREDICTED BY IDOCK:   -0.25 KCAL/MOL
REMARK 927      BINDING AFFINITY PREDICTED BY RF-SCORE:    0.00 PKD
ROOT
HETATM    1  C   UNL     1     -10.007  10.521  69.266  1.00  0.00    -0.233 C  
HETATM    2  C   UNL     1     -11.062  11.245  68.488  1.00  0.00    -0.235 C  
HETATM    3  O   UNL     1     -12.263  11.048  68.598  1.00  0.00    -0.571 OA 
ENDROOT
BRANCH   2   4
HETATM    4  O   UNL     1     -10.451  12.140  67.600  1.00  0.00    -0.201 OA 
BRANCH   4   5
HETATM    5  C   UNL     1     -10.558  11.830  66.226  1.00  0.00    -0.252 A  
HETATM    6  C   UNL     1     -11.453  12.518  65.394  1.00  0.00    -0.383 A  
HETATM    7  C   UNL     1     -11.449  12.210  64.021  1.00  0.00    -0.488 A  
HETATM    8  C   UNL     1     -12.419  13.574  65.825  1.00  0.00    -0.462 C  
HETATM    9  O   UNL     1     -12.396  13.906  67.129  1.00  0.00    -0.372 OA 
HETATM   10  C   UNL     1     -10.590  11.238  63.495  1.00  0.00    -0.436 A  
HETATM   11  O   UNL     1     -13.193  14.108  65.044  1.00  0.00    -0.691 OA 
HETATM   12  C   UNL     1      -9.697  10.559  64.327  1.00  0.00    -0.391 A  
HETATM   13  C   UNL     1      -9.667  10.889  65.688  1.00  0.00    -0.279 A  
HETATM   14  C   UNL     1      -8.781   9.475  63.812  1.00  0.00    -0.217 C  
HETATM   15  F   UNL     1      -7.468   9.774  64.013  1.00  0.00    -0.111 F  
HETATM   16  F   UNL     1      -8.992   8.284  64.437  1.00  0.00    -0.008 F  
HETATM   17  F   UNL     1      -8.915   9.232  62.482  1.00  0.00    -0.221 F  
ENDBRANCH   4   5
ENDBRANCH   2   4
TORSDOF 2
ENDMDL
MODEL       51
REMARK 921   NORMALIZED FREE ENERGY PREDICTED BY IDOCK:   -4.98 KCAL/MOL
REMARK 922        TOTAL FREE ENERGY PREDICTED BY IDOCK:   -5.80 KCAL/MOL
REMARK 923 INTER-LIGAND FREE ENERGY PREDICTED BY IDOCK:   -5.49 KCAL/MOL
REMARK 924 INTRA-LIGAND FREE ENERGY PREDICTED BY IDOCK:   -0.31 KCAL/MOL
REMARK 927      BINDING AFFINITY PREDICTED BY RF-SCORE:    0.00 PKD
ROOT
HETATM    1  C   UNL     1      -8.331  17.070  68.165  1.00  0.00    -0.222 C  
HETATM    2  C   UNL     1      -8.931  16.586  66.881  1.00  0.00    -0.219 C  
HETATM    3  O   UNL     1      -8.299  16.375  65.856  1.00  0.00    -0.334 OA 
ENDROOT
BRANCH   2   4
HETATM    4  O   UNL     1     -10.317  16.457  67.036  1.00  0.00    -0.286 OA 
BRANCH   4   5
HETATM    5  C   UNL     1     -10.852  15.164  66.834  1.00  0.00    -0.317 A  
HETATM    6  C   UNL     1     -11.481  14.819  65.630  1.00  0.00    -0.327 A  
HETATM    7  C   UNL     1     -11.919  13.491  65.469  1.00  0.00    -0.420 A  
HETATM    8  C   UNL     1     -11.725  15.732  64.471  1.00  0.00    -0.191 C  
HETATM    9  O   UNL     1     -11.268  16.992  64.599  1.00  0.00    -0.968 OA 
HETATM   10  C   UNL     1     -11.748  12.541  66.483  1.00  0.00    -0.454 A  
HETATM   11  O   UNL     1     -12.311  15.366  63.464  1.00  0.00    -0.219 OA 
HETATM   12  C   UNL     1     -11.116  12.889  67.679  1.00  0.00    -0.297 A  
HETATM   13  C   UNL     1     -10.642  14.198  67.829  1.00  0.00    -0.243 A  
HETATM   14  C   UNL     1     -10.947  11.910  68.815  1.00  0.00    -0.235 C  
HETATM   15  F   UNL     1      -9.637  11.712  69.131  1.00  0.00    -0.114 F  
HETATM   16  F   UNL     1     -11.545  12.339  69.959  1.00  0.00    -0.352 F  
HETATM   17  F   UNL     1     -11.463  10.679  68.558  1.00  0.00    -0.296 F  
ENDBRANCH   4   5
ENDBRANCH   2   4
TORSDOF 2
ENDMDL
MODEL       52
REMARK 921   NORMALIZED FREE ENERGY PREDICTED BY IDOCK:   -4.94 KCAL/MOL
REMARK 922        TOTAL FREE ENERGY PREDICTED BY IDOCK:   -5.76 KCAL/MOL
REMARK 923 INTER-LIGAND FREE ENERGY PREDICTED BY IDOCK:   -5.51 KCAL/MOL
REMARK 924 INTRA-LIGAND FREE ENERGY PREDICTED BY IDOCK:   -0.24 KCAL/MOL
REMARK 927      BINDING AFFINITY PREDICTED BY RF-SCORE:    0.00 PKD
ROOT
HETATM    1  C   UNL     1     -11.913  12.265  64.540  1.00  0.00    -0.459 C  
HETATM    2  C   UNL     1     -12.464  13.242  65.532  1.00  0.00    -0.474 C  
HETATM    3  O   UNL     1     -13.443  13.948  65.341  1.00  0.00    -0.672 OA 
ENDROOT
BRANCH   2   4
HETATM    4  O   UNL     1     -11.659  13.242  66.679  1.00  0.00    -0.331 OA 
BRANCH   4   5
HETATM    5  C   UNL     1     -10.620  14.200  66.715  1.00  0.00    -0.277 A  
HETATM    6  C   UNL     1      -9.283  13.814  66.886  1.00  0.00    -0.263 A  
HETATM    7  C   UNL     1      -8.294  14.814  66.832  1.00  0.00    -0.184 A  
HETATM    8  C   UNL     1      -8.791  12.420  67.111  1.00  0.00    -0.197 C  
HETATM    9  O   UNL     1      -9.727  11.453  67.119  1.00  0.00    -0.180 OA 
HETATM   10  C   UNL     1      -8.629  16.159  66.627  1.00  0.00    -0.311 A  
HETATM   11  O   UNL     1      -7.609  12.166  67.285  1.00  0.00    -0.145 OA 
HETATM   12  C   UNL     1      -9.962  16.536  66.452  1.00  0.00    -0.318 A  
HETATM   13  C   UNL     1     -10.947  15.541  66.464  1.00  0.00    -0.243 A  
HETATM   14  C   UNL     1     -10.373  17.977  66.269  1.00  0.00    -0.382 C  
HETATM   15  F   UNL     1     -11.012  18.182  65.084  1.00  0.00    -0.422 F  
HETATM   16  F   UNL     1     -11.238  18.392  67.235  1.00  0.00    -0.341 F  
HETATM   17  F   UNL     1      -9.332  18.850  66.294  1.00  0.00    -0.312 F  
ENDBRANCH   4   5
ENDBRANCH   2   4
TORSDOF 2
ENDMDL
MODEL       53
REMARK 921   NORMALIZED FREE ENERGY PREDICTED BY IDOCK:   -4.91 KCAL/MOL
REMARK 922        TOTAL FREE ENERGY PREDICTED BY IDOCK:   -5.72 KCAL/MOL
REMARK 923 INTER-LIGAND FREE ENERGY PREDICTED BY IDOCK:   -5.77 KCAL/MOL
REMARK 924 INTRA-LIGAND FREE ENERGY PREDICTED BY IDOCK:    0.05 KCAL/MOL
REMARK 927      BINDING AFFINITY PREDICTED BY RF-SCORE:    0.00 PKD
ROOT
HETATM    1  C   UNL     1     -12.369  12.226  63.612  1.00  0.00    -0.664 C  
HETATM    2  C   UNL     1     -12.650  12.804  64.965  1.00  0.00    -0.468 C  
HETATM    3  O   UNL     1     -13.245  13.853  65.162  1.00  0.00    -0.768 OA 
ENDROOT
BRANCH   2   4
HETATM    4  O   UNL     1     -12.090  11.976  65.947  1.00  0.00    -0.546 OA 
BRANCH   4   5
HETATM    5  C   UNL     1     -11.133  12.573  66.798  1.00  0.00    -0.279 A  
HETATM    6  C   UNL     1      -9.797  12.148  66.798  1.00  0.00    -0.218 A  
HETATM    7  C   UNL     1      -8.883  12.841  67.613  1.00  0.00    -0.189 A  
HETATM    8  C   UNL     1      -9.232  11.021  65.994  1.00  0.00    -0.193 C  
HETATM    9  O   UNL     1     -10.091  10.383  65.178  1.00  0.00    -0.303 OA 
HETATM   10  C   UNL     1      -9.290  13.916  68.414  1.00  0.00    -0.201 A  
HETATM   11  O   UNL     1      -8.059  10.688  66.072  1.00  0.00    -0.150 OA 
HETATM   12  C   UNL     1     -10.622  14.338  68.406  1.00  0.00    -0.255 A  
HETATM   13  C   UNL     1     -11.528  13.678  67.566  1.00  0.00    -0.360 A  
HETATM   14  C   UNL     1     -11.114  15.464  69.282  1.00  0.00    -0.280 C  
HETATM   15  F   UNL     1     -11.639  16.489  68.554  1.00  0.00    -0.353 F  
HETATM   16  F   UNL     1     -12.103  15.063  70.127  1.00  0.00    -0.283 F  
HETATM   17  F   UNL     1     -10.147  16.011  70.064  1.00  0.00    -0.261 F  
ENDBRANCH   4   5
ENDBRANCH   2   4
TORSDOF 2
ENDMDL
MODEL       54
REMARK 921   NORMALIZED FREE ENERGY PREDICTED BY IDOCK:   -4.88 KCAL/MOL
REMARK 922        TOTAL FREE ENERGY PREDICTED BY IDOCK:   -5.69 KCAL/MOL
REMARK 923 INTER-LIGAND FREE ENERGY PREDICTED BY IDOCK:   -5.66 KCAL/MOL
REMARK 924 INTRA-LIGAND FREE ENERGY PREDICTED BY IDOCK:   -0.03 KCAL/MOL
REMARK 927      BINDING AFFINITY PREDICTED BY RF-SCORE:    0.00 PKD
ROOT
HETATM    1  C   UNL     1      -9.089   9.825  68.318  1.00  0.00    -0.122 C  
HETATM    2  C   UNL     1     -10.565  10.039  68.458  1.00  0.00    -0.215 C  
HETATM    3  O   UNL     1     -11.313  10.345  67.540  1.00  0.00    -0.374 OA 
ENDROOT
BRANCH   2   4
HETATM    4  O   UNL     1     -10.932   9.874  69.800  1.00  0.00    -0.241 OA 
BRANCH   4   5
HETATM    5  C   UNL     1     -11.696  10.915  70.373  1.00  0.00    -0.350 A  
HETATM    6  C   UNL     1     -12.583  10.667  71.430  1.00  0.00    -0.526 A  
HETATM    7  C   UNL     1     -13.252  11.765  72.003  1.00  0.00    -0.460 A  
HETATM    8  C   UNL     1     -12.887   9.331  72.028  1.00  0.00    -0.415 C  
HETATM    9  O   UNL     1     -12.218   8.282  71.515  1.00  0.00    -0.286 OA 
HETATM   10  C   UNL     1     -13.051  13.068  71.531  1.00  0.00    -0.400 A  
HETATM   11  O   UNL     1     -13.701   9.190  72.929  1.00  0.00    -0.361 OA 
HETATM   12  C   UNL     1     -12.162  13.309  70.481  1.00  0.00    -0.416 A  
HETATM   13  C   UNL     1     -11.463  12.226  69.932  1.00  0.00    -0.190 A  
HETATM   14  C   UNL     1     -11.945  14.690  69.911  1.00  0.00    -0.329 C  
HETATM   15  F   UNL     1     -10.648  15.093  70.020  1.00  0.00    -0.247 F  
HETATM   16  F   UNL     1     -12.245  14.753  68.586  1.00  0.00    -0.305 F  
HETATM   17  F   UNL     1     -12.692  15.653  70.513  1.00  0.00    -0.426 F  
ENDBRANCH   4   5
ENDBRANCH   2   4
TORSDOF 2
ENDMDL
MODEL       55
REMARK 921   NORMALIZED FREE ENERGY PREDICTED BY IDOCK:   -4.87 KCAL/MOL
REMARK 922        TOTAL FREE ENERGY PREDICTED BY IDOCK:   -5.67 KCAL/MOL
REMARK 923 INTER-LIGAND FREE ENERGY PREDICTED BY IDOCK:   -5.63 KCAL/MOL
REMARK 924 INTRA-LIGAND FREE ENERGY PREDICTED BY IDOCK:   -0.04 KCAL/MOL
REMARK 927      BINDING AFFINITY PREDICTED BY RF-SCORE:    0.00 PKD
ROOT
HETATM    1  C   UNL     1     -11.388  15.919  67.950  1.00  0.00    -0.252 C  
HETATM    2  C   UNL     1     -11.351  14.870  69.019  1.00  0.00    -0.292 C  
HETATM    3  O   UNL     1     -10.606  14.891  69.987  1.00  0.00    -0.187 OA 
ENDROOT
BRANCH   2   4
HETATM    4  O   UNL     1     -12.268  13.857  68.706  1.00  0.00    -0.348 OA 
BRANCH   4   5
HETATM    5  C   UNL     1     -11.764  12.762  67.968  1.00  0.00    -0.356 A  
HETATM    6  C   UNL     1     -11.491  11.535  68.588  1.00  0.00    -0.354 A  
HETATM    7  C   UNL     1     -11.067  10.465  67.777  1.00  0.00    -0.365 A  
HETATM    8  C   UNL     1     -11.620  11.238  70.047  1.00  0.00    -0.321 C  
HETATM    9  O   UNL     1     -12.069  12.243  70.822  1.00  0.00    -0.340 OA 
HETATM   10  C   UNL     1     -10.907  10.618  66.395  1.00  0.00    -0.132 A  
HETATM   11  O   UNL     1     -11.331  10.149  70.519  1.00  0.00    -0.291 OA 
HETATM   12  C   UNL     1     -11.186  11.842  65.782  1.00  0.00    -0.365 A  
HETATM   13  C   UNL     1     -11.648  12.899  66.577  1.00  0.00    -0.425 A  
HETATM   14  C   UNL     1     -10.989  12.065  64.302  1.00  0.00    -0.346 C  
HETATM   15  F   UNL     1     -12.147  12.418  63.678  1.00  0.00    -0.464 F  
HETATM   16  F   UNL     1     -10.107  13.069  64.046  1.00  0.00    -0.418 F  
HETATM   17  F   UNL     1     -10.521  10.973  63.642  1.00  0.00    -0.373 F  
ENDBRANCH   4   5
ENDBRANCH   2   4
TORSDOF 2
ENDMDL
MODEL       56
REMARK 921   NORMALIZED FREE ENERGY PREDICTED BY IDOCK:   -4.86 KCAL/MOL
REMARK 922        TOTAL FREE ENERGY PREDICTED BY IDOCK:   -5.67 KCAL/MOL
REMARK 923 INTER-LIGAND FREE ENERGY PREDICTED BY IDOCK:   -5.25 KCAL/MOL
REMARK 924 INTRA-LIGAND FREE ENERGY PREDICTED BY IDOCK:   -0.42 KCAL/MOL
REMARK 927      BINDING AFFINITY PREDICTED BY RF-SCORE:    0.00 PKD
ROOT
HETATM    1  C   UNL     1      -8.673  11.002  68.630  1.00  0.00    -0.161 C  
HETATM    2  C   UNL     1     -10.157  10.823  68.723  1.00  0.00    -0.191 C  
HETATM    3  O   UNL     1     -10.836  11.143  69.688  1.00  0.00    -0.224 OA 
ENDROOT
BRANCH   2   4
HETATM    4  O   UNL     1     -10.623  10.201  67.558  1.00  0.00    -0.234 OA 
BRANCH   4   5
HETATM    5  C   UNL     1     -10.615  10.985  66.382  1.00  0.00    -0.251 A  
HETATM    6  C   UNL     1      -9.960  10.549  65.223  1.00  0.00    -0.364 A  
HETATM    7  C   UNL     1     -10.060  11.345  64.067  1.00  0.00    -0.369 A  
HETATM    8  C   UNL     1      -9.161   9.292  65.084  1.00  0.00    -0.206 C  
HETATM    9  O   UNL     1      -9.098   8.503  66.172  1.00  0.00    -0.171 OA 
HETATM   10  C   UNL     1     -10.780  12.546  64.070  1.00  0.00    -0.449 A  
HETATM   11  O   UNL     1      -8.590   8.994  64.046  1.00  0.00    -0.194 OA 
HETATM   12  C   UNL     1     -11.436  12.973  65.227  1.00  0.00    -0.340 A  
HETATM   13  C   UNL     1     -11.373  12.166  66.369  1.00  0.00    -0.411 A  
HETATM   14  C   UNL     1     -12.189  14.280  65.289  1.00  0.00    -0.414 C  
HETATM   15  F   UNL     1     -13.504  14.100  65.593  1.00  0.00    -0.483 F  
HETATM   16  F   UNL     1     -11.696  15.113  66.246  1.00  0.00    -0.298 F  
HETATM   17  F   UNL     1     -12.162  14.983  64.126  1.00  0.00    -0.488 F  
ENDBRANCH   4   5
ENDBRANCH   2   4
TORSDOF 2
ENDMDL
MODEL       57
REMARK 921   NORMALIZED FREE ENERGY PREDICTED BY IDOCK:   -4.82 KCAL/MOL
REMARK 922        TOTAL FREE ENERGY PREDICTED BY IDOCK:   -5.62 KCAL/MOL
REMARK 923 INTER-LIGAND FREE ENERGY PREDICTED BY IDOCK:   -5.25 KCAL/MOL
REMARK 924 INTRA-LIGAND FREE ENERGY PREDICTED BY IDOCK:   -0.36 KCAL/MOL
REMARK 927      BINDING AFFINITY PREDICTED BY RF-SCORE:    0.00 PKD
ROOT
HETATM    1  C   UNL     1      -7.628  15.207  67.281  1.00  0.00    -0.236 C  
HETATM    2  C   UNL     1      -7.604  13.750  67.625  1.00  0.00    -0.181 C  
HETATM    3  O   UNL     1      -6.671  12.996  67.389  1.00  0.00    -0.164 OA 
ENDROOT
BRANCH   2   4
HETATM    4  O   UNL     1      -8.824  13.393  68.215  1.00  0.00    -0.178 OA 
BRANCH   4   5
HETATM    5  C   UNL     1      -9.962  13.445  67.379  1.00  0.00    -0.230 A  
HETATM    6  C   UNL     1     -11.047  14.280  67.683  1.00  0.00    -0.305 A  
HETATM    7  C   UNL     1     -12.112  14.340  66.764  1.00  0.00    -0.446 A  
HETATM    8  C   UNL     1     -11.185  15.137  68.900  1.00  0.00    -0.283 C  
HETATM    9  O   UNL     1     -10.150  15.120  69.760  1.00  0.00    -0.227 OA 
HETATM   10  C   UNL     1     -12.102  13.583  65.586  1.00  0.00    -0.467 A  
HETATM   11  O   UNL     1     -12.179  15.815  69.111  1.00  0.00    -0.293 OA 
HETATM   12  C   UNL     1     -11.015  12.757  65.287  1.00  0.00    -0.314 A  
HETATM   13  C   UNL     1      -9.934  12.724  66.177  1.00  0.00    -0.272 A  
HETATM   14  C   UNL     1     -10.978  11.892  64.050  1.00  0.00    -0.381 C  
HETATM   15  F   UNL     1      -9.924  12.196  63.243  1.00  0.00    -0.399 F  
HETATM   16  F   UNL     1     -10.850  10.571  64.350  1.00  0.00    -0.339 F  
HETATM   17  F   UNL     1     -12.090  11.997  63.276  1.00  0.00    -0.539 F  
ENDBRANCH   4   5
ENDBRANCH   2   4
TORSDOF 2
ENDMDL
MODEL       58
REMARK 921   NORMALIZED FREE ENERGY PREDICTED BY IDOCK:   -4.80 KCAL/MOL
REMARK 922        TOTAL FREE ENERGY PREDICTED BY IDOCK:   -5.60 KCAL/MOL
REMARK 923 INTER-LIGAND FREE ENERGY PREDICTED BY IDOCK:   -5.20 KCAL/MOL
REMARK 924 INTRA-LIGAND FREE ENERGY PREDICTED BY IDOCK:   -0.40 KCAL/MOL
REMARK 927      BINDING AFFINITY PREDICTED BY RF-SCORE:    0.00 PKD
ROOT
HETATM    1  C   UNL     1      -8.463  10.541  67.399  1.00  0.00    -0.122 C  
HETATM    2  C   UNL     1      -9.750  10.094  68.022  1.00  0.00    -0.142 C  
HETATM    3  O   UNL     1      -9.835   9.474  69.072  1.00  0.00    -0.166 OA 
ENDROOT
BRANCH   2   4
HETATM    4  O   UNL     1     -10.818  10.462  67.193  1.00  0.00    -0.273 OA 
BRANCH   4   5
HETATM    5  C   UNL     1     -11.179  11.828  67.205  1.00  0.00    -0.305 A  
HETATM    6  C   UNL     1     -11.362  12.541  66.012  1.00  0.00    -0.386 A  
HETATM    7  C   UNL     1     -11.797  13.876  66.101  1.00  0.00    -0.422 A  
HETATM    8  C   UNL     1     -11.149  12.013  64.630  1.00  0.00    -0.322 C  
HETATM    9  O   UNL     1     -10.776  10.723  64.536  1.00  0.00    -0.297 OA 
HETATM   10  C   UNL     1     -12.031  14.486  67.339  1.00  0.00    -0.367 A  
HETATM   11  O   UNL     1     -11.298  12.708  63.636  1.00  0.00    -0.427 OA 
HETATM   12  C   UNL     1     -11.852  13.768  68.525  1.00  0.00    -0.406 A  
HETATM   13  C   UNL     1     -11.458  12.427  68.443  1.00  0.00    -0.356 A  
HETATM   14  C   UNL     1     -12.052  14.396  69.883  1.00  0.00    -0.344 C  
HETATM   15  F   UNL     1     -13.018  13.761  70.604  1.00  0.00    -0.352 F  
HETATM   16  F   UNL     1     -10.926  14.345  70.644  1.00  0.00    -0.136 F  
HETATM   17  F   UNL     1     -12.416  15.704  69.833  1.00  0.00    -0.376 F  
ENDBRANCH   4   5
ENDBRANCH   2   4
TORSDOF 2
ENDMDL
MODEL       59
REMARK 921   NORMALIZED FREE ENERGY PREDICTED BY IDOCK:   -4.80 KCAL/MOL
REMARK 922        TOTAL FREE ENERGY PREDICTED BY IDOCK:   -5.59 KCAL/MOL
REMARK 923 INTER-LIGAND FREE ENERGY PREDICTED BY IDOCK:   -5.57 KCAL/MOL
REMARK 924 INTRA-LIGAND FREE ENERGY PREDICTED BY IDOCK:   -0.02 KCAL/MOL
REMARK 927      BINDING AFFINITY PREDICTED BY RF-SCORE:    0.00 PKD
ROOT
HETATM    1  C   UNL     1     -11.968  13.505  66.434  1.00  0.00    -0.459 C  
HETATM    2  C   UNL     1     -11.140  14.688  66.039  1.00  0.00    -0.332 C  
HETATM    3  O   UNL     1     -11.264  15.303  64.990  1.00  0.00    -0.384 OA 
ENDROOT
BRANCH   2   4
HETATM    4  O   UNL     1     -10.189  14.942  67.036  1.00  0.00    -0.252 OA 
BRANCH   4   5
HETATM    5  C   UNL     1     -10.217  16.231  67.615  1.00  0.00    -0.272 A  
HETATM    6  C   UNL     1     -10.402  16.404  68.993  1.00  0.00    -0.278 A  
HETATM    7  C   UNL     1     -10.340  17.712  69.510  1.00  0.00     0.121 A  
HETATM    8  C   UNL     1     -10.651  15.318  69.991  1.00  0.00    -0.270 C  
HETATM    9  O   UNL     1     -10.666  14.061  69.511  1.00  0.00    -0.124 OA 
HETATM   10  C   UNL     1     -10.113  18.814  68.677  1.00  0.00    -0.432 A  
HETATM   11  O   UNL     1     -10.836  15.551  71.176  1.00  0.00    -0.304 OA 
HETATM   12  C   UNL     1      -9.924  18.635  67.304  1.00  0.00    -0.360 A  
HETATM   13  C   UNL     1      -9.944  17.333  66.790  1.00  0.00    -0.301 A  
HETATM   14  C   UNL     1      -9.718  19.796  66.362  1.00  0.00    -0.428 C  
HETATM   15  F   UNL     1      -8.526  19.721  65.708  1.00  0.00    -0.348 F  
HETATM   16  F   UNL     1     -10.672  19.849  65.394  1.00  0.00    -0.584 F  
HETATM   17  F   UNL     1      -9.737  21.009  66.976  1.00  0.00    -0.567 F  
ENDBRANCH   4   5
ENDBRANCH   2   4
TORSDOF 2
ENDMDL
MODEL       60
REMARK 921   NORMALIZED FREE ENERGY PREDICTED BY IDOCK:   -4.79 KCAL/MOL
REMARK 922        TOTAL FREE ENERGY PREDICTED BY IDOCK:   -5.59 KCAL/MOL
REMARK 923 INTER-LIGAND FREE ENERGY PREDICTED BY IDOCK:   -5.23 KCAL/MOL
REMARK 924 INTRA-LIGAND FREE ENERGY PREDICTED BY IDOCK:   -0.35 KCAL/MOL
REMARK 927      BINDING AFFINITY PREDICTED BY RF-SCORE:    0.00 PKD
ROOT
HETATM    1  C   UNL     1     -11.538  12.359  66.790  1.00  0.00    -0.444 C  
HETATM    2  C   UNL     1     -10.636  11.210  67.119  1.00  0.00    -0.244 C  
HETATM    3  O   UNL     1     -10.548  10.186  66.458  1.00  0.00    -0.189 OA 
ENDROOT
BRANCH   2   4
HETATM    4  O   UNL     1      -9.953  11.484  68.311  1.00  0.00    -0.188 OA 
BRANCH   4   5
HETATM    5  C   UNL     1     -10.202  10.606  69.391  1.00  0.00    -0.192 A  
HETATM    6  C   UNL     1      -9.206   9.744  69.870  1.00  0.00    -0.263 A  
HETATM    7  C   UNL     1      -9.500   8.956  70.998  1.00  0.00    -0.318 A  
HETATM    8  C   UNL     1      -7.833   9.583  69.300  1.00  0.00    -0.088 C  
HETATM    9  O   UNL     1      -7.528  10.367  68.249  1.00  0.00    -0.086 OA 
HETATM   10  C   UNL     1     -10.752   9.016  71.622  1.00  0.00    -0.441 A  
HETATM   11  O   UNL     1      -7.028   8.784  69.754  1.00  0.00    -0.048 OA 
HETATM   12  C   UNL     1     -11.739   9.881  71.143  1.00  0.00    -0.478 A  
HETATM   13  C   UNL     1     -11.439  10.698  70.046  1.00  0.00    -0.404 A  
HETATM   14  C   UNL     1     -13.116   9.950  71.758  1.00  0.00    -0.452 C  
HETATM   15  F   UNL     1     -13.406  11.194  72.230  1.00  0.00    -0.582 F  
HETATM   16  F   UNL     1     -14.095   9.654  70.860  1.00  0.00    -0.330 F  
HETATM   17  F   UNL     1     -13.292   9.098  72.802  1.00  0.00    -0.487 F  
ENDBRANCH   4   5
ENDBRANCH   2   4
TORSDOF 2
ENDMDL
MODEL       61
REMARK 921   NORMALIZED FREE ENERGY PREDICTED BY IDOCK:   -4.79 KCAL/MOL
REMARK 922        TOTAL FREE ENERGY PREDICTED BY IDOCK:   -5.58 KCAL/MOL
REMARK 923 INTER-LIGAND FREE ENERGY PREDICTED BY IDOCK:   -5.34 KCAL/MOL
REMARK 924 INTRA-LIGAND FREE ENERGY PREDICTED BY IDOCK:   -0.25 KCAL/MOL
REMARK 927      BINDING AFFINITY PREDICTED BY RF-SCORE:    0.00 PKD
ROOT
HETATM    1  C   UNL     1     -10.497  10.179  69.376  1.00  0.00    -0.254 C  
HETATM    2  C   UNL     1     -10.983  11.099  68.298  1.00  0.00    -0.226 C  
HETATM    3  O   UNL     1     -12.160  11.315  68.048  1.00  0.00    -0.638 OA 
ENDROOT
BRANCH   2   4
HETATM    4  O   UNL     1      -9.883  11.628  67.610  1.00  0.00    -0.181 OA 
BRANCH   4   5
HETATM    5  C   UNL     1     -10.081  12.877  66.980  1.00  0.00    -0.245 A  
HETATM    6  C   UNL     1     -10.209  12.976  65.588  1.00  0.00    -0.296 A  
HETATM    7  C   UNL     1     -10.484  14.241  65.037  1.00  0.00    -0.458 A  
HETATM    8  C   UNL     1     -10.095  11.849  64.612  1.00  0.00    -0.269 C  
HETATM    9  O   UNL     1      -9.878  10.628  65.135  1.00  0.00    -0.240 OA 
HETATM   10  C   UNL     1     -10.614  15.376  65.847  1.00  0.00    -0.349 A  
HETATM   11  O   UNL     1     -10.187  12.019  63.405  1.00  0.00    -0.428 OA 
HETATM   12  C   UNL     1     -10.490  15.271  67.235  1.00  0.00    -0.275 A  
HETATM   13  C   UNL     1     -10.257  14.008  67.793  1.00  0.00    -0.240 A  
HETATM   14  C   UNL     1     -10.581  16.472  68.144  1.00  0.00    -0.329 C  
HETATM   15  F   UNL     1     -11.596  16.358  69.045  1.00  0.00    -0.323 F  
HETATM   16  F   UNL     1      -9.449  16.649  68.878  1.00  0.00    -0.225 F  
HETATM   17  F   UNL     1     -10.790  17.642  67.485  1.00  0.00    -0.358 F  
ENDBRANCH   4   5
ENDBRANCH   2   4
TORSDOF 2
ENDMDL
MODEL       62
REMARK 921   NORMALIZED FREE ENERGY PREDICTED BY IDOCK:   -4.78 KCAL/MOL
REMARK 922        TOTAL FREE ENERGY PREDICTED BY IDOCK:   -5.57 KCAL/MOL
REMARK 923 INTER-LIGAND FREE ENERGY PREDICTED BY IDOCK:   -5.26 KCAL/MOL
REMARK 924 INTRA-LIGAND FREE ENERGY PREDICTED BY IDOCK:   -0.32 KCAL/MOL
REMARK 927      BINDING AFFINITY PREDICTED BY RF-SCORE:    0.00 PKD
ROOT
HETATM    1  C   UNL     1     -13.751   9.316  71.617  1.00  0.00    -0.421 C  
HETATM    2  C   UNL     1     -12.887  10.529  71.777  1.00  0.00    -0.454 C  
HETATM    3  O   UNL     1     -13.302  11.648  72.039  1.00  0.00    -0.481 OA 
ENDROOT
BRANCH   2   4
HETATM    4  O   UNL     1     -11.551  10.179  71.539  1.00  0.00    -0.319 OA 
BRANCH   4   5
HETATM    5  C   UNL     1     -11.184   9.992  70.187  1.00  0.00    -0.304 A  
HETATM    6  C   UNL     1     -10.770   8.738  69.715  1.00  0.00    -0.220 A  
HETATM    7  C   UNL     1     -10.496   8.607  68.341  1.00  0.00    -0.220 A  
HETATM    8  C   UNL     1     -10.599   7.501  70.537  1.00  0.00    -0.225 C  
HETATM    9  O   UNL     1     -10.903   7.607  71.843  1.00  0.00    -0.224 OA 
HETATM   10  C   UNL     1     -10.619   9.694  67.467  1.00  0.00    -0.339 A  
HETATM   11  O   UNL     1     -10.201   6.450  70.058  1.00  0.00    -0.171 OA 
HETATM   12  C   UNL     1     -11.037  10.940  67.942  1.00  0.00    -0.362 A  
HETATM   13  C   UNL     1     -11.350  11.067  69.301  1.00  0.00    -0.350 A  
HETATM   14  C   UNL     1     -11.144  12.149  67.045  1.00  0.00    -0.294 C  
HETATM   15  F   UNL     1     -12.410  12.651  67.009  1.00  0.00    -0.361 F  
HETATM   16  F   UNL     1     -10.349  13.171  67.464  1.00  0.00    -0.218 F  
HETATM   17  F   UNL     1     -10.796  11.905  65.754  1.00  0.00    -0.295 F  
ENDBRANCH   4   5
ENDBRANCH   2   4
TORSDOF 2
ENDMDL
MODEL       63
REMARK 921   NORMALIZED FREE ENERGY PREDICTED BY IDOCK:   -4.77 KCAL/MOL
REMARK 922        TOTAL FREE ENERGY PREDICTED BY IDOCK:   -5.57 KCAL/MOL
REMARK 923 INTER-LIGAND FREE ENERGY PREDICTED BY IDOCK:   -5.16 KCAL/MOL
REMARK 924 INTRA-LIGAND FREE ENERGY PREDICTED BY IDOCK:   -0.41 KCAL/MOL
REMARK 927      BINDING AFFINITY PREDICTED BY RF-SCORE:    0.00 PKD
ROOT
HETATM    1  C   UNL     1     -11.588  14.015  64.212  1.00  0.00    -0.348 C  
HETATM    2  C   UNL     1     -12.492  12.889  64.611  1.00  0.00    -0.434 C  
HETATM    3  O   UNL     1     -13.127  12.198  63.829  1.00  0.00    -0.774 OA 
ENDROOT
BRANCH   2   4
HETATM    4  O   UNL     1     -12.519  12.791  66.009  1.00  0.00    -0.540 OA 
BRANCH   4   5
HETATM    5  C   UNL     1     -11.389  12.197  66.617  1.00  0.00    -0.350 A  
HETATM    6  C   UNL     1     -10.720  12.827  67.675  1.00  0.00    -0.236 A  
HETATM    7  C   UNL     1      -9.652  12.141  68.284  1.00  0.00    -0.210 A  
HETATM    8  C   UNL     1     -11.040  14.173  68.242  1.00  0.00    -0.254 C  
HETATM    9  O   UNL     1     -12.089  14.815  67.695  1.00  0.00    -0.299 OA 
HETATM   10  C   UNL     1      -9.256  10.873  67.843  1.00  0.00    -0.152 A  
HETATM   11  O   UNL     1     -10.388  14.671  69.147  1.00  0.00    -0.238 OA 
HETATM   12  C   UNL     1      -9.930  10.248  66.791  1.00  0.00    -0.261 A  
HETATM   13  C   UNL     1     -11.019  10.907  66.207  1.00  0.00    -0.130 A  
HETATM   14  C   UNL     1      -9.512   8.900  66.255  1.00  0.00    -0.239 C  
HETATM   15  F   UNL     1     -10.506   7.975  66.361  1.00  0.00    -0.348 F  
HETATM   16  F   UNL     1      -9.188   8.949  64.934  1.00  0.00    -0.233 F  
HETATM   17  F   UNL     1      -8.433   8.370  66.889  1.00  0.00    -0.111 F  
ENDBRANCH   4   5
ENDBRANCH   2   4
TORSDOF 2
ENDMDL
MODEL       64
REMARK 921   NORMALIZED FREE ENERGY PREDICTED BY IDOCK:   -4.73 KCAL/MOL
REMARK 922        TOTAL FREE ENERGY PREDICTED BY IDOCK:   -5.52 KCAL/MOL
REMARK 923 INTER-LIGAND FREE ENERGY PREDICTED BY IDOCK:   -5.16 KCAL/MOL
REMARK 924 INTRA-LIGAND FREE ENERGY PREDICTED BY IDOCK:   -0.36 KCAL/MOL
REMARK 927      BINDING AFFINITY PREDICTED BY RF-SCORE:    0.00 PKD
ROOT
HETATM    1  C   UNL     1      -8.740   9.385  67.325  1.00  0.00    -0.133 C  
HETATM    2  C   UNL     1      -9.829  10.413  67.343  1.00  0.00    -0.178 C  
HETATM    3  O   UNL     1     -10.725  10.491  66.516  1.00  0.00    -0.205 OA 
ENDROOT
BRANCH   2   4
HETATM    4  O   UNL     1      -9.629  11.281  68.425  1.00  0.00    -0.182 OA 
BRANCH   4   5
HETATM    5  C   UNL     1     -10.661  11.330  69.389  1.00  0.00    -0.141 A  
HETATM    6  C   UNL     1     -11.466  12.468  69.533  1.00  0.00    -0.299 A  
HETATM    7  C   UNL     1     -12.526  12.415  70.459  1.00  0.00    -0.270 A  
HETATM    8  C   UNL     1     -11.319  13.751  68.780  1.00  0.00    -0.283 C  
HETATM    9  O   UNL     1     -10.337  13.793  67.861  1.00  0.00    -0.236 OA 
HETATM   10  C   UNL     1     -12.767  11.269  71.225  1.00  0.00    -0.510 A  
HETATM   11  O   UNL     1     -12.042  14.715  68.986  1.00  0.00    -0.295 OA 
HETATM   12  C   UNL     1     -11.964  10.135  71.073  1.00  0.00    -0.474 A  
HETATM   13  C   UNL     1     -10.934  10.167  70.125  1.00  0.00    -0.376 A  
HETATM   14  C   UNL     1     -12.161   8.892  71.906  1.00  0.00    -0.373 C  
HETATM   15  F   UNL     1     -12.433   7.799  71.141  1.00  0.00    -0.317 F  
HETATM   16  F   UNL     1     -11.051   8.575  72.627  1.00  0.00    -0.413 F  
HETATM   17  F   UNL     1     -13.178   8.990  72.802  1.00  0.00    -0.478 F  
ENDBRANCH   4   5
ENDBRANCH   2   4
TORSDOF 2
ENDMDL
MODEL       65
REMARK 921   NORMALIZED FREE ENERGY PREDICTED BY IDOCK:   -4.70 KCAL/MOL
REMARK 922        TOTAL FREE ENERGY PREDICTED BY IDOCK:   -5.49 KCAL/MOL
REMARK 923 INTER-LIGAND FREE ENERGY PREDICTED BY IDOCK:   -5.22 KCAL/MOL
REMARK 924 INTRA-LIGAND FREE ENERGY PREDICTED BY IDOCK:   -0.27 KCAL/MOL
REMARK 927      BINDING AFFINITY PREDICTED BY RF-SCORE:    0.00 PKD
ROOT
HETATM    1  C   UNL     1      -9.600  11.080  68.736  1.00  0.00    -0.194 C  
HETATM    2  C   UNL     1     -11.005  10.773  69.155  1.00  0.00    -0.244 C  
HETATM    3  O   UNL     1     -11.982  10.861  68.425  1.00  0.00    -0.543 OA 
ENDROOT
BRANCH   2   4
HETATM    4  O   UNL     1     -11.017  10.413  70.509  1.00  0.00    -0.299 OA 
BRANCH   4   5
HETATM    5  C   UNL     1     -11.271   9.053  70.794  1.00  0.00    -0.275 A  
HETATM    6  C   UNL     1     -12.413   8.661  71.506  1.00  0.00    -0.364 A  
HETATM    7  C   UNL     1     -12.641   7.283  71.683  1.00  0.00    -0.403 A  
HETATM    8  C   UNL     1     -13.439   9.574  72.095  1.00  0.00    -0.456 C  
HETATM    9  O   UNL     1     -13.251  10.891  71.890  1.00  0.00    -0.467 OA 
HETATM   10  C   UNL     1     -11.752   6.327  71.178  1.00  0.00    -0.292 A  
HETATM   11  O   UNL     1     -14.394   9.158  72.733  1.00  0.00    -0.563 OA 
HETATM   12  C   UNL     1     -10.618   6.723  70.464  1.00  0.00    -0.260 A  
HETATM   13  C   UNL     1     -10.406   8.091  70.249  1.00  0.00    -0.212 A  
HETATM   14  C   UNL     1      -9.611   5.730  69.937  1.00  0.00    -0.159 C  
HETATM   15  F   UNL     1      -9.484   5.797  68.583  1.00  0.00    -0.118 F  
HETATM   16  F   UNL     1      -8.365   5.945  70.439  1.00  0.00    -0.112 F  
HETATM   17  F   UNL     1      -9.916   4.437  70.225  1.00  0.00    -0.256 F  
ENDBRANCH   4   5
ENDBRANCH   2   4
TORSDOF 2
ENDMDL
MODEL       66
REMARK 921   NORMALIZED FREE ENERGY PREDICTED BY IDOCK:   -4.70 KCAL/MOL
REMARK 922        TOTAL FREE ENERGY PREDICTED BY IDOCK:   -5.49 KCAL/MOL
REMARK 923 INTER-LIGAND FREE ENERGY PREDICTED BY IDOCK:   -5.26 KCAL/MOL
REMARK 924 INTRA-LIGAND FREE ENERGY PREDICTED BY IDOCK:   -0.23 KCAL/MOL
REMARK 927      BINDING AFFINITY PREDICTED BY RF-SCORE:    0.00 PKD
ROOT
HETATM    1  C   UNL     1      -8.409   8.989  67.177  1.00  0.00    -0.110 C  
HETATM    2  C   UNL     1      -9.666   9.323  66.435  1.00  0.00    -0.258 C  
HETATM    3  O   UNL     1      -9.717   9.603  65.246  1.00  0.00    -0.300 OA 
ENDROOT
BRANCH   2   4
HETATM    4  O   UNL     1     -10.748   9.303  67.325  1.00  0.00    -0.268 OA 
BRANCH   4   5
HETATM    5  C   UNL     1     -11.083  10.534  67.932  1.00  0.00    -0.304 A  
HETATM    6  C   UNL     1     -11.234  10.641  69.321  1.00  0.00    -0.332 A  
HETATM    7  C   UNL     1     -11.489  11.915  69.863  1.00  0.00    -0.264 A  
HETATM    8  C   UNL     1     -11.136   9.520  70.305  1.00  0.00    -0.271 C  
HETATM    9  O   UNL     1     -10.847   8.306  69.799  1.00  0.00    -0.241 OA 
HETATM   10  C   UNL     1     -11.603  13.045  69.044  1.00  0.00    -0.367 A  
HETATM   11  O   UNL     1     -11.313   9.685  71.503  1.00  0.00    -0.381 OA 
HETATM   12  C   UNL     1     -11.446  12.933  67.660  1.00  0.00    -0.383 A  
HETATM   13  C   UNL     1     -11.152  11.676  67.119  1.00  0.00    -0.354 A  
HETATM   14  C   UNL     1     -11.601  14.116  66.735  1.00  0.00    -0.391 C  
HETATM   15  F   UNL     1     -10.467  14.362  66.022  1.00  0.00    -0.273 F  
HETATM   16  F   UNL     1     -12.585  13.924  65.815  1.00  0.00    -0.440 F  
HETATM   17  F   UNL     1     -11.904  15.276  67.376  1.00  0.00    -0.321 F  
ENDBRANCH   4   5
ENDBRANCH   2   4
TORSDOF 2
ENDMDL
MODEL       67
REMARK 921   NORMALIZED FREE ENERGY PREDICTED BY IDOCK:   -4.68 KCAL/MOL
REMARK 922        TOTAL FREE ENERGY PREDICTED BY IDOCK:   -5.47 KCAL/MOL
REMARK 923 INTER-LIGAND FREE ENERGY PREDICTED BY IDOCK:   -5.34 KCAL/MOL
REMARK 924 INTRA-LIGAND FREE ENERGY PREDICTED BY IDOCK:   -0.13 KCAL/MOL
REMARK 927      BINDING AFFINITY PREDICTED BY RF-SCORE:    0.00 PKD
ROOT
HETATM    1  C   UNL     1      -9.864  15.452  69.768  1.00  0.00    -0.236 C  
HETATM    2  C   UNL     1     -11.246  15.689  69.240  1.00  0.00    -0.320 C  
HETATM    3  O   UNL     1     -11.566  16.631  68.531  1.00  0.00    -0.183 OA 
ENDROOT
BRANCH   2   4
HETATM    4  O   UNL     1     -12.102  14.690  69.721  1.00  0.00    -0.302 OA 
BRANCH   4   5
HETATM    5  C   UNL     1     -11.876  13.383  69.233  1.00  0.00    -0.334 A  
HETATM    6  C   UNL     1     -12.188  12.256  70.006  1.00  0.00    -0.267 A  
HETATM    7  C   UNL     1     -12.010  10.986  69.425  1.00  0.00    -0.408 A  
HETATM    8  C   UNL     1     -12.712  12.266  71.406  1.00  0.00    -0.248 C  
HETATM    9  O   UNL     1     -12.928  13.478  71.952  1.00  0.00    -0.350 OA 
HETATM   10  C   UNL     1     -11.524  10.844  68.120  1.00  0.00    -0.368 A  
HETATM   11  O   UNL     1     -12.931  11.238  72.029  1.00  0.00    -0.445 OA 
HETATM   12  C   UNL     1     -11.220  11.971  67.352  1.00  0.00    -0.368 A  
HETATM   13  C   UNL     1     -11.433  13.238  67.910  1.00  0.00    -0.341 A  
HETATM   14  C   UNL     1     -10.655  11.866  65.957  1.00  0.00    -0.265 C  
HETATM   15  F   UNL     1     -11.459  12.461  65.032  1.00  0.00    -0.332 F  
HETATM   16  F   UNL     1      -9.443  12.474  65.845  1.00  0.00    -0.241 F  
HETATM   17  F   UNL     1     -10.476  10.586  65.534  1.00  0.00    -0.327 F  
ENDBRANCH   4   5
ENDBRANCH   2   4
TORSDOF 2
ENDMDL
MODEL       68
REMARK 921   NORMALIZED FREE ENERGY PREDICTED BY IDOCK:   -4.67 KCAL/MOL
REMARK 922        TOTAL FREE ENERGY PREDICTED BY IDOCK:   -5.46 KCAL/MOL
REMARK 923 INTER-LIGAND FREE ENERGY PREDICTED BY IDOCK:   -5.30 KCAL/MOL
REMARK 924 INTRA-LIGAND FREE ENERGY PREDICTED BY IDOCK:   -0.15 KCAL/MOL
REMARK 927      BINDING AFFINITY PREDICTED BY RF-SCORE:    0.00 PKD
ROOT
HETATM    1  C   UNL     1     -10.461  20.342  66.049  1.00  0.00    -0.326 C  
HETATM    2  C   UNL     1     -10.128  19.030  66.689  1.00  0.00    -0.392 C  
HETATM    3  O   UNL     1     -10.391  18.735  67.846  1.00  0.00    -0.376 OA 
ENDROOT
BRANCH   2   4
HETATM    4  O   UNL     1      -9.440  18.227  65.770  1.00  0.00    -0.467 OA 
BRANCH   4   5
HETATM    5  C   UNL     1      -9.310  16.860  66.105  1.00  0.00    -0.236 A  
HETATM    6  C   UNL     1      -8.078  16.324  66.505  1.00  0.00    -0.337 A  
HETATM    7  C   UNL     1      -8.041  14.974  66.901  1.00  0.00    -0.161 A  
HETATM    8  C   UNL     1      -6.778  17.060  66.566  1.00  0.00    -0.232 C  
HETATM    9  O   UNL     1      -6.814  18.363  66.233  1.00  0.00    -0.200 OA 
HETATM   10  C   UNL     1      -9.194  14.179  66.887  1.00  0.00    -0.270 A  
HETATM   11  O   UNL     1      -5.735  16.514  66.894  1.00  0.00    -0.292 OA 
HETATM   12  C   UNL     1     -10.420  14.720  66.493  1.00  0.00    -0.291 A  
HETATM   13  C   UNL     1     -10.472  16.074  66.137  1.00  0.00    -0.334 A  
HETATM   14  C   UNL     1     -11.680  13.892  66.423  1.00  0.00    -0.383 C  
HETATM   15  F   UNL     1     -12.657  14.373  67.240  1.00  0.00    -0.336 F  
HETATM   16  F   UNL     1     -12.215  13.874  65.172  1.00  0.00    -0.352 F  
HETATM   17  F   UNL     1     -11.499  12.591  66.774  1.00  0.00    -0.318 F  
ENDBRANCH   4   5
ENDBRANCH   2   4
TORSDOF 2
ENDMDL
MODEL       69
REMARK 921   NORMALIZED FREE ENERGY PREDICTED BY IDOCK:   -4.67 KCAL/MOL
REMARK 922        TOTAL FREE ENERGY PREDICTED BY IDOCK:   -5.45 KCAL/MOL
REMARK 923 INTER-LIGAND FREE ENERGY PREDICTED BY IDOCK:   -5.16 KCAL/MOL
REMARK 924 INTRA-LIGAND FREE ENERGY PREDICTED BY IDOCK:   -0.29 KCAL/MOL
REMARK 927      BINDING AFFINITY PREDICTED BY RF-SCORE:    0.00 PKD
ROOT
HETATM    1  C   UNL     1      -8.123   7.889  69.572  1.00  0.00    -0.121 C  
HETATM    2  C   UNL     1      -8.996   8.698  70.481  1.00  0.00    -0.164 C  
HETATM    3  O   UNL     1      -8.594   9.338  71.442  1.00  0.00    -0.326 OA 
ENDROOT
BRANCH   2   4
HETATM    4  O   UNL     1     -10.331   8.568  70.077  1.00  0.00    -0.200 OA 
BRANCH   4   5
HETATM    5  C   UNL     1     -11.161   9.693  70.285  1.00  0.00    -0.276 A  
HETATM    6  C   UNL     1     -12.104   9.718  71.322  1.00  0.00    -0.470 A  
HETATM    7  C   UNL     1     -12.839  10.902  71.518  1.00  0.00    -0.560 A  
HETATM    8  C   UNL     1     -12.404   8.598  72.266  1.00  0.00    -0.382 C  
HETATM    9  O   UNL     1     -11.672   7.479  72.113  1.00  0.00    -0.284 OA 
HETATM   10  C   UNL     1     -12.650  12.022  70.699  1.00  0.00    -0.255 A  
HETATM   11  O   UNL     1     -13.266   8.684  73.127  1.00  0.00    -0.171 OA 
HETATM   12  C   UNL     1     -11.705  11.993  69.671  1.00  0.00    -0.405 A  
HETATM   13  C   UNL     1     -10.941  10.832  69.496  1.00  0.00    -0.317 A  
HETATM   14  C   UNL     1     -11.495  13.160  68.737  1.00  0.00    -0.307 C  
HETATM   15  F   UNL     1     -10.220  13.637  68.790  1.00  0.00    -0.228 F  
HETATM   16  F   UNL     1     -11.714  12.825  67.437  1.00  0.00    -0.334 F  
HETATM   17  F   UNL     1     -12.307  14.220  68.995  1.00  0.00    -0.360 F  
ENDBRANCH   4   5
ENDBRANCH   2   4
TORSDOF 2
ENDMDL
MODEL       70
REMARK 921   NORMALIZED FREE ENERGY PREDICTED BY IDOCK:   -4.66 KCAL/MOL
REMARK 922        TOTAL FREE ENERGY PREDICTED BY IDOCK:   -5.44 KCAL/MOL
REMARK 923 INTER-LIGAND FREE ENERGY PREDICTED BY IDOCK:   -5.08 KCAL/MOL
REMARK 924 INTRA-LIGAND FREE ENERGY PREDICTED BY IDOCK:   -0.36 KCAL/MOL
REMARK 927      BINDING AFFINITY PREDICTED BY RF-SCORE:    0.00 PKD
ROOT
HETATM    1  C   UNL     1      -9.538   5.980  69.976  1.00  0.00    -0.194 C  
HETATM    2  C   UNL     1     -10.768   6.813  70.169  1.00  0.00    -0.233 C  
HETATM    3  O   UNL     1     -11.903   6.446  69.906  1.00  0.00    -0.384 OA 
ENDROOT
BRANCH   2   4
HETATM    4  O   UNL     1     -10.400   8.076  70.652  1.00  0.00    -0.199 OA 
BRANCH   4   5
HETATM    5  C   UNL     1     -10.884   9.189  69.929  1.00  0.00    -0.228 A  
HETATM    6  C   UNL     1     -11.855  10.042  70.472  1.00  0.00    -0.387 A  
HETATM    7  C   UNL     1     -12.232  11.174  69.727  1.00  0.00    -0.369 A  
HETATM    8  C   UNL     1     -12.533   9.873  71.794  1.00  0.00    -0.397 C  
HETATM    9  O   UNL     1     -12.145   8.817  72.533  1.00  0.00    -0.347 OA 
HETATM   10  C   UNL     1     -11.669  11.442  68.474  1.00  0.00    -0.386 A  
HETATM   11  O   UNL     1     -13.396  10.643  72.187  1.00  0.00    -0.444 OA 
HETATM   12  C   UNL     1     -10.698  10.592  67.939  1.00  0.00    -0.305 A  
HETATM   13  C   UNL     1     -10.289   9.485  68.693  1.00  0.00    -0.229 A  
HETATM   14  C   UNL     1     -10.094  10.817  66.575  1.00  0.00    -0.228 C  
HETATM   15  F   UNL     1      -8.743  10.985  66.633  1.00  0.00    -0.142 F  
HETATM   16  F   UNL     1     -10.302   9.764  65.739  1.00  0.00    -0.337 F  
HETATM   17  F   UNL     1     -10.583  11.911  65.933  1.00  0.00    -0.267 F  
ENDBRANCH   4   5
ENDBRANCH   2   4
TORSDOF 2
ENDMDL
MODEL       71
REMARK 921   NORMALIZED FREE ENERGY PREDICTED BY IDOCK:   -4.60 KCAL/MOL
REMARK 922        TOTAL FREE ENERGY PREDICTED BY IDOCK:   -5.37 KCAL/MOL
REMARK 923 INTER-LIGAND FREE ENERGY PREDICTED BY IDOCK:   -5.10 KCAL/MOL
REMARK 924 INTRA-LIGAND FREE ENERGY PREDICTED BY IDOCK:   -0.28 KCAL/MOL
REMARK 927      BINDING AFFINITY PREDICTED BY RF-SCORE:    0.00 PKD
ROOT
HETATM    1  C   UNL     1     -11.319  14.063  64.542  1.00  0.00    -0.365 C  
HETATM    2  C   UNL     1     -10.673  15.342  64.977  1.00  0.00    -0.439 C  
HETATM    3  O   UNL     1     -11.035  16.456  64.628  1.00  0.00    -0.707 OA 
ENDROOT
BRANCH   2   4
HETATM    4  O   UNL     1      -9.578  15.051  65.803  1.00  0.00    -0.328 OA 
BRANCH   4   5
HETATM    5  C   UNL     1      -9.736  15.341  67.177  1.00  0.00    -0.217 A  
HETATM    6  C   UNL     1      -9.102  16.446  67.763  1.00  0.00    -0.199 A  
HETATM    7  C   UNL     1      -9.368  16.719  69.117  1.00  0.00    -0.155 A  
HETATM    8  C   UNL     1      -8.165  17.388  67.077  1.00  0.00    -0.217 C  
HETATM    9  O   UNL     1      -7.942  17.160  65.770  1.00  0.00    -0.476 OA 
HETATM   10  C   UNL     1     -10.228  15.908  69.868  1.00  0.00    -0.233 A  
HETATM   11  O   UNL     1      -7.624  18.313  67.665  1.00  0.00    -0.217 OA 
HETATM   12  C   UNL     1     -10.861  14.812  69.278  1.00  0.00    -0.275 A  
HETATM   13  C   UNL     1     -10.633  14.559  67.919  1.00  0.00    -0.243 A  
HETATM   14  C   UNL     1     -11.764  13.887  70.058  1.00  0.00    -0.268 C  
HETATM   15  F   UNL     1     -13.027  13.853  69.550  1.00  0.00    -0.125 F  
HETATM   16  F   UNL     1     -11.321  12.601  70.041  1.00  0.00    -0.256 F  
HETATM   17  F   UNL     1     -11.892  14.225  71.368  1.00  0.00    -0.377 F  
ENDBRANCH   4   5
ENDBRANCH   2   4
TORSDOF 2
ENDMDL
MODEL       72
REMARK 921   NORMALIZED FREE ENERGY PREDICTED BY IDOCK:   -4.58 KCAL/MOL
REMARK 922        TOTAL FREE ENERGY PREDICTED BY IDOCK:   -5.36 KCAL/MOL
REMARK 923 INTER-LIGAND FREE ENERGY PREDICTED BY IDOCK:   -5.62 KCAL/MOL
REMARK 924 INTRA-LIGAND FREE ENERGY PREDICTED BY IDOCK:    0.26 KCAL/MOL
REMARK 927      BINDING AFFINITY PREDICTED BY RF-SCORE:    0.00 PKD
ROOT
HETATM    1  C   UNL     1     -10.907  10.516  68.564  1.00  0.00    -0.275 C  
HETATM    2  C   UNL     1     -11.742  11.681  68.130  1.00  0.00    -0.295 C  
HETATM    3  O   UNL     1     -12.157  11.852  66.993  1.00  0.00    -0.600 OA 
ENDROOT
BRANCH   2   4
HETATM    4  O   UNL     1     -11.929  12.547  69.215  1.00  0.00    -0.296 OA 
BRANCH   4   5
HETATM    5  C   UNL     1     -11.645  13.912  68.983  1.00  0.00    -0.310 A  
HETATM    6  C   UNL     1     -11.925  14.886  69.952  1.00  0.00    -0.376 A  
HETATM    7  C   UNL     1     -11.543  16.214  69.684  1.00  0.00    -0.244 A  
HETATM    8  C   UNL     1     -12.588  14.650  71.271  1.00  0.00    -0.333 C  
HETATM    9  O   UNL     1     -12.915  13.376  71.554  1.00  0.00    -0.350 OA 
HETATM   10  C   UNL     1     -10.913  16.562  68.482  1.00  0.00    -0.350 A  
HETATM   11  O   UNL     1     -12.829  15.559  72.052  1.00  0.00    -0.362 OA 
HETATM   12  C   UNL     1     -10.632  15.586  67.523  1.00  0.00    -0.297 A  
HETATM   13  C   UNL     1     -10.973  14.256  67.801  1.00  0.00    -0.275 A  
HETATM   14  C   UNL     1      -9.993  15.921  66.197  1.00  0.00    -0.314 C  
HETATM   15  F   UNL     1      -8.809  15.272  66.020  1.00  0.00    -0.327 F  
HETATM   16  F   UNL     1     -10.776  15.563  65.144  1.00  0.00    -0.338 F  
HETATM   17  F   UNL     1      -9.727  17.244  66.038  1.00  0.00    -0.279 F  
ENDBRANCH   4   5
ENDBRANCH   2   4
TORSDOF 2
ENDMDL
MODEL       73
REMARK 921   NORMALIZED FREE ENERGY PREDICTED BY IDOCK:   -4.57 KCAL/MOL
REMARK 922        TOTAL FREE ENERGY PREDICTED BY IDOCK:   -5.34 KCAL/MOL
REMARK 923 INTER-LIGAND FREE ENERGY PREDICTED BY IDOCK:   -5.19 KCAL/MOL
REMARK 924 INTRA-LIGAND FREE ENERGY PREDICTED BY IDOCK:   -0.16 KCAL/MOL
REMARK 927      BINDING AFFINITY PREDICTED BY RF-SCORE:    0.00 PKD
ROOT
HETATM    1  C   UNL     1      -8.259  14.392  68.544  1.00  0.00    -0.151 C  
HETATM    2  C   UNL     1      -9.070  14.249  67.293  1.00  0.00    -0.215 C  
HETATM    3  O   UNL     1      -8.987  14.988  66.324  1.00  0.00    -0.275 OA 
ENDROOT
BRANCH   2   4
HETATM    4  O   UNL     1      -9.953  13.170  67.435  1.00  0.00    -0.224 OA 
BRANCH   4   5
HETATM    5  C   UNL     1     -10.350  12.525  66.242  1.00  0.00    -0.250 A  
HETATM    6  C   UNL     1     -11.522  12.898  65.570  1.00  0.00    -0.361 A  
HETATM    7  C   UNL     1     -11.813  12.267  64.347  1.00  0.00    -0.464 A  
HETATM    8  C   UNL     1     -12.507  13.928  66.025  1.00  0.00    -0.461 C  
HETATM    9  O   UNL     1     -12.212  14.568  67.172  1.00  0.00    -0.355 OA 
HETATM   10  C   UNL     1     -10.968  11.285  63.814  1.00  0.00    -0.381 A  
HETATM   11  O   UNL     1     -13.527  14.176  65.400  1.00  0.00    -0.648 OA 
HETATM   12  C   UNL     1      -9.798  10.921  64.485  1.00  0.00    -0.356 A  
HETATM   13  C   UNL     1      -9.482  11.574  65.683  1.00  0.00    -0.244 A  
HETATM   14  C   UNL     1      -8.879   9.840  63.971  1.00  0.00    -0.231 C  
HETATM   15  F   UNL     1      -7.623  10.307  63.728  1.00  0.00    -0.144 F  
HETATM   16  F   UNL     1      -8.732   8.823  64.863  1.00  0.00    -0.181 F  
HETATM   17  F   UNL     1      -9.301   9.269  62.812  1.00  0.00    -0.245 F  
ENDBRANCH   4   5
ENDBRANCH   2   4
TORSDOF 2
ENDMDL
MODEL       74
REMARK 921   NORMALIZED FREE ENERGY PREDICTED BY IDOCK:   -4.56 KCAL/MOL
REMARK 922        TOTAL FREE ENERGY PREDICTED BY IDOCK:   -5.33 KCAL/MOL
REMARK 923 INTER-LIGAND FREE ENERGY PREDICTED BY IDOCK:   -4.96 KCAL/MOL
REMARK 924 INTRA-LIGAND FREE ENERGY PREDICTED BY IDOCK:   -0.37 KCAL/MOL
REMARK 927      BINDING AFFINITY PREDICTED BY RF-SCORE:    0.00 PKD
ROOT
HETATM    1  C   UNL     1      -8.474  11.064  67.651  1.00  0.00    -0.121 C  
HETATM    2  C   UNL     1      -9.366  11.160  66.452  1.00  0.00    -0.188 C  
HETATM    3  O   UNL     1      -8.991  11.030  65.295  1.00  0.00    -0.199 OA 
ENDROOT
BRANCH   2   4
HETATM    4  O   UNL     1     -10.670  11.460  66.867  1.00  0.00    -0.240 OA 
BRANCH   4   5
HETATM    5  C   UNL     1     -10.886  12.767  67.357  1.00  0.00    -0.240 A  
HETATM    6  C   UNL     1     -11.425  12.984  68.633  1.00  0.00    -0.344 A  
HETATM    7  C   UNL     1     -11.538  14.312  69.086  1.00  0.00    -0.346 A  
HETATM    8  C   UNL     1     -11.889  11.927  69.583  1.00  0.00    -0.337 C  
HETATM    9  O   UNL     1     -11.742  10.653  69.175  1.00  0.00    -0.283 OA 
HETATM   10  C   UNL     1     -11.138  15.390  68.288  1.00  0.00    -0.309 A  
HETATM   11  O   UNL     1     -12.381  12.196  70.669  1.00  0.00    -0.357 OA 
HETATM   12  C   UNL     1     -10.596  15.168  67.020  1.00  0.00    -0.300 A  
HETATM   13  C   UNL     1     -10.443  13.847  66.579  1.00  0.00    -0.282 A  
HETATM   14  C   UNL     1     -10.189  16.300  66.109  1.00  0.00    -0.346 C  
HETATM   15  F   UNL     1      -8.867  16.250  65.786  1.00  0.00    -0.350 F  
HETATM   16  F   UNL     1     -10.862  16.276  64.926  1.00  0.00    -0.413 F  
HETATM   17  F   UNL     1     -10.403  17.533  66.639  1.00  0.00    -0.304 F  
ENDBRANCH   4   5
ENDBRANCH   2   4
TORSDOF 2
ENDMDL
MODEL       75
REMARK 921   NORMALIZED FREE ENERGY PREDICTED BY IDOCK:   -4.54 KCAL/MOL
REMARK 922        TOTAL FREE ENERGY PREDICTED BY IDOCK:   -5.30 KCAL/MOL
REMARK 923 INTER-LIGAND FREE ENERGY PREDICTED BY IDOCK:   -5.22 KCAL/MOL
REMARK 924 INTRA-LIGAND FREE ENERGY PREDICTED BY IDOCK:   -0.08 KCAL/MOL
REMARK 927      BINDING AFFINITY PREDICTED BY RF-SCORE:    0.00 PKD
ROOT
HETATM    1  C   UNL     1     -13.790   7.292  71.562  1.00  0.00    -0.463 C  
HETATM    2  C   UNL     1     -13.531   8.518  72.384  1.00  0.00    -0.277 C  
HETATM    3  O   UNL     1     -14.330   9.430  72.540  1.00  0.00    -0.389 OA 
ENDROOT
BRANCH   2   4
HETATM    4  O   UNL     1     -12.230   8.464  72.900  1.00  0.00    -0.274 OA 
BRANCH   4   5
HETATM    5  C   UNL     1     -11.195   8.885  72.034  1.00  0.00    -0.352 A  
HETATM    6  C   UNL     1      -9.900   8.360  72.142  1.00  0.00    -0.372 A  
HETATM    7  C   UNL     1      -8.941   8.767  71.195  1.00  0.00    -0.280 A  
HETATM    8  C   UNL     1      -9.429   7.384  73.172  1.00  0.00    -0.201 C  
HETATM    9  O   UNL     1     -10.352   6.956  74.052  1.00  0.00    -0.363 OA 
HETATM   10  C   UNL     1      -9.259   9.678  70.181  1.00  0.00    -0.287 A  
HETATM   11  O   UNL     1      -8.271   6.996  73.221  1.00  0.00    -0.106 OA 
HETATM   12  C   UNL     1     -10.553  10.194  70.076  1.00  0.00    -0.338 A  
HETATM   13  C   UNL     1     -11.523   9.762  70.989  1.00  0.00    -0.458 A  
HETATM   14  C   UNL     1     -10.932  11.209  69.025  1.00  0.00    -0.235 C  
HETATM   15  F   UNL     1     -11.924  10.758  68.208  1.00  0.00    -0.352 F  
HETATM   16  F   UNL     1     -11.397  12.366  69.571  1.00  0.00    -0.297 F  
HETATM   17  F   UNL     1      -9.903  11.563  68.210  1.00  0.00    -0.175 F  
ENDBRANCH   4   5
ENDBRANCH   2   4
TORSDOF 2
ENDMDL
MODEL       76
REMARK 921   NORMALIZED FREE ENERGY PREDICTED BY IDOCK:   -4.54 KCAL/MOL
REMARK 922        TOTAL FREE ENERGY PREDICTED BY IDOCK:   -5.30 KCAL/MOL
REMARK 923 INTER-LIGAND FREE ENERGY PREDICTED BY IDOCK:   -4.89 KCAL/MOL
REMARK 924 INTRA-LIGAND FREE ENERGY PREDICTED BY IDOCK:   -0.41 KCAL/MOL
REMARK 927      BINDING AFFINITY PREDICTED BY RF-SCORE:    0.00 PKD
ROOT
HETATM    1  C   UNL     1      -8.222  16.516  68.104  1.00  0.00    -0.181 C  
HETATM    2  C   UNL     1      -9.364  16.644  67.142  1.00  0.00    -0.228 C  
HETATM    3  O   UNL     1      -9.242  16.847  65.943  1.00  0.00    -0.500 OA 
ENDROOT
BRANCH   2   4
HETATM    4  O   UNL     1     -10.573  16.534  67.842  1.00  0.00    -0.308 OA 
BRANCH   4   5
HETATM    5  C   UNL     1     -10.904  15.247  68.321  1.00  0.00    -0.262 A  
HETATM    6  C   UNL     1     -11.275  15.043  69.658  1.00  0.00    -0.296 A  
HETATM    7  C   UNL     1     -11.668  13.749  70.046  1.00  0.00    -0.327 A  
HETATM    8  C   UNL     1     -11.307  16.085  70.730  1.00  0.00    -0.398 C  
HETATM    9  O   UNL     1     -10.976  17.335  70.357  1.00  0.00     0.325 OA 
HETATM   10  C   UNL     1     -11.680  12.687  69.132  1.00  0.00    -0.375 A  
HETATM   11  O   UNL     1     -11.611  15.823  71.884  1.00  0.00    -0.408 OA 
HETATM   12  C   UNL     1     -11.315  12.897  67.800  1.00  0.00    -0.343 A  
HETATM   13  C   UNL     1     -10.961  14.191  67.399  1.00  0.00    -0.306 A  
HETATM   14  C   UNL     1     -11.272  11.775  66.791  1.00  0.00    -0.328 C  
HETATM   15  F   UNL     1     -12.113  11.997  65.742  1.00  0.00    -0.437 F  
HETATM   16  F   UNL     1     -10.034  11.617  66.250  1.00  0.00    -0.217 F  
HETATM   17  F   UNL     1     -11.618  10.565  67.304  1.00  0.00    -0.304 F  
ENDBRANCH   4   5
ENDBRANCH   2   4
TORSDOF 2
ENDMDL
MODEL       77
REMARK 921   NORMALIZED FREE ENERGY PREDICTED BY IDOCK:   -4.52 KCAL/MOL
REMARK 922        TOTAL FREE ENERGY PREDICTED BY IDOCK:   -5.29 KCAL/MOL
REMARK 923 INTER-LIGAND FREE ENERGY PREDICTED BY IDOCK:   -4.97 KCAL/MOL
REMARK 924 INTRA-LIGAND FREE ENERGY PREDICTED BY IDOCK:   -0.32 KCAL/MOL
REMARK 927      BINDING AFFINITY PREDICTED BY RF-SCORE:    0.00 PKD
ROOT
HETATM    1  C   UNL     1      -7.151  14.861  69.327  1.00  0.00    -0.160 C  
HETATM    2  C   UNL     1      -7.618  15.252  67.958  1.00  0.00    -0.125 C  
HETATM    3  O   UNL     1      -6.898  15.321  66.973  1.00  0.00    -0.242 OA 
ENDROOT
BRANCH   2   4
HETATM    4  O   UNL     1      -8.984  15.560  68.005  1.00  0.00    -0.172 OA 
BRANCH   4   5
HETATM    5  C   UNL     1      -9.757  15.147  66.898  1.00  0.00    -0.239 A  
HETATM    6  C   UNL     1     -10.262  16.076  65.977  1.00  0.00    -0.360 A  
HETATM    7  C   UNL     1     -10.956  15.585  64.856  1.00  0.00    -0.452 A  
HETATM    8  C   UNL     1     -10.122  17.562  66.061  1.00  0.00    -0.260 C  
HETATM    9  O   UNL     1      -9.420  18.036  67.107  1.00  0.00    -0.255 OA 
HETATM   10  C   UNL     1     -11.153  14.212  64.664  1.00  0.00    -0.378 A  
HETATM   11  O   UNL     1     -10.619  18.311  65.234  1.00  0.00    -0.562 OA 
HETATM   12  C   UNL     1     -10.644  13.291  65.582  1.00  0.00    -0.291 A  
HETATM   13  C   UNL     1      -9.917  13.770  66.679  1.00  0.00    -0.279 A  
HETATM   14  C   UNL     1     -10.867  11.805  65.439  1.00  0.00    -0.295 C  
HETATM   15  F   UNL     1      -9.696  11.117  65.338  1.00  0.00    -0.217 F  
HETATM   16  F   UNL     1     -11.517  11.276  66.511  1.00  0.00    -0.332 F  
HETATM   17  F   UNL     1     -11.601  11.464  64.347  1.00  0.00    -0.347 F  
ENDBRANCH   4   5
ENDBRANCH   2   4
TORSDOF 2
ENDMDL
MODEL       78
REMARK 921   NORMALIZED FREE ENERGY PREDICTED BY IDOCK:   -4.51 KCAL/MOL
REMARK 922        TOTAL FREE ENERGY PREDICTED BY IDOCK:   -5.28 KCAL/MOL
REMARK 923 INTER-LIGAND FREE ENERGY PREDICTED BY IDOCK:   -4.91 KCAL/MOL
REMARK 924 INTRA-LIGAND FREE ENERGY PREDICTED BY IDOCK:   -0.37 KCAL/MOL
REMARK 927      BINDING AFFINITY PREDICTED BY RF-SCORE:    0.00 PKD
ROOT
HETATM    1  C   UNL     1      -8.151   8.994  64.012  1.00  0.00    -0.158 C  
HETATM    2  C   UNL     1      -8.366   9.622  65.355  1.00  0.00    -0.141 C  
HETATM    3  O   UNL     1      -7.522  10.263  65.964  1.00  0.00    -0.115 OA 
ENDROOT
BRANCH   2   4
HETATM    4  O   UNL     1      -9.658   9.321  65.806  1.00  0.00    -0.254 OA 
BRANCH   4   5
HETATM    5  C   UNL     1     -10.446  10.416  66.223  1.00  0.00    -0.159 A  
HETATM    6  C   UNL     1     -10.824  10.570  67.564  1.00  0.00    -0.357 A  
HETATM    7  C   UNL     1     -11.542  11.727  67.921  1.00  0.00    -0.377 A  
HETATM    8  C   UNL     1     -10.523   9.618  68.678  1.00  0.00    -0.210 C  
HETATM    9  O   UNL     1      -9.797   8.532  68.353  1.00  0.00    -0.163 OA 
HETATM   10  C   UNL     1     -11.885  12.694  66.968  1.00  0.00    -0.415 A  
HETATM   11  O   UNL     1     -10.915   9.805  69.820  1.00  0.00    -0.237 OA 
HETATM   12  C   UNL     1     -11.501  12.538  65.633  1.00  0.00    -0.400 A  
HETATM   13  C   UNL     1     -10.751  11.409  65.280  1.00  0.00    -0.326 A  
HETATM   14  C   UNL     1     -11.883  13.533  64.565  1.00  0.00    -0.405 C  
HETATM   15  F   UNL     1     -10.793  14.083  63.962  1.00  0.00    -0.288 F  
HETATM   16  F   UNL     1     -12.612  12.962  63.568  1.00  0.00    -0.478 F  
HETATM   17  F   UNL     1     -12.625  14.574  65.027  1.00  0.00    -0.426 F  
ENDBRANCH   4   5
ENDBRANCH   2   4
TORSDOF 2
ENDMDL
MODEL       79
REMARK 921   NORMALIZED FREE ENERGY PREDICTED BY IDOCK:   -4.50 KCAL/MOL
REMARK 922        TOTAL FREE ENERGY PREDICTED BY IDOCK:   -5.26 KCAL/MOL
REMARK 923 INTER-LIGAND FREE ENERGY PREDICTED BY IDOCK:   -5.18 KCAL/MOL
REMARK 924 INTRA-LIGAND FREE ENERGY PREDICTED BY IDOCK:   -0.08 KCAL/MOL
REMARK 927      BINDING AFFINITY PREDICTED BY RF-SCORE:    0.00 PKD
ROOT
HETATM    1  C   UNL     1     -10.964  14.879  66.532  1.00  0.00    -0.327 C  
HETATM    2  C   UNL     1     -11.466  13.695  67.299  1.00  0.00    -0.343 C  
HETATM    3  O   UNL     1     -12.319  12.918  66.897  1.00  0.00    -0.384 OA 
ENDROOT
BRANCH   2   4
HETATM    4  O   UNL     1     -10.835  13.652  68.550  1.00  0.00    -0.242 OA 
BRANCH   4   5
HETATM    5  C   UNL     1     -11.301  12.669  69.452  1.00  0.00    -0.208 A  
HETATM    6  C   UNL     1     -12.272  12.972  70.417  1.00  0.00    -0.386 A  
HETATM    7  C   UNL     1     -12.745  11.925  71.229  1.00  0.00    -0.401 A  
HETATM    8  C   UNL     1     -12.876  14.317  70.666  1.00  0.00    -0.314 C  
HETATM    9  O   UNL     1     -12.461  15.314  69.863  1.00  0.00    -0.309 OA 
HETATM   10  C   UNL     1     -12.257  10.619  71.093  1.00  0.00    -0.479 A  
HETATM   11  O   UNL     1     -13.696  14.510  71.550  1.00  0.00    -0.366 OA 
HETATM   12  C   UNL     1     -11.293  10.323  70.126  1.00  0.00    -0.388 A  
HETATM   13  C   UNL     1     -10.847  11.352  69.288  1.00  0.00    -0.242 A  
HETATM   14  C   UNL     1     -10.708   8.940  69.971  1.00  0.00    -0.228 C  
HETATM   15  F   UNL     1     -10.932   8.425  68.730  1.00  0.00    -0.163 F  
HETATM   16  F   UNL     1      -9.358   8.930  70.141  1.00  0.00    -0.152 F  
HETATM   17  F   UNL     1     -11.206   8.033  70.853  1.00  0.00    -0.248 F  
ENDBRANCH   4   5
ENDBRANCH   2   4
TORSDOF 2
ENDMDL
MODEL       80
REMARK 921   NORMALIZED FREE ENERGY PREDICTED BY IDOCK:   -4.48 KCAL/MOL
REMARK 922        TOTAL FREE ENERGY PREDICTED BY IDOCK:   -5.24 KCAL/MOL
REMARK 923 INTER-LIGAND FREE ENERGY PREDICTED BY IDOCK:   -4.87 KCAL/MOL
REMARK 924 INTRA-LIGAND FREE ENERGY PREDICTED BY IDOCK:   -0.37 KCAL/MOL
REMARK 927      BINDING AFFINITY PREDICTED BY RF-SCORE:    0.00 PKD
ROOT
HETATM    1  C   UNL     1      -6.921  14.681  69.176  1.00  0.00    -0.134 C  
HETATM    2  C   UNL     1      -6.702  15.103  67.756  1.00  0.00    -0.165 C  
HETATM    3  O   UNL     1      -5.632  15.479  67.301  1.00  0.00    -0.338 OA 
ENDROOT
BRANCH   2   4
HETATM    4  O   UNL     1      -7.917  15.036  67.060  1.00  0.00    -0.207 OA 
BRANCH   4   5
HETATM    5  C   UNL     1      -8.837  16.080  67.306  1.00  0.00    -0.190 A  
HETATM    6  C   UNL     1     -10.108  15.817  67.836  1.00  0.00    -0.230 A  
HETATM    7  C   UNL     1     -10.942  16.912  68.129  1.00  0.00    -0.290 A  
HETATM    8  C   UNL     1     -10.672  14.466  68.140  1.00  0.00    -0.236 C  
HETATM    9  O   UNL     1      -9.863  13.417  67.905  1.00  0.00    -0.222 OA 
HETATM   10  C   UNL     1     -10.527  18.228  67.888  1.00  0.00    -0.408 A  
HETATM   11  O   UNL     1     -11.805  14.315  68.572  1.00  0.00    -0.329 OA 
HETATM   12  C   UNL     1      -9.257  18.484  67.365  1.00  0.00    -0.286 A  
HETATM   13  C   UNL     1      -8.407  17.401  67.109  1.00  0.00    -0.232 A  
HETATM   14  C   UNL     1      -8.783  19.883  67.051  1.00  0.00    -0.334 C  
HETATM   15  F   UNL     1      -7.665  20.215  67.754  1.00  0.00    -0.312 F  
HETATM   16  F   UNL     1      -8.457  20.033  65.739  1.00  0.00    -0.363 F  
HETATM   17  F   UNL     1      -9.702  20.846  67.324  1.00  0.00    -0.594 F  
ENDBRANCH   4   5
ENDBRANCH   2   4
TORSDOF 2
ENDMDL
MODEL       81
REMARK 921   NORMALIZED FREE ENERGY PREDICTED BY IDOCK:   -4.48 KCAL/MOL
REMARK 922        TOTAL FREE ENERGY PREDICTED BY IDOCK:   -5.24 KCAL/MOL
REMARK 923 INTER-LIGAND FREE ENERGY PREDICTED BY IDOCK:   -5.03 KCAL/MOL
REMARK 924 INTRA-LIGAND FREE ENERGY PREDICTED BY IDOCK:   -0.21 KCAL/MOL
REMARK 927      BINDING AFFINITY PREDICTED BY RF-SCORE:    0.00 PKD
ROOT
HETATM    1  C   UNL     1     -12.384  10.752  69.971  1.00  0.00    -0.371 C  
HETATM    2  C   UNL     1     -11.691  11.995  69.504  1.00  0.00    -0.342 C  
HETATM    3  O   UNL     1     -12.189  13.111  69.508  1.00  0.00    -0.258 OA 
ENDROOT
BRANCH   2   4
HETATM    4  O   UNL     1     -10.414  11.663  69.031  1.00  0.00    -0.201 OA 
BRANCH   4   5
HETATM    5  C   UNL     1     -10.327  11.293  67.670  1.00  0.00    -0.184 A  
HETATM    6  C   UNL     1      -9.960   9.993  67.294  1.00  0.00    -0.245 A  
HETATM    7  C   UNL     1      -9.971   9.674  65.923  1.00  0.00    -0.351 A  
HETATM    8  C   UNL     1      -9.564   8.888  68.220  1.00  0.00    -0.146 C  
HETATM    9  O   UNL     1      -9.595   9.173  69.535  1.00  0.00    -0.160 OA 
HETATM   10  C   UNL     1     -10.324  10.624  64.957  1.00  0.00    -0.341 A  
HETATM   11  O   UNL     1      -9.225   7.787  67.813  1.00  0.00    -0.136 OA 
HETATM   12  C   UNL     1     -10.694  11.916  65.338  1.00  0.00    -0.330 A  
HETATM   13  C   UNL     1     -10.724  12.229  66.703  1.00  0.00    -0.276 A  
HETATM   14  C   UNL     1     -11.042  12.984  64.330  1.00  0.00    -0.370 C  
HETATM   15  F   UNL     1     -12.310  13.453  64.496  1.00  0.00    -0.405 F  
HETATM   16  F   UNL     1     -10.228  14.070  64.429  1.00  0.00    -0.457 F  
HETATM   17  F   UNL     1     -10.958  12.566  63.040  1.00  0.00    -0.454 F  
ENDBRANCH   4   5
ENDBRANCH   2   4
TORSDOF 2
ENDMDL
MODEL       82
REMARK 921   NORMALIZED FREE ENERGY PREDICTED BY IDOCK:   -4.47 KCAL/MOL
REMARK 922        TOTAL FREE ENERGY PREDICTED BY IDOCK:   -5.23 KCAL/MOL
REMARK 923 INTER-LIGAND FREE ENERGY PREDICTED BY IDOCK:   -4.88 KCAL/MOL
REMARK 924 INTRA-LIGAND FREE ENERGY PREDICTED BY IDOCK:   -0.35 KCAL/MOL
REMARK 927      BINDING AFFINITY PREDICTED BY RF-SCORE:    0.00 PKD
ROOT
HETATM    1  C   UNL     1      -8.501   7.217  67.101  1.00  0.00    -0.118 C  
HETATM    2  C   UNL     1      -9.763   8.023  67.129  1.00  0.00    -0.195 C  
HETATM    3  O   UNL     1     -10.826   7.665  66.642  1.00  0.00    -0.162 OA 
ENDROOT
BRANCH   2   4
HETATM    4  O   UNL     1      -9.517   9.249  67.760  1.00  0.00    -0.138 OA 
BRANCH   4   5
HETATM    5  C   UNL     1     -10.454   9.650  68.738  1.00  0.00    -0.215 A  
HETATM    6  C   UNL     1     -11.277  10.768  68.539  1.00  0.00    -0.340 A  
HETATM    7  C   UNL     1     -12.242  11.061  69.521  1.00  0.00    -0.352 A  
HETATM    8  C   UNL     1     -11.241  11.689  67.362  1.00  0.00    -0.298 C  
HETATM    9  O   UNL     1     -10.352  11.388  66.398  1.00  0.00    -0.226 OA 
HETATM   10  C   UNL     1     -12.375  10.273  70.671  1.00  0.00    -0.416 A  
HETATM   11  O   UNL     1     -11.971  12.665  67.275  1.00  0.00    -0.424 OA 
HETATM   12  C   UNL     1     -11.556   9.157  70.860  1.00  0.00    -0.350 A  
HETATM   13  C   UNL     1     -10.621   8.836  69.869  1.00  0.00    -0.230 A  
HETATM   14  C   UNL     1     -11.634   8.303  72.102  1.00  0.00    -0.364 C  
HETATM   15  F   UNL     1     -11.944   7.008  71.816  1.00  0.00    -0.296 F  
HETATM   16  F   UNL     1     -10.453   8.263  72.776  1.00  0.00    -0.361 F  
HETATM   17  F   UNL     1     -12.565   8.725  72.998  1.00  0.00    -0.395 F  
ENDBRANCH   4   5
ENDBRANCH   2   4
TORSDOF 2
ENDMDL
MODEL       83
REMARK 921   NORMALIZED FREE ENERGY PREDICTED BY IDOCK:   -4.47 KCAL/MOL
REMARK 922        TOTAL FREE ENERGY PREDICTED BY IDOCK:   -5.23 KCAL/MOL
REMARK 923 INTER-LIGAND FREE ENERGY PREDICTED BY IDOCK:   -4.85 KCAL/MOL
REMARK 924 INTRA-LIGAND FREE ENERGY PREDICTED BY IDOCK:   -0.37 KCAL/MOL
REMARK 927      BINDING AFFINITY PREDICTED BY RF-SCORE:    0.00 PKD
ROOT
HETATM    1  C   UNL     1     -11.750  13.672  64.046  1.00  0.00    -0.405 C  
HETATM    2  C   UNL     1     -12.552  13.995  65.269  1.00  0.00    -0.470 C  
HETATM    3  O   UNL     1     -13.717  13.668  65.442  1.00  0.00    -0.208 OA 
ENDROOT
BRANCH   2   4
HETATM    4  O   UNL     1     -11.770  14.756  66.148  1.00  0.00    -0.342 OA 
BRANCH   4   5
HETATM    5  C   UNL     1     -10.654  14.104  66.719  1.00  0.00    -0.277 A  
HETATM    6  C   UNL     1      -9.388  14.707  66.730  1.00  0.00    -0.275 A  
HETATM    7  C   UNL     1      -8.341  14.033  67.386  1.00  0.00    -0.207 A  
HETATM    8  C   UNL     1      -9.036  16.024  66.116  1.00  0.00    -0.345 C  
HETATM    9  O   UNL     1     -10.042  16.695  65.527  1.00  0.00    -0.553 OA 
HETATM   10  C   UNL     1      -8.545  12.792  68.000  1.00  0.00    -0.186 A  
HETATM   11  O   UNL     1      -7.899  16.470  66.138  1.00  0.00    -0.291 OA 
HETATM   12  C   UNL     1      -9.810  12.198  67.990  1.00  0.00    -0.202 A  
HETATM   13  C   UNL     1     -10.866  12.882  67.374  1.00  0.00    -0.272 A  
HETATM   14  C   UNL     1     -10.067  10.843  68.602  1.00  0.00    -0.191 C  
HETATM   15  F   UNL     1     -10.999  10.897  69.594  1.00  0.00    -0.250 F  
HETATM   16  F   UNL     1     -10.542   9.949  67.693  1.00  0.00    -0.241 F  
HETATM   17  F   UNL     1      -8.963  10.272  69.152  1.00  0.00    -0.139 F  
ENDBRANCH   4   5
ENDBRANCH   2   4
TORSDOF 2
ENDMDL
MODEL       84
REMARK 921   NORMALIZED FREE ENERGY PREDICTED BY IDOCK:   -4.46 KCAL/MOL
REMARK 922        TOTAL FREE ENERGY PREDICTED BY IDOCK:   -5.22 KCAL/MOL
REMARK 923 INTER-LIGAND FREE ENERGY PREDICTED BY IDOCK:   -4.86 KCAL/MOL
REMARK 924 INTRA-LIGAND FREE ENERGY PREDICTED BY IDOCK:   -0.36 KCAL/MOL
REMARK 927      BINDING AFFINITY PREDICTED BY RF-SCORE:    0.00 PKD
ROOT
HETATM    1  C   UNL     1     -10.455   7.962  67.003  1.00  0.00    -0.419 C  
HETATM    2  C   UNL     1     -10.297   9.297  67.663  1.00  0.00    -0.253 C  
HETATM    3  O   UNL     1     -10.928   9.666  68.643  1.00  0.00    -0.195 OA 
ENDROOT
BRANCH   2   4
HETATM    4  O   UNL     1      -9.352  10.054  66.958  1.00  0.00    -0.150 OA 
BRANCH   4   5
HETATM    5  C   UNL     1      -9.771  11.333  66.526  1.00  0.00    -0.202 A  
HETATM    6  C   UNL     1      -9.237  12.500  67.089  1.00  0.00    -0.205 A  
HETATM    7  C   UNL     1      -9.642  13.737  66.554  1.00  0.00    -0.295 A  
HETATM    8  C   UNL     1      -8.253  12.564  68.213  1.00  0.00    -0.168 C  
HETATM    9  O   UNL     1      -7.826  11.384  68.699  1.00  0.00    -0.128 OA 
HETATM   10  C   UNL     1     -10.560  13.809  65.499  1.00  0.00    -0.312 A  
HETATM   11  O   UNL     1      -7.857  13.624  68.673  1.00  0.00    -0.136 OA 
HETATM   12  C   UNL     1     -11.085  12.642  64.939  1.00  0.00    -0.331 A  
HETATM   13  C   UNL     1     -10.655  11.407  65.439  1.00  0.00    -0.333 A  
HETATM   14  C   UNL     1     -12.107  12.672  63.829  1.00  0.00    -0.522 C  
HETATM   15  F   UNL     1     -11.666  12.039  62.706  1.00  0.00    -0.179 F  
HETATM   16  F   UNL     1     -13.264  12.047  64.178  1.00  0.00    -0.520 F  
HETATM   17  F   UNL     1     -12.458  13.927  63.442  1.00  0.00    -0.511 F  
ENDBRANCH   4   5
ENDBRANCH   2   4
TORSDOF 2
ENDMDL
MODEL       85
REMARK 921   NORMALIZED FREE ENERGY PREDICTED BY IDOCK:   -4.46 KCAL/MOL
REMARK 922        TOTAL FREE ENERGY PREDICTED BY IDOCK:   -5.22 KCAL/MOL
REMARK 923 INTER-LIGAND FREE ENERGY PREDICTED BY IDOCK:   -4.86 KCAL/MOL
REMARK 924 INTRA-LIGAND FREE ENERGY PREDICTED BY IDOCK:   -0.36 KCAL/MOL
REMARK 927      BINDING AFFINITY PREDICTED BY RF-SCORE:    0.00 PKD
ROOT
HETATM    1  C   UNL     1     -10.488   7.467  73.136  1.00  0.00    -0.419 C  
HETATM    2  C   UNL     1     -11.181   6.553  72.174  1.00  0.00    -0.271 C  
HETATM    3  O   UNL     1     -10.881   5.383  71.989  1.00  0.00    -0.231 OA 
ENDROOT
BRANCH   2   4
HETATM    4  O   UNL     1     -12.186   7.263  71.502  1.00  0.00    -0.313 OA 
BRANCH   4   5
HETATM    5  C   UNL     1     -11.754   8.293  70.637  1.00  0.00    -0.147 A  
HETATM    6  C   UNL     1     -12.132   9.626  70.849  1.00  0.00    -0.383 A  
HETATM    7  C   UNL     1     -11.600  10.608  69.994  1.00  0.00    -0.406 A  
HETATM    8  C   UNL     1     -13.052  10.119  71.920  1.00  0.00    -0.466 C  
HETATM    9  O   UNL     1     -13.529   9.191  72.769  1.00  0.00    -0.424 OA 
HETATM   10  C   UNL     1     -10.727  10.272  68.952  1.00  0.00    -0.256 A  
HETATM   11  O   UNL     1     -13.362  11.297  72.021  1.00  0.00    -0.462 OA 
HETATM   12  C   UNL     1     -10.349   8.942  68.749  1.00  0.00    -0.232 A  
HETATM   13  C   UNL     1     -10.843   7.965  69.621  1.00  0.00    -0.177 A  
HETATM   14  C   UNL     1      -9.443   8.528  67.615  1.00  0.00    -0.145 C  
HETATM   15  F   UNL     1      -8.304   7.929  68.060  1.00  0.00    -0.118 F  
HETATM   16  F   UNL     1     -10.038   7.628  66.785  1.00  0.00    -0.262 F  
HETATM   17  F   UNL     1      -9.045   9.561  66.827  1.00  0.00    -0.146 F  
ENDBRANCH   4   5
ENDBRANCH   2   4
TORSDOF 2
ENDMDL
MODEL       86
REMARK 921   NORMALIZED FREE ENERGY PREDICTED BY IDOCK:   -4.46 KCAL/MOL
REMARK 922        TOTAL FREE ENERGY PREDICTED BY IDOCK:   -5.22 KCAL/MOL
REMARK 923 INTER-LIGAND FREE ENERGY PREDICTED BY IDOCK:   -5.09 KCAL/MOL
REMARK 924 INTRA-LIGAND FREE ENERGY PREDICTED BY IDOCK:   -0.13 KCAL/MOL
REMARK 927      BINDING AFFINITY PREDICTED BY RF-SCORE:    0.00 PKD
ROOT
HETATM    1  C   UNL     1     -11.290  14.000  64.381  1.00  0.00    -0.330 C  
HETATM    2  C   UNL     1     -10.782  15.265  65.000  1.00  0.00    -0.439 C  
HETATM    3  O   UNL     1     -11.040  16.389  64.595  1.00  0.00    -0.663 OA 
ENDROOT
BRANCH   2   4
HETATM    4  O   UNL     1      -9.941  14.949  66.076  1.00  0.00    -0.277 OA 
BRANCH   4   5
HETATM    5  C   UNL     1      -9.479  16.038  66.850  1.00  0.00    -0.226 A  
HETATM    6  C   UNL     1     -10.051  16.339  68.094  1.00  0.00    -0.244 A  
HETATM    7  C   UNL     1      -9.487  17.388  68.844  1.00  0.00    -0.201 A  
HETATM    8  C   UNL     1     -11.212  15.637  68.721  1.00  0.00    -0.332 C  
HETATM    9  O   UNL     1     -11.727  14.604  68.030  1.00  0.00    -0.330 OA 
HETATM   10  C   UNL     1      -8.395  18.122  68.364  1.00  0.00    -0.311 A  
HETATM   11  O   UNL     1     -11.676  15.979  69.798  1.00  0.00    -0.319 OA 
HETATM   12  C   UNL     1      -7.827  17.814  67.126  1.00  0.00    -0.229 A  
HETATM   13  C   UNL     1      -8.357  16.745  66.392  1.00  0.00    -0.344 A  
HETATM   14  C   UNL     1      -6.676  18.604  66.550  1.00  0.00    -0.201 C  
HETATM   15  F   UNL     1      -5.580  17.827  66.329  1.00  0.00    -0.165 F  
HETATM   16  F   UNL     1      -6.986  19.161  65.348  1.00  0.00    -0.290 F  
HETATM   17  F   UNL     1      -6.262  19.626  67.344  1.00  0.00    -0.188 F  
ENDBRANCH   4   5
ENDBRANCH   2   4
TORSDOF 2
ENDMDL
MODEL       87
REMARK 921   NORMALIZED FREE ENERGY PREDICTED BY IDOCK:   -4.44 KCAL/MOL
REMARK 922        TOTAL FREE ENERGY PREDICTED BY IDOCK:   -5.20 KCAL/MOL
REMARK 923 INTER-LIGAND FREE ENERGY PREDICTED BY IDOCK:   -4.83 KCAL/MOL
REMARK 924 INTRA-LIGAND FREE ENERGY PREDICTED BY IDOCK:   -0.37 KCAL/MOL
REMARK 927      BINDING AFFINITY PREDICTED BY RF-SCORE:    0.00 PKD
ROOT
HETATM    1  C   UNL     1     -11.206   7.775  72.752  1.00  0.00    -0.456 C  
HETATM    2  C   UNL     1     -12.088   8.802  72.113  1.00  0.00    -0.371 C  
HETATM    3  O   UNL     1     -13.282   8.654  71.896  1.00  0.00    -0.336 OA 
ENDROOT
BRANCH   2   4
HETATM    4  O   UNL     1     -11.322   9.925  71.774  1.00  0.00    -0.216 OA 
BRANCH   4   5
HETATM    5  C   UNL     1     -11.380  10.338  70.423  1.00  0.00    -0.332 A  
HETATM    6  C   UNL     1     -11.933  11.576  70.067  1.00  0.00    -0.435 A  
HETATM    7  C   UNL     1     -11.886  11.955  68.712  1.00  0.00    -0.371 A  
HETATM    8  C   UNL     1     -12.568  12.557  70.999  1.00  0.00    -0.256 C  
HETATM    9  O   UNL     1     -12.577  12.222  72.302  1.00  0.00     0.115 OA 
HETATM   10  C   UNL     1     -11.316  11.122  67.742  1.00  0.00    -0.364 A  
HETATM   11  O   UNL     1     -13.060  13.605  70.607  1.00  0.00    -0.135 OA 
HETATM   12  C   UNL     1     -10.762   9.892  68.104  1.00  0.00    -0.279 A  
HETATM   13  C   UNL     1     -10.769   9.526  69.456  1.00  0.00    -0.246 A  
HETATM   14  C   UNL     1     -10.175   8.943  67.088  1.00  0.00    -0.269 C  
HETATM   15  F   UNL     1      -8.860   8.682  67.328  1.00  0.00    -0.127 F  
HETATM   16  F   UNL     1     -10.801   7.735  67.090  1.00  0.00    -0.379 F  
HETATM   17  F   UNL     1     -10.242   9.400  65.810  1.00  0.00    -0.371 F  
ENDBRANCH   4   5
ENDBRANCH   2   4
TORSDOF 2
ENDMDL
MODEL       88
REMARK 921   NORMALIZED FREE ENERGY PREDICTED BY IDOCK:   -4.43 KCAL/MOL
REMARK 922        TOTAL FREE ENERGY PREDICTED BY IDOCK:   -5.19 KCAL/MOL
REMARK 923 INTER-LIGAND FREE ENERGY PREDICTED BY IDOCK:   -4.79 KCAL/MOL
REMARK 924 INTRA-LIGAND FREE ENERGY PREDICTED BY IDOCK:   -0.39 KCAL/MOL
REMARK 927      BINDING AFFINITY PREDICTED BY RF-SCORE:    0.00 PKD
ROOT
HETATM    1  C   UNL     1      -9.165  15.813  66.866  1.00  0.00    -0.250 C  
HETATM    2  C   UNL     1     -10.407  15.321  67.545  1.00  0.00    -0.244 C  
HETATM    3  O   UNL     1     -11.387  16.011  67.785  1.00  0.00    -0.282 OA 
ENDROOT
BRANCH   2   4
HETATM    4  O   UNL     1     -10.243  13.973  67.890  1.00  0.00    -0.232 OA 
BRANCH   4   5
HETATM    5  C   UNL     1     -10.202  13.053  66.818  1.00  0.00    -0.246 A  
HETATM    6  C   UNL     1      -9.194  12.082  66.732  1.00  0.00    -0.201 A  
HETATM    7  C   UNL     1      -9.262  11.149  65.681  1.00  0.00    -0.238 A  
HETATM    8  C   UNL     1      -8.040  11.927  67.670  1.00  0.00    -0.148 C  
HETATM    9  O   UNL     1      -7.993  12.787  68.704  1.00  0.00    -0.114 OA 
HETATM   10  C   UNL     1     -10.296  11.190  64.737  1.00  0.00    -0.387 A  
HETATM   11  O   UNL     1      -7.180  11.074  67.511  1.00  0.00    -0.090 OA 
HETATM   12  C   UNL     1     -11.300  12.156  64.830  1.00  0.00    -0.378 A  
HETATM   13  C   UNL     1     -11.261  13.062  65.897  1.00  0.00    -0.315 A  
HETATM   14  C   UNL     1     -12.410  12.264  63.813  1.00  0.00    -0.538 C  
HETATM   15  F   UNL     1     -13.640  12.108  64.376  1.00  0.00    -0.280 F  
HETATM   16  F   UNL     1     -12.432  13.481  63.203  1.00  0.00    -0.563 F  
HETATM   17  F   UNL     1     -12.330  11.344  62.816  1.00  0.00    -0.290 F  
ENDBRANCH   4   5
ENDBRANCH   2   4
TORSDOF 2
ENDMDL
MODEL       89
REMARK 921   NORMALIZED FREE ENERGY PREDICTED BY IDOCK:   -4.43 KCAL/MOL
REMARK 922        TOTAL FREE ENERGY PREDICTED BY IDOCK:   -5.19 KCAL/MOL
REMARK 923 INTER-LIGAND FREE ENERGY PREDICTED BY IDOCK:   -4.87 KCAL/MOL
REMARK 924 INTRA-LIGAND FREE ENERGY PREDICTED BY IDOCK:   -0.32 KCAL/MOL
REMARK 927      BINDING AFFINITY PREDICTED BY RF-SCORE:    0.00 PKD
ROOT
HETATM    1  C   UNL     1      -6.998  14.102  68.535  1.00  0.00    -0.104 C  
HETATM    2  C   UNL     1      -8.403  14.447  68.150  1.00  0.00    -0.158 C  
HETATM    3  O   UNL     1      -9.360  14.411  68.910  1.00  0.00    -0.183 OA 
ENDROOT
BRANCH   2   4
HETATM    4  O   UNL     1      -8.443  14.772  66.788  1.00  0.00    -0.222 OA 
BRANCH   4   5
HETATM    5  C   UNL     1      -9.114  15.969  66.449  1.00  0.00    -0.319 A  
HETATM    6  C   UNL     1     -10.235  15.960  65.607  1.00  0.00    -0.406 A  
HETATM    7  C   UNL     1     -10.900  17.179  65.378  1.00  0.00    -0.051 A  
HETATM    8  C   UNL     1     -10.814  14.761  64.926  1.00  0.00    -0.416 C  
HETATM    9  O   UNL     1     -10.211  13.585  65.177  1.00  0.00    -0.330 OA 
HETATM   10  C   UNL     1     -10.454  18.373  65.959  1.00  0.00    -0.400 A  
HETATM   11  O   UNL     1     -11.777  14.838  64.178  1.00  0.00    -0.281 OA 
HETATM   12  C   UNL     1      -9.339  18.375  66.801  1.00  0.00    -0.296 A  
HETATM   13  C   UNL     1      -8.698  17.159  67.066  1.00  0.00    -0.244 A  
HETATM   14  C   UNL     1      -8.798  19.642  67.417  1.00  0.00    -0.316 C  
HETATM   15  F   UNL     1      -8.807  19.597  68.778  1.00  0.00    -0.381 F  
HETATM   16  F   UNL     1      -7.506  19.876  67.060  1.00  0.00    -0.241 F  
HETATM   17  F   UNL     1      -9.493  20.758  67.071  1.00  0.00    -0.524 F  
ENDBRANCH   4   5
ENDBRANCH   2   4
TORSDOF 2
ENDMDL
MODEL       90
REMARK 921   NORMALIZED FREE ENERGY PREDICTED BY IDOCK:   -4.41 KCAL/MOL
REMARK 922        TOTAL FREE ENERGY PREDICTED BY IDOCK:   -5.16 KCAL/MOL
REMARK 923 INTER-LIGAND FREE ENERGY PREDICTED BY IDOCK:   -4.89 KCAL/MOL
REMARK 924 INTRA-LIGAND FREE ENERGY PREDICTED BY IDOCK:   -0.27 KCAL/MOL
REMARK 927      BINDING AFFINITY PREDICTED BY RF-SCORE:    0.00 PKD
ROOT
HETATM    1  C   UNL     1      -8.267   8.560  68.485  1.00  0.00    -0.123 C  
HETATM    2  C   UNL     1      -9.737   8.492  68.765  1.00  0.00    -0.164 C  
HETATM    3  O   UNL     1     -10.585   8.168  67.947  1.00  0.00    -0.212 OA 
ENDROOT
BRANCH   2   4
HETATM    4  O   UNL     1      -9.976   8.895  70.086  1.00  0.00    -0.174 OA 
BRANCH   4   5
HETATM    5  C   UNL     1     -10.919   9.932  70.263  1.00  0.00    -0.309 A  
HETATM    6  C   UNL     1     -11.935   9.832  71.224  1.00  0.00    -0.471 A  
HETATM    7  C   UNL     1     -12.790  10.936  71.399  1.00  0.00    -0.554 A  
HETATM    8  C   UNL     1     -12.198   8.655  72.107  1.00  0.00    -0.386 C  
HETATM    9  O   UNL     1     -11.355   7.613  71.978  1.00  0.00    -0.255 OA 
HETATM   10  C   UNL     1     -12.646  12.098  70.631  1.00  0.00    -0.255 A  
HETATM   11  O   UNL     1     -13.126   8.630  72.902  1.00  0.00    -0.265 OA 
HETATM   12  C   UNL     1     -11.629  12.194  69.678  1.00  0.00    -0.361 A  
HETATM   13  C   UNL     1     -10.749  11.115  69.527  1.00  0.00    -0.193 A  
HETATM   14  C   UNL     1     -11.461  13.409  68.799  1.00  0.00    -0.305 C  
HETATM   15  F   UNL     1     -10.244  13.998  68.964  1.00  0.00    -0.229 F  
HETATM   16  F   UNL     1     -11.551  13.104  67.476  1.00  0.00    -0.301 F  
HETATM   17  F   UNL     1     -12.385  14.380  69.026  1.00  0.00    -0.338 F  
ENDBRANCH   4   5
ENDBRANCH   2   4
TORSDOF 2
ENDMDL
MODEL       91
REMARK 921   NORMALIZED FREE ENERGY PREDICTED BY IDOCK:   -4.37 KCAL/MOL
REMARK 922        TOTAL FREE ENERGY PREDICTED BY IDOCK:   -5.12 KCAL/MOL
REMARK 923 INTER-LIGAND FREE ENERGY PREDICTED BY IDOCK:   -4.79 KCAL/MOL
REMARK 924 INTRA-LIGAND FREE ENERGY PREDICTED BY IDOCK:   -0.33 KCAL/MOL
REMARK 927      BINDING AFFINITY PREDICTED BY RF-SCORE:    0.00 PKD
ROOT
HETATM    1  C   UNL     1      -8.971  13.960  66.779  1.00  0.00    -0.206 C  
HETATM    2  C   UNL     1     -10.131  14.613  67.467  1.00  0.00    -0.224 C  
HETATM    3  O   UNL     1     -11.280  14.602  67.052  1.00  0.00    -0.324 OA 
ENDROOT
BRANCH   2   4
HETATM    4  O   UNL     1      -9.678  15.262  68.623  1.00  0.00    -0.199 OA 
BRANCH   4   5
HETATM    5  C   UNL     1      -9.141  16.557  68.445  1.00  0.00    -0.222 A  
HETATM    6  C   UNL     1      -7.823  16.854  68.819  1.00  0.00    -0.250 A  
HETATM    7  C   UNL     1      -7.331  18.142  68.539  1.00  0.00    -0.285 A  
HETATM    8  C   UNL     1      -6.866  15.919  69.485  1.00  0.00    -0.192 C  
HETATM    9  O   UNL     1      -7.314  14.671  69.715  1.00  0.00    -0.122 OA 
HETATM   10  C   UNL     1      -8.131  19.109  67.917  1.00  0.00    -0.323 A  
HETATM   11  O   UNL     1      -5.739  16.262  69.812  1.00  0.00    -0.147 OA 
HETATM   12  C   UNL     1      -9.442  18.805  67.542  1.00  0.00    -0.326 A  
HETATM   13  C   UNL     1      -9.925  17.512  67.781  1.00  0.00    -0.312 A  
HETATM   14  C   UNL     1     -10.355  19.826  66.907  1.00  0.00    -0.476 C  
HETATM   15  F   UNL     1     -10.779  19.439  65.672  1.00  0.00    -0.536 F  
HETATM   16  F   UNL     1     -11.482  20.035  67.640  1.00  0.00    -0.177 F  
HETATM   17  F   UNL     1      -9.779  21.047  66.744  1.00  0.00    -0.464 F  
ENDBRANCH   4   5
ENDBRANCH   2   4
TORSDOF 2
ENDMDL
MODEL       92
REMARK 921   NORMALIZED FREE ENERGY PREDICTED BY IDOCK:   -4.37 KCAL/MOL
REMARK 922        TOTAL FREE ENERGY PREDICTED BY IDOCK:   -5.12 KCAL/MOL
REMARK 923 INTER-LIGAND FREE ENERGY PREDICTED BY IDOCK:   -4.97 KCAL/MOL
REMARK 924 INTRA-LIGAND FREE ENERGY PREDICTED BY IDOCK:   -0.15 KCAL/MOL
REMARK 927      BINDING AFFINITY PREDICTED BY RF-SCORE:    0.00 PKD
ROOT
HETATM    1  C   UNL     1     -10.087  15.460  68.694  1.00  0.00    -0.212 C  
HETATM    2  C   UNL     1     -11.351  14.656  68.673  1.00  0.00    -0.283 C  
HETATM    3  O   UNL     1     -12.376  14.959  69.266  1.00  0.00    -0.214 OA 
ENDROOT
BRANCH   2   4
HETATM    4  O   UNL     1     -11.151  13.499  67.908  1.00  0.00    -0.250 OA 
BRANCH   4   5
HETATM    5  C   UNL     1     -10.910  12.307  68.628  1.00  0.00    -0.236 A  
HETATM    6  C   UNL     1      -9.732  11.571  68.439  1.00  0.00    -0.202 A  
HETATM    7  C   UNL     1      -9.524  10.438  69.247  1.00  0.00    -0.214 A  
HETATM    8  C   UNL     1      -8.649  11.882  67.456  1.00  0.00    -0.160 C  
HETATM    9  O   UNL     1      -8.820  12.990  66.712  1.00  0.00    -0.207 OA 
HETATM   10  C   UNL     1     -10.466  10.043  70.204  1.00  0.00    -0.338 A  
HETATM   11  O   UNL     1      -7.663  11.172  67.327  1.00  0.00    -0.118 OA 
HETATM   12  C   UNL     1     -11.636  10.783  70.392  1.00  0.00    -0.431 A  
HETATM   13  C   UNL     1     -11.831  11.935  69.619  1.00  0.00    -0.406 A  
HETATM   14  C   UNL     1     -12.698  10.373  71.382  1.00  0.00    -0.446 C  
HETATM   15  F   UNL     1     -12.914  11.328  72.329  1.00  0.00    -0.535 F  
HETATM   16  F   UNL     1     -13.903  10.160  70.787  1.00  0.00    -0.322 F  
HETATM   17  F   UNL     1     -12.404   9.230  72.058  1.00  0.00    -0.393 F  
ENDBRANCH   4   5
ENDBRANCH   2   4
TORSDOF 2
ENDMDL
MODEL       93
REMARK 921   NORMALIZED FREE ENERGY PREDICTED BY IDOCK:   -4.36 KCAL/MOL
REMARK 922        TOTAL FREE ENERGY PREDICTED BY IDOCK:   -5.11 KCAL/MOL
REMARK 923 INTER-LIGAND FREE ENERGY PREDICTED BY IDOCK:   -5.10 KCAL/MOL
REMARK 924 INTRA-LIGAND FREE ENERGY PREDICTED BY IDOCK:   -0.00 KCAL/MOL
REMARK 927      BINDING AFFINITY PREDICTED BY RF-SCORE:    0.00 PKD
ROOT
HETATM    1  C   UNL     1     -13.388  12.170  71.971  1.00  0.00    -0.470 C  
HETATM    2  C   UNL     1     -12.893  10.957  71.244  1.00  0.00    -0.433 C  
HETATM    3  O   UNL     1     -13.439   9.864  71.265  1.00  0.00    -0.367 OA 
ENDROOT
BRANCH   2   4
HETATM    4  O   UNL     1     -11.698  11.270  70.581  1.00  0.00    -0.318 OA 
BRANCH   4   5
HETATM    5  C   UNL     1     -11.327  10.413  69.521  1.00  0.00    -0.265 A  
HETATM    6  C   UNL     1     -11.274  10.875  68.199  1.00  0.00    -0.363 A  
HETATM    7  C   UNL     1     -10.820   9.987  67.206  1.00  0.00    -0.284 A  
HETATM    8  C   UNL     1     -11.645  12.246  67.730  1.00  0.00    -0.351 C  
HETATM    9  O   UNL     1     -12.037  13.114  68.680  1.00  0.00    -0.315 OA 
HETATM   10  C   UNL     1     -10.443   8.675  67.519  1.00  0.00    -0.335 A  
HETATM   11  O   UNL     1     -11.603  12.565  66.552  1.00  0.00    -0.347 OA 
HETATM   12  C   UNL     1     -10.493   8.222  68.839  1.00  0.00    -0.209 A  
HETATM   13  C   UNL     1     -10.906   9.113  69.838  1.00  0.00    -0.242 A  
HETATM   14  C   UNL     1     -10.136   6.805  69.218  1.00  0.00    -0.168 C  
HETATM   15  F   UNL     1      -9.101   6.755  70.101  1.00  0.00    -0.150 F  
HETATM   16  F   UNL     1     -11.171   6.157  69.819  1.00  0.00    -0.366 F  
HETATM   17  F   UNL     1      -9.770   6.032  68.161  1.00  0.00    -0.121 F  
ENDBRANCH   4   5
ENDBRANCH   2   4
TORSDOF 2
ENDMDL
MODEL       94
REMARK 921   NORMALIZED FREE ENERGY PREDICTED BY IDOCK:   -4.36 KCAL/MOL
REMARK 922        TOTAL FREE ENERGY PREDICTED BY IDOCK:   -5.11 KCAL/MOL
REMARK 923 INTER-LIGAND FREE ENERGY PREDICTED BY IDOCK:   -4.77 KCAL/MOL
REMARK 924 INTRA-LIGAND FREE ENERGY PREDICTED BY IDOCK:   -0.34 KCAL/MOL
REMARK 927      BINDING AFFINITY PREDICTED BY RF-SCORE:    0.00 PKD
ROOT
HETATM    1  C   UNL     1      -9.654  10.130  68.920  1.00  0.00    -0.186 C  
HETATM    2  C   UNL     1      -9.123  11.412  68.356  1.00  0.00    -0.179 C  
HETATM    3  O   UNL     1      -7.992  11.562  67.917  1.00  0.00    -0.115 OA 
ENDROOT
BRANCH   2   4
HETATM    4  O   UNL     1     -10.108  12.404  68.452  1.00  0.00    -0.219 OA 
BRANCH   4   5
HETATM    5  C   UNL     1     -10.409  13.106  67.263  1.00  0.00    -0.243 A  
HETATM    6  C   UNL     1      -9.907  14.395  67.035  1.00  0.00    -0.252 A  
HETATM    7  C   UNL     1     -10.182  15.001  65.795  1.00  0.00    -0.361 A  
HETATM    8  C   UNL     1      -9.084  15.200  67.988  1.00  0.00    -0.180 C  
HETATM    9  O   UNL     1      -8.779  14.609  69.158  1.00  0.00    -0.132 OA 
HETATM   10  C   UNL     1     -10.943  14.348  64.818  1.00  0.00    -0.409 A  
HETATM   11  O   UNL     1      -8.710  16.334  67.730  1.00  0.00    -0.177 OA 
HETATM   12  C   UNL     1     -11.436  13.062  65.049  1.00  0.00    -0.345 A  
HETATM   13  C   UNL     1     -11.132  12.437  66.265  1.00  0.00    -0.344 A  
HETATM   14  C   UNL     1     -12.295  12.336  64.042  1.00  0.00    -0.475 C  
HETATM   15  F   UNL     1     -11.732  11.164  63.636  1.00  0.00    -0.352 F  
HETATM   16  F   UNL     1     -13.515  12.008  64.548  1.00  0.00    -0.287 F  
HETATM   17  F   UNL     1     -12.535  13.051  62.911  1.00  0.00    -0.516 F  
ENDBRANCH   4   5
ENDBRANCH   2   4
TORSDOF 2
ENDMDL
MODEL       95
REMARK 921   NORMALIZED FREE ENERGY PREDICTED BY IDOCK:   -4.34 KCAL/MOL
REMARK 922        TOTAL FREE ENERGY PREDICTED BY IDOCK:   -5.09 KCAL/MOL
REMARK 923 INTER-LIGAND FREE ENERGY PREDICTED BY IDOCK:   -5.00 KCAL/MOL
REMARK 924 INTRA-LIGAND FREE ENERGY PREDICTED BY IDOCK:   -0.09 KCAL/MOL
REMARK 927      BINDING AFFINITY PREDICTED BY RF-SCORE:    0.00 PKD
ROOT
HETATM    1  C   UNL     1     -10.964  13.782  64.671  1.00  0.00    -0.406 C  
HETATM    2  C   UNL     1     -10.601  13.006  65.899  1.00  0.00    -0.275 C  
HETATM    3  O   UNL     1      -9.766  13.357  66.720  1.00  0.00    -0.247 OA 
ENDROOT
BRANCH   2   4
HETATM    4  O   UNL     1     -11.334  11.813  65.927  1.00  0.00    -0.326 OA 
BRANCH   4   5
HETATM    5  C   UNL     1     -11.045  10.925  66.988  1.00  0.00    -0.202 A  
HETATM    6  C   UNL     1     -10.128   9.877  66.827  1.00  0.00    -0.292 A  
HETATM    7  C   UNL     1      -9.831   9.081  67.949  1.00  0.00    -0.207 A  
HETATM    8  C   UNL     1      -9.412   9.520  65.564  1.00  0.00    -0.268 C  
HETATM    9  O   UNL     1      -9.657  10.304  64.499  1.00  0.00    -0.270 OA 
HETATM   10  C   UNL     1     -10.437   9.315  69.190  1.00  0.00    -0.231 A  
HETATM   11  O   UNL     1      -8.649   8.568  65.494  1.00  0.00    -0.163 OA 
HETATM   12  C   UNL     1     -11.346  10.365  69.345  1.00  0.00    -0.310 A  
HETATM   13  C   UNL     1     -11.616  11.185  68.243  1.00  0.00    -0.359 A  
HETATM   14  C   UNL     1     -12.055  10.629  70.651  1.00  0.00    -0.365 C  
HETATM   15  F   UNL     1     -11.787  11.872  71.139  1.00  0.00    -0.274 F  
HETATM   16  F   UNL     1     -13.408  10.562  70.525  1.00  0.00    -0.387 F  
HETATM   17  F   UNL     1     -11.724   9.756  71.639  1.00  0.00    -0.419 F  
ENDBRANCH   4   5
ENDBRANCH   2   4
TORSDOF 2
ENDMDL
MODEL       96
REMARK 921   NORMALIZED FREE ENERGY PREDICTED BY IDOCK:   -4.31 KCAL/MOL
REMARK 922        TOTAL FREE ENERGY PREDICTED BY IDOCK:   -5.05 KCAL/MOL
REMARK 923 INTER-LIGAND FREE ENERGY PREDICTED BY IDOCK:   -4.73 KCAL/MOL
REMARK 924 INTRA-LIGAND FREE ENERGY PREDICTED BY IDOCK:   -0.32 KCAL/MOL
REMARK 927      BINDING AFFINITY PREDICTED BY RF-SCORE:    0.00 PKD
ROOT
HETATM    1  C   UNL     1     -10.909  20.092  65.560  1.00  0.00    -0.179 C  
HETATM    2  C   UNL     1      -9.729  20.040  66.482  1.00  0.00    -0.443 C  
HETATM    3  O   UNL     1      -9.488  20.869  67.348  1.00  0.00    -0.401 OA 
ENDROOT
BRANCH   2   4
HETATM    4  O   UNL     1      -8.940  18.927  66.163  1.00  0.00    -0.434 OA 
BRANCH   4   5
HETATM    5  C   UNL     1      -8.883  17.902  67.134  1.00  0.00    -0.247 A  
HETATM    6  C   UNL     1      -7.736  17.708  67.917  1.00  0.00    -0.216 A  
HETATM    7  C   UNL     1      -7.779  16.720  68.918  1.00  0.00    -0.242 A  
HETATM    8  C   UNL     1      -6.454  18.469  67.804  1.00  0.00    -0.209 C  
HETATM    9  O   UNL     1      -6.421  19.446  66.879  1.00  0.00    -0.189 OA 
HETATM   10  C   UNL     1      -8.924  15.940  69.124  1.00  0.00    -0.256 A  
HETATM   11  O   UNL     1      -5.484  18.219  68.503  1.00  0.00    -0.174 OA 
HETATM   12  C   UNL     1     -10.065  16.141  68.343  1.00  0.00    -0.236 A  
HETATM   13  C   UNL     1     -10.043  17.150  67.372  1.00  0.00    -0.301 A  
HETATM   14  C   UNL     1     -11.307  15.298  68.500  1.00  0.00    -0.327 C  
HETATM   15  F   UNL     1     -12.397  16.045  68.830  1.00  0.00    -0.287 F  
HETATM   16  F   UNL     1     -11.635  14.646  67.352  1.00  0.00    -0.334 F  
HETATM   17  F   UNL     1     -11.200  14.341  69.460  1.00  0.00    -0.255 F  
ENDBRANCH   4   5
ENDBRANCH   2   4
TORSDOF 2
ENDMDL
MODEL       97
REMARK 921   NORMALIZED FREE ENERGY PREDICTED BY IDOCK:   -4.31 KCAL/MOL
REMARK 922        TOTAL FREE ENERGY PREDICTED BY IDOCK:   -5.05 KCAL/MOL
REMARK 923 INTER-LIGAND FREE ENERGY PREDICTED BY IDOCK:   -4.73 KCAL/MOL
REMARK 924 INTRA-LIGAND FREE ENERGY PREDICTED BY IDOCK:   -0.32 KCAL/MOL
REMARK 927      BINDING AFFINITY PREDICTED BY RF-SCORE:    0.00 PKD
ROOT
HETATM    1  C   UNL     1      -9.341   6.856  66.602  1.00  0.00    -0.198 C  
HETATM    2  C   UNL     1     -10.268   7.295  67.693  1.00  0.00    -0.200 C  
HETATM    3  O   UNL     1     -11.368   6.807  67.907  1.00  0.00    -0.148 OA 
ENDROOT
BRANCH   2   4
HETATM    4  O   UNL     1      -9.692   8.367  68.388  1.00  0.00    -0.150 OA 
BRANCH   4   5
HETATM    5  C   UNL     1     -10.421   9.577  68.388  1.00  0.00    -0.224 A  
HETATM    6  C   UNL     1     -11.113  10.007  69.529  1.00  0.00    -0.279 A  
HETATM    7  C   UNL     1     -11.752  11.261  69.481  1.00  0.00    -0.415 A  
HETATM    8  C   UNL     1     -11.233   9.261  70.818  1.00  0.00    -0.288 C  
HETATM    9  O   UNL     1     -10.587   8.082  70.886  1.00  0.00    -0.209 OA 
HETATM   10  C   UNL     1     -11.712  12.055  68.329  1.00  0.00    -0.396 A  
HETATM   11  O   UNL     1     -11.884   9.687  71.761  1.00  0.00    -0.386 OA 
HETATM   12  C   UNL     1     -11.016  11.624  67.197  1.00  0.00    -0.330 A  
HETATM   13  C   UNL     1     -10.345  10.396  67.251  1.00  0.00    -0.278 A  
HETATM   14  C   UNL     1     -10.981  12.427  65.920  1.00  0.00    -0.288 C  
HETATM   15  F   UNL     1      -9.712  12.771  65.565  1.00  0.00    -0.250 F  
HETATM   16  F   UNL     1     -11.489  11.737  64.863  1.00  0.00    -0.371 F  
HETATM   17  F   UNL     1     -11.683  13.589  65.984  1.00  0.00    -0.318 F  
ENDBRANCH   4   5
ENDBRANCH   2   4
TORSDOF 2
ENDMDL
MODEL       98
REMARK 921   NORMALIZED FREE ENERGY PREDICTED BY IDOCK:   -4.27 KCAL/MOL
REMARK 922        TOTAL FREE ENERGY PREDICTED BY IDOCK:   -5.01 KCAL/MOL
REMARK 923 INTER-LIGAND FREE ENERGY PREDICTED BY IDOCK:   -5.01 KCAL/MOL
REMARK 924 INTRA-LIGAND FREE ENERGY PREDICTED BY IDOCK:    0.01 KCAL/MOL
REMARK 927      BINDING AFFINITY PREDICTED BY RF-SCORE:    0.00 PKD
ROOT
HETATM    1  C   UNL     1      -9.115  13.639  68.135  1.00  0.00    -0.195 C  
HETATM    2  C   UNL     1      -8.618  14.903  68.766  1.00  0.00    -0.177 C  
HETATM    3  O   UNL     1      -7.569  15.004  69.385  1.00  0.00    -0.181 OA 
ENDROOT
BRANCH   2   4
HETATM    4  O   UNL     1      -9.560  15.922  68.568  1.00  0.00    -0.197 OA 
BRANCH   4   5
HETATM    5  C   UNL     1      -9.070  17.130  68.024  1.00  0.00    -0.240 A  
HETATM    6  C   UNL     1      -9.519  17.603  66.783  1.00  0.00    -0.285 A  
HETATM    7  C   UNL     1      -9.047  18.852  66.341  1.00  0.00    -0.317 A  
HETATM    8  C   UNL     1     -10.477  16.905  65.870  1.00  0.00    -0.285 C  
HETATM    9  O   UNL     1     -10.968  15.731  66.307  1.00  0.00    -0.277 OA 
HETATM   10  C   UNL     1      -8.145  19.603  67.106  1.00  0.00    -0.315 A  
HETATM   11  O   UNL     1     -10.797  17.367  64.785  1.00  0.00    -0.846 OA 
HETATM   12  C   UNL     1      -7.705  19.129  68.345  1.00  0.00    -0.359 A  
HETATM   13  C   UNL     1      -8.203  17.905  68.809  1.00  0.00    -0.231 A  
HETATM   14  C   UNL     1      -6.703  19.883  69.184  1.00  0.00    -0.324 C  
HETATM   15  F   UNL     1      -7.204  20.215  70.407  1.00  0.00    -0.227 F  
HETATM   16  F   UNL     1      -5.582  19.152  69.427  1.00  0.00    -0.195 F  
HETATM   17  F   UNL     1      -6.282  21.046  68.620  1.00  0.00    -0.362 F  
ENDBRANCH   4   5
ENDBRANCH   2   4
TORSDOF 2
ENDMDL
MODEL       99
REMARK 921   NORMALIZED FREE ENERGY PREDICTED BY IDOCK:   -4.26 KCAL/MOL
REMARK 922        TOTAL FREE ENERGY PREDICTED BY IDOCK:   -4.99 KCAL/MOL
REMARK 923 INTER-LIGAND FREE ENERGY PREDICTED BY IDOCK:   -4.99 KCAL/MOL
REMARK 924 INTRA-LIGAND FREE ENERGY PREDICTED BY IDOCK:    0.00 KCAL/MOL
REMARK 927      BINDING AFFINITY PREDICTED BY RF-SCORE:    0.00 PKD
ROOT
HETATM    1  C   UNL     1      -5.182  19.104  66.470  1.00  0.00    -0.162 C  
HETATM    2  C   UNL     1      -5.890  18.306  65.419  1.00  0.00    -0.195 C  
HETATM    3  O   UNL     1      -6.033  18.659  64.257  1.00  0.00    -0.338 OA 
ENDROOT
BRANCH   2   4
HETATM    4  O   UNL     1      -6.388  17.127  65.989  1.00  0.00    -0.163 OA 
BRANCH   4   5
HETATM    5  C   UNL     1      -7.632  17.229  66.650  1.00  0.00    -0.258 A  
HETATM    6  C   UNL     1      -8.038  16.267  67.586  1.00  0.00    -0.161 A  
HETATM    7  C   UNL     1      -9.254  16.475  68.264  1.00  0.00    -0.214 A  
HETATM    8  C   UNL     1      -7.289  15.026  67.954  1.00  0.00    -0.143 C  
HETATM    9  O   UNL     1      -6.103  14.844  67.343  1.00  0.00    -0.339 OA 
HETATM   10  C   UNL     1     -10.047  17.600  68.007  1.00  0.00    -0.343 A  
HETATM   11  O   UNL     1      -7.724  14.216  68.758  1.00  0.00    -0.131 OA 
HETATM   12  C   UNL     1      -9.636  18.557  67.077  1.00  0.00    -0.305 A  
HETATM   13  C   UNL     1      -8.407  18.377  66.429  1.00  0.00    -0.272 A  
HETATM   14  C   UNL     1     -10.477  19.764  66.738  1.00  0.00    -0.489 C  
HETATM   15  F   UNL     1      -9.830  20.932  67.006  1.00  0.00    -0.599 F  
HETATM   16  F   UNL     1     -10.801  19.811  65.418  1.00  0.00    -0.595 F  
HETATM   17  F   UNL     1     -11.653  19.819  67.417  1.00  0.00    -0.286 F  
ENDBRANCH   4   5
ENDBRANCH   2   4
TORSDOF 2
ENDMDL
MODEL      100
REMARK 921   NORMALIZED FREE ENERGY PREDICTED BY IDOCK:   -4.26 KCAL/MOL
REMARK 922        TOTAL FREE ENERGY PREDICTED BY IDOCK:   -4.99 KCAL/MOL
REMARK 923 INTER-LIGAND FREE ENERGY PREDICTED BY IDOCK:   -4.99 KCAL/MOL
REMARK 924 INTRA-LIGAND FREE ENERGY PREDICTED BY IDOCK:   -0.00 KCAL/MOL
REMARK 927      BINDING AFFINITY PREDICTED BY RF-SCORE:    0.00 PKD
ROOT
HETATM    1  C   UNL     1     -11.643  14.893  68.244  1.00  0.00    -0.356 C  
HETATM    2  C   UNL     1     -11.864  13.489  68.717  1.00  0.00    -0.355 C  
HETATM    3  O   UNL     1     -11.580  13.080  69.833  1.00  0.00    -0.263 OA 
ENDROOT
BRANCH   2   4
HETATM    4  O   UNL     1     -12.400  12.726  67.670  1.00  0.00    -0.250 OA 
BRANCH   4   5
HETATM    5  C   UNL     1     -11.553  11.739  67.117  1.00  0.00    -0.266 A  
HETATM    6  C   UNL     1     -11.323  11.672  65.736  1.00  0.00    -0.244 A  
HETATM    7  C   UNL     1     -10.407  10.714  65.264  1.00  0.00    -0.321 A  
HETATM    8  C   UNL     1     -11.955  12.540  64.695  1.00  0.00    -0.404 C  
HETATM    9  O   UNL     1     -12.798  13.489  65.143  1.00  0.00    -0.681 OA 
HETATM   10  C   UNL     1      -9.750   9.841  66.140  1.00  0.00    -0.309 A  
HETATM   11  O   UNL     1     -11.728  12.400  63.503  1.00  0.00    -0.455 OA 
HETATM   12  C   UNL     1      -9.979   9.916  67.516  1.00  0.00    -0.229 A  
HETATM   13  C   UNL     1     -10.859  10.894  67.996  1.00  0.00    -0.293 A  
HETATM   14  C   UNL     1      -9.325   8.970  68.494  1.00  0.00    -0.139 C  
HETATM   15  F   UNL     1      -8.562   9.627  69.411  1.00  0.00    -0.117 F  
HETATM   16  F   UNL     1     -10.238   8.258  69.209  1.00  0.00    -0.184 F  
HETATM   17  F   UNL     1      -8.509   8.056  67.907  1.00  0.00    -0.121 F  
ENDBRANCH   4   5
ENDBRANCH   2   4
TORSDOF 2
ENDMDL
MODEL      101
REMARK 921   NORMALIZED FREE ENERGY PREDICTED BY IDOCK:   -4.25 KCAL/MOL
REMARK 922        TOTAL FREE ENERGY PREDICTED BY IDOCK:   -4.99 KCAL/MOL
REMARK 923 INTER-LIGAND FREE ENERGY PREDICTED BY IDOCK:   -4.76 KCAL/MOL
REMARK 924 INTRA-LIGAND FREE ENERGY PREDICTED BY IDOCK:   -0.23 KCAL/MOL
REMARK 927      BINDING AFFINITY PREDICTED BY RF-SCORE:    0.00 PKD
ROOT
HETATM    1  C   UNL     1      -6.689  14.182  67.568  1.00  0.00    -0.127 C  
HETATM    2  C   UNL     1      -7.584  15.102  68.340  1.00  0.00    -0.117 C  
HETATM    3  O   UNL     1      -7.196  15.917  69.164  1.00  0.00    -0.170 OA 
ENDROOT
BRANCH   2   4
HETATM    4  O   UNL     1      -8.918  14.848  67.996  1.00  0.00    -0.166 OA 
BRANCH   4   5
HETATM    5  C   UNL     1      -9.497  15.719  67.046  1.00  0.00    -0.223 A  
HETATM    6  C   UNL     1     -10.106  15.224  65.884  1.00  0.00    -0.359 A  
HETATM    7  C   UNL     1     -10.731  16.144  65.022  1.00  0.00    -0.359 A  
HETATM    8  C   UNL     1     -10.172  13.789  65.468  1.00  0.00    -0.316 C  
HETATM    9  O   UNL     1      -9.616  12.899  66.310  1.00  0.00    -0.265 OA 
HETATM   10  C   UNL     1     -10.737  17.516  65.302  1.00  0.00     0.080 A  
HETATM   11  O   UNL     1     -10.694  13.437  64.421  1.00  0.00    -0.396 OA 
HETATM   12  C   UNL     1     -10.133  18.003  66.464  1.00  0.00    -0.379 A  
HETATM   13  C   UNL     1      -9.545  17.088  67.346  1.00  0.00    -0.246 A  
HETATM   14  C   UNL     1     -10.079  19.476  66.786  1.00  0.00    -0.412 C  
HETATM   15  F   UNL     1     -10.697  19.767  67.964  1.00  0.00    -0.521 F  
HETATM   16  F   UNL     1      -8.802  19.929  66.913  1.00  0.00    -0.324 F  
HETATM   17  F   UNL     1     -10.667  20.264  65.846  1.00  0.00    -0.464 F  
ENDBRANCH   4   5
ENDBRANCH   2   4
TORSDOF 2
ENDMDL
MODEL      102
REMARK 921   NORMALIZED FREE ENERGY PREDICTED BY IDOCK:   -4.25 KCAL/MOL
REMARK 922        TOTAL FREE ENERGY PREDICTED BY IDOCK:   -4.98 KCAL/MOL
REMARK 923 INTER-LIGAND FREE ENERGY PREDICTED BY IDOCK:   -5.21 KCAL/MOL
REMARK 924 INTRA-LIGAND FREE ENERGY PREDICTED BY IDOCK:    0.23 KCAL/MOL
REMARK 927      BINDING AFFINITY PREDICTED BY RF-SCORE:    0.00 PKD
ROOT
HETATM    1  C   UNL     1      -8.458  15.429  66.701  1.00  0.00    -0.296 C  
HETATM    2  C   UNL     1      -9.772  15.490  65.985  1.00  0.00    -0.345 C  
HETATM    3  O   UNL     1     -10.069  16.333  65.150  1.00  0.00    -0.518 OA 
ENDROOT
BRANCH   2   4
HETATM    4  O   UNL     1     -10.604  14.465  66.454  1.00  0.00    -0.289 OA 
BRANCH   4   5
HETATM    5  C   UNL     1     -10.320  13.164  65.982  1.00  0.00    -0.287 A  
HETATM    6  C   UNL     1     -11.185  12.510  65.093  1.00  0.00    -0.342 A  
HETATM    7  C   UNL     1     -10.799  11.248  64.603  1.00  0.00    -0.335 A  
HETATM    8  C   UNL     1     -12.493  13.033  64.593  1.00  0.00    -0.400 C  
HETATM    9  O   UNL     1     -12.847  14.259  65.021  1.00  0.00    -0.674 OA 
HETATM   10  C   UNL     1      -9.595  10.651  64.997  1.00  0.00    -0.319 A  
HETATM   11  O   UNL     1     -13.209  12.389  63.842  1.00  0.00    -0.718 OA 
HETATM   12  C   UNL     1      -8.735  11.309  65.879  1.00  0.00    -0.146 A  
HETATM   13  C   UNL     1      -9.094  12.583  66.339  1.00  0.00    -0.129 A  
HETATM   14  C   UNL     1      -7.448  10.687  66.364  1.00  0.00    -0.138 C  
HETATM   15  F   UNL     1      -6.360  11.436  66.033  1.00  0.00    -0.109 F  
HETATM   16  F   UNL     1      -7.416  10.561  67.718  1.00  0.00    -0.084 F  
HETATM   17  F   UNL     1      -7.219   9.444  65.863  1.00  0.00    -0.086 F  
ENDBRANCH   4   5
ENDBRANCH   2   4
TORSDOF 2
ENDMDL
MODEL      103
REMARK 921   NORMALIZED FREE ENERGY PREDICTED BY IDOCK:   -4.25 KCAL/MOL
REMARK 922        TOTAL FREE ENERGY PREDICTED BY IDOCK:   -4.98 KCAL/MOL
REMARK 923 INTER-LIGAND FREE ENERGY PREDICTED BY IDOCK:   -5.06 KCAL/MOL
REMARK 924 INTRA-LIGAND FREE ENERGY PREDICTED BY IDOCK:    0.08 KCAL/MOL
REMARK 927      BINDING AFFINITY PREDICTED BY RF-SCORE:    0.00 PKD
ROOT
HETATM    1  C   UNL     1     -12.899  11.291  71.492  1.00  0.00    -0.519 C  
HETATM    2  C   UNL     1     -11.862  10.931  70.473  1.00  0.00    -0.360 C  
HETATM    3  O   UNL     1     -11.777  11.433  69.362  1.00  0.00    -0.277 OA 
ENDROOT
BRANCH   2   4
HETATM    4  O   UNL     1     -11.047   9.911  70.982  1.00  0.00    -0.337 OA 
BRANCH   4   5
HETATM    5  C   UNL     1     -10.918   8.754  70.180  1.00  0.00    -0.223 A  
HETATM    6  C   UNL     1     -11.405   7.513  70.613  1.00  0.00    -0.301 A  
HETATM    7  C   UNL     1     -11.313   6.422  69.729  1.00  0.00    -0.494 A  
HETATM    8  C   UNL     1     -12.037   7.229  71.938  1.00  0.00    -0.314 C  
HETATM    9  O   UNL     1     -12.170   8.278  72.771  1.00  0.00    -0.327 OA 
HETATM   10  C   UNL     1     -10.741   6.560  68.458  1.00  0.00    -0.329 A  
HETATM   11  O   UNL     1     -12.409   6.110  72.257  1.00  0.00    -0.271 OA 
HETATM   12  C   UNL     1     -10.261   7.801  68.030  1.00  0.00    -0.249 A  
HETATM   13  C   UNL     1     -10.387   8.900  68.889  1.00  0.00    -0.229 A  
HETATM   14  C   UNL     1      -9.600   7.989  66.687  1.00  0.00    -0.230 C  
HETATM   15  F   UNL     1     -10.261   8.893  65.911  1.00  0.00    -0.355 F  
HETATM   16  F   UNL     1      -8.327   8.455  66.800  1.00  0.00    -0.104 F  
HETATM   17  F   UNL     1      -9.520   6.848  65.952  1.00  0.00    -0.146 F  
ENDBRANCH   4   5
ENDBRANCH   2   4
TORSDOF 2
ENDMDL
MODEL      104
REMARK 921   NORMALIZED FREE ENERGY PREDICTED BY IDOCK:   -4.25 KCAL/MOL
REMARK 922        TOTAL FREE ENERGY PREDICTED BY IDOCK:   -4.98 KCAL/MOL
REMARK 923 INTER-LIGAND FREE ENERGY PREDICTED BY IDOCK:   -4.66 KCAL/MOL
REMARK 924 INTRA-LIGAND FREE ENERGY PREDICTED BY IDOCK:   -0.32 KCAL/MOL
REMARK 927      BINDING AFFINITY PREDICTED BY RF-SCORE:    0.00 PKD
ROOT
HETATM    1  C   UNL     1      -9.811  10.095  64.903  1.00  0.00    -0.390 C  
HETATM    2  C   UNL     1      -8.557  10.499  65.614  1.00  0.00    -0.175 C  
HETATM    3  O   UNL     1      -7.509   9.869  65.586  1.00  0.00    -0.105 OA 
ENDROOT
BRANCH   2   4
HETATM    4  O   UNL     1      -8.792  11.676  66.337  1.00  0.00    -0.189 OA 
BRANCH   4   5
HETATM    5  C   UNL     1      -9.774  11.602  67.351  1.00  0.00    -0.176 A  
HETATM    6  C   UNL     1     -10.914  12.416  67.318  1.00  0.00    -0.302 A  
HETATM    7  C   UNL     1     -11.888  12.232  68.317  1.00  0.00    -0.367 A  
HETATM    8  C   UNL     1     -11.213  13.471  66.301  1.00  0.00    -0.297 C  
HETATM    9  O   UNL     1     -10.308  13.621  65.316  1.00  0.00    -0.321 OA 
HETATM   10  C   UNL     1     -11.724  11.275  69.326  1.00  0.00    -0.403 A  
HETATM   11  O   UNL     1     -12.216  14.165  66.357  1.00  0.00    -0.444 OA 
HETATM   12  C   UNL     1     -10.587  10.462  69.351  1.00  0.00    -0.267 A  
HETATM   13  C   UNL     1      -9.634  10.613  68.336  1.00  0.00    -0.170 A  
HETATM   14  C   UNL     1     -10.348   9.447  70.442  1.00  0.00    -0.262 C  
HETATM   15  F   UNL     1     -10.242   8.181  69.950  1.00  0.00    -0.189 F  
HETATM   16  F   UNL     1      -9.192   9.681  71.119  1.00  0.00    -0.257 F  
HETATM   17  F   UNL     1     -11.333   9.407  71.378  1.00  0.00    -0.343 F  
ENDBRANCH   4   5
ENDBRANCH   2   4
TORSDOF 2
ENDMDL
MODEL      105
REMARK 921   NORMALIZED FREE ENERGY PREDICTED BY IDOCK:   -4.19 KCAL/MOL
REMARK 922        TOTAL FREE ENERGY PREDICTED BY IDOCK:   -4.92 KCAL/MOL
REMARK 923 INTER-LIGAND FREE ENERGY PREDICTED BY IDOCK:   -5.36 KCAL/MOL
REMARK 924 INTRA-LIGAND FREE ENERGY PREDICTED BY IDOCK:    0.44 KCAL/MOL
REMARK 927      BINDING AFFINITY PREDICTED BY RF-SCORE:    0.00 PKD
ROOT
HETATM    1  C   UNL     1     -12.124  14.998  68.732  1.00  0.00    -0.215 C  
HETATM    2  C   UNL     1     -10.912  15.793  69.109  1.00  0.00    -0.265 C  
HETATM    3  O   UNL     1     -10.844  16.540  70.074  1.00  0.00    -0.344 OA 
ENDROOT
BRANCH   2   4
HETATM    4  O   UNL     1      -9.902  15.574  68.163  1.00  0.00    -0.214 OA 
BRANCH   4   5
HETATM    5  C   UNL     1     -10.299  14.959  66.954  1.00  0.00    -0.264 A  
HETATM    6  C   UNL     1     -10.629  15.724  65.826  1.00  0.00    -0.369 A  
HETATM    7  C   UNL     1     -10.938  15.043  64.633  1.00  0.00    -0.320 A  
HETATM    8  C   UNL     1     -10.674  17.216  65.757  1.00  0.00    -0.138 C  
HETATM    9  O   UNL     1     -10.335  17.875  66.881  1.00  0.00    -0.341 OA 
HETATM   10  C   UNL     1     -10.931  13.644  64.570  1.00  0.00    -0.405 A  
HETATM   11  O   UNL     1     -11.004  17.813  64.743  1.00  0.00    -0.855 OA 
HETATM   12  C   UNL     1     -10.596  12.888  65.696  1.00  0.00    -0.295 A  
HETATM   13  C   UNL     1     -10.248  13.559  66.875  1.00  0.00    -0.256 A  
HETATM   14  C   UNL     1     -10.615  11.379  65.687  1.00  0.00    -0.258 C  
HETATM   15  F   UNL     1      -9.394  10.848  65.977  1.00  0.00    -0.180 F  
HETATM   16  F   UNL     1     -11.472  10.869  66.612  1.00  0.00    -0.254 F  
HETATM   17  F   UNL     1     -10.986  10.844  64.494  1.00  0.00    -0.382 F  
ENDBRANCH   4   5
ENDBRANCH   2   4
TORSDOF 2
ENDMDL
MODEL      106
REMARK 921   NORMALIZED FREE ENERGY PREDICTED BY IDOCK:   -4.18 KCAL/MOL
REMARK 922        TOTAL FREE ENERGY PREDICTED BY IDOCK:   -4.91 KCAL/MOL
REMARK 923 INTER-LIGAND FREE ENERGY PREDICTED BY IDOCK:   -4.63 KCAL/MOL
REMARK 924 INTRA-LIGAND FREE ENERGY PREDICTED BY IDOCK:   -0.28 KCAL/MOL
REMARK 927      BINDING AFFINITY PREDICTED BY RF-SCORE:    0.00 PKD
ROOT
HETATM    1  C   UNL     1     -11.416  13.604  67.888  1.00  0.00    -0.348 C  
HETATM    2  C   UNL     1     -12.011  12.495  67.075  1.00  0.00    -0.225 C  
HETATM    3  O   UNL     1     -12.341  12.594  65.903  1.00  0.00    -0.593 OA 
ENDROOT
BRANCH   2   4
HETATM    4  O   UNL     1     -12.161  11.359  67.882  1.00  0.00    -0.646 OA 
BRANCH   4   5
HETATM    5  C   UNL     1     -11.022  10.532  68.016  1.00  0.00    -0.290 A  
HETATM    6  C   UNL     1     -10.716   9.912  69.236  1.00  0.00    -0.247 A  
HETATM    7  C   UNL     1      -9.612   9.040  69.275  1.00  0.00    -0.162 A  
HETATM    8  C   UNL     1     -11.466  10.076  70.519  1.00  0.00    -0.330 C  
HETATM    9  O   UNL     1     -12.550  10.872  70.477  1.00  0.00    -0.329 OA 
HETATM   10  C   UNL     1      -8.830   8.804  68.138  1.00  0.00    -0.141 A  
HETATM   11  O   UNL     1     -11.118   9.525  71.553  1.00  0.00    -0.367 OA 
HETATM   12  C   UNL     1      -9.142   9.421  66.925  1.00  0.00    -0.160 A  
HETATM   13  C   UNL     1     -10.264  10.258  66.869  1.00  0.00    -0.286 A  
HETATM   14  C   UNL     1      -8.304   9.229  65.685  1.00  0.00    -0.123 C  
HETATM   15  F   UNL     1      -9.020   8.690  64.659  1.00  0.00    -0.176 F  
HETATM   16  F   UNL     1      -7.804  10.404  65.214  1.00  0.00    -0.140 F  
HETATM   17  F   UNL     1      -7.234   8.411  65.869  1.00  0.00    -0.068 F  
ENDBRANCH   4   5
ENDBRANCH   2   4
TORSDOF 2
ENDMDL
MODEL      107
REMARK 921   NORMALIZED FREE ENERGY PREDICTED BY IDOCK:   -4.17 KCAL/MOL
REMARK 922        TOTAL FREE ENERGY PREDICTED BY IDOCK:   -4.89 KCAL/MOL
REMARK 923 INTER-LIGAND FREE ENERGY PREDICTED BY IDOCK:   -4.56 KCAL/MOL
REMARK 924 INTRA-LIGAND FREE ENERGY PREDICTED BY IDOCK:   -0.33 KCAL/MOL
REMARK 927      BINDING AFFINITY PREDICTED BY RF-SCORE:    0.00 PKD
ROOT
HETATM    1  C   UNL     1     -13.024  14.577  71.017  1.00  0.00    -0.423 C  
HETATM    2  C   UNL     1     -12.034  14.038  70.030  1.00  0.00    -0.339 C  
HETATM    3  O   UNL     1     -10.871  14.404  69.942  1.00  0.00    -0.135 OA 
ENDROOT
BRANCH   2   4
HETATM    4  O   UNL     1     -12.665  13.091  69.212  1.00  0.00     0.332 OA 
BRANCH   4   5
HETATM    5  C   UNL     1     -11.914  11.936  68.897  1.00  0.00    -0.254 A  
HETATM    6  C   UNL     1     -11.376  11.746  67.617  1.00  0.00    -0.370 A  
HETATM    7  C   UNL     1     -10.573  10.611  67.399  1.00  0.00    -0.304 A  
HETATM    8  C   UNL     1     -11.563  12.650  66.441  1.00  0.00    -0.384 C  
HETATM    9  O   UNL     1     -12.293  13.761  66.654  1.00  0.00    -0.418 OA 
HETATM   10  C   UNL     1     -10.324   9.688  68.421  1.00  0.00    -0.233 A  
HETATM   11  O   UNL     1     -11.088  12.400  65.343  1.00  0.00    -0.288 OA 
HETATM   12  C   UNL     1     -10.858   9.885  69.697  1.00  0.00    -0.281 A  
HETATM   13  C   UNL     1     -11.624  11.033  69.932  1.00  0.00    -0.416 A  
HETATM   14  C   UNL     1     -10.650   8.896  70.818  1.00  0.00    -0.226 C  
HETATM   15  F   UNL     1     -10.018   9.457  71.887  1.00  0.00    -0.360 F  
HETATM   16  F   UNL     1     -11.825   8.405  71.296  1.00  0.00    -0.280 F  
HETATM   17  F   UNL     1      -9.906   7.815  70.464  1.00  0.00    -0.180 F  
ENDBRANCH   4   5
ENDBRANCH   2   4
TORSDOF 2
ENDMDL
MODEL      108
REMARK 921   NORMALIZED FREE ENERGY PREDICTED BY IDOCK:   -4.12 KCAL/MOL
REMARK 922        TOTAL FREE ENERGY PREDICTED BY IDOCK:   -4.84 KCAL/MOL
REMARK 923 INTER-LIGAND FREE ENERGY PREDICTED BY IDOCK:   -4.47 KCAL/MOL
REMARK 924 INTRA-LIGAND FREE ENERGY PREDICTED BY IDOCK:   -0.36 KCAL/MOL
REMARK 927      BINDING AFFINITY PREDICTED BY RF-SCORE:    0.00 PKD
ROOT
HETATM    1  C   UNL     1      -9.989   5.396  68.726  1.00  0.00    -0.235 C  
HETATM    2  C   UNL     1     -10.265   6.700  68.043  1.00  0.00    -0.167 C  
HETATM    3  O   UNL     1     -11.019   6.840  67.091  1.00  0.00    -0.363 OA 
ENDROOT
BRANCH   2   4
HETATM    4  O   UNL     1      -9.496   7.708  68.641  1.00  0.00    -0.150 OA 
BRANCH   4   5
HETATM    5  C   UNL     1     -10.188   8.879  69.024  1.00  0.00    -0.206 A  
HETATM    6  C   UNL     1     -10.056  10.070  68.296  1.00  0.00    -0.182 A  
HETATM    7  C   UNL     1     -10.836  11.174  68.688  1.00  0.00    -0.251 A  
HETATM    8  C   UNL     1      -9.165  10.286  67.115  1.00  0.00    -0.145 C  
HETATM    9  O   UNL     1      -8.450   9.221  66.706  1.00  0.00    -0.124 OA 
HETATM   10  C   UNL     1     -11.710  11.098  69.779  1.00  0.00    -0.419 A  
HETATM   11  O   UNL     1      -9.080  11.366  66.551  1.00  0.00    -0.174 OA 
HETATM   12  C   UNL     1     -11.840   9.907  70.498  1.00  0.00    -0.350 A  
HETATM   13  C   UNL     1     -11.098   8.793  70.088  1.00  0.00    -0.214 A  
HETATM   14  C   UNL     1     -12.738   9.790  71.706  1.00  0.00    -0.426 C  
HETATM   15  F   UNL     1     -13.701   8.841  71.540  1.00  0.00    -0.372 F  
HETATM   16  F   UNL     1     -12.051   9.432  72.825  1.00  0.00    -0.161 F  
HETATM   17  F   UNL     1     -13.391  10.941  72.015  1.00  0.00    -0.533 F  
ENDBRANCH   4   5
ENDBRANCH   2   4
TORSDOF 2
ENDMDL
MODEL      109
REMARK 921   NORMALIZED FREE ENERGY PREDICTED BY IDOCK:   -4.09 KCAL/MOL
REMARK 922        TOTAL FREE ENERGY PREDICTED BY IDOCK:   -4.81 KCAL/MOL
REMARK 923 INTER-LIGAND FREE ENERGY PREDICTED BY IDOCK:   -4.41 KCAL/MOL
REMARK 924 INTRA-LIGAND FREE ENERGY PREDICTED BY IDOCK:   -0.40 KCAL/MOL
REMARK 927      BINDING AFFINITY PREDICTED BY RF-SCORE:    0.00 PKD
ROOT
HETATM    1  C   UNL     1      -8.805  11.021  68.626  1.00  0.00    -0.164 C  
HETATM    2  C   UNL     1      -9.496   9.942  67.850  1.00  0.00    -0.133 C  
HETATM    3  O   UNL     1      -8.991   9.318  66.928  1.00  0.00    -0.128 OA 
ENDROOT
BRANCH   2   4
HETATM    4  O   UNL     1     -10.808   9.799  68.322  1.00  0.00    -0.239 OA 
BRANCH   4   5
HETATM    5  C   UNL     1     -10.951   9.260  69.621  1.00  0.00    -0.175 A  
HETATM    6  C   UNL     1     -11.617   9.968  70.631  1.00  0.00    -0.422 A  
HETATM    7  C   UNL     1     -11.790   9.336  71.876  1.00  0.00    -0.426 A  
HETATM    8  C   UNL     1     -12.183  11.347  70.513  1.00  0.00    -0.386 C  
HETATM    9  O   UNL     1     -12.060  11.940  69.311  1.00  0.00    -0.282 OA 
HETATM   10  C   UNL     1     -11.305   8.044  72.112  1.00  0.00    -0.387 A  
HETATM   11  O   UNL     1     -12.723  11.913  71.451  1.00  0.00    -0.366 OA 
HETATM   12  C   UNL     1     -10.646   7.341  71.099  1.00  0.00    -0.236 A  
HETATM   13  C   UNL     1     -10.506   7.949  69.845  1.00  0.00    -0.229 A  
HETATM   14  C   UNL     1     -10.070   5.964  71.319  1.00  0.00    -0.196 C  
HETATM   15  F   UNL     1     -10.617   5.039  70.483  1.00  0.00    -0.318 F  
HETATM   16  F   UNL     1      -8.729   5.925  71.092  1.00  0.00    -0.126 F  
HETATM   17  F   UNL     1     -10.253   5.489  72.580  1.00  0.00    -0.195 F  
ENDBRANCH   4   5
ENDBRANCH   2   4
TORSDOF 2
ENDMDL
MODEL      110
REMARK 921   NORMALIZED FREE ENERGY PREDICTED BY IDOCK:   -4.09 KCAL/MOL
REMARK 922        TOTAL FREE ENERGY PREDICTED BY IDOCK:   -4.81 KCAL/MOL
REMARK 923 INTER-LIGAND FREE ENERGY PREDICTED BY IDOCK:   -4.54 KCAL/MOL
REMARK 924 INTRA-LIGAND FREE ENERGY PREDICTED BY IDOCK:   -0.26 KCAL/MOL
REMARK 927      BINDING AFFINITY PREDICTED BY RF-SCORE:    0.00 PKD
ROOT
HETATM    1  C   UNL     1     -11.767  12.534  64.408  1.00  0.00    -0.432 C  
HETATM    2  C   UNL     1     -12.038  13.741  65.252  1.00  0.00    -0.407 C  
HETATM    3  O   UNL     1     -12.284  14.855  64.811  1.00  0.00    -0.373 OA 
ENDROOT
BRANCH   2   4
HETATM    4  O   UNL     1     -11.925  13.396  66.605  1.00  0.00    -0.381 OA 
BRANCH   4   5
HETATM    5  C   UNL     1     -10.637  13.513  67.175  1.00  0.00    -0.264 A  
HETATM    6  C   UNL     1     -10.064  12.457  67.898  1.00  0.00    -0.208 A  
HETATM    7  C   UNL     1      -8.748  12.616  68.369  1.00  0.00    -0.118 A  
HETATM    8  C   UNL     1     -10.719  11.151  68.213  1.00  0.00    -0.196 C  
HETATM    9  O   UNL     1     -11.961  10.974  67.727  1.00  0.00    -0.609 OA 
HETATM   10  C   UNL     1      -8.028  13.795  68.138  1.00  0.00    -0.150 A  
HETATM   11  O   UNL     1     -10.166  10.288  68.879  1.00  0.00    -0.184 OA 
HETATM   12  C   UNL     1      -8.602  14.842  67.412  1.00  0.00    -0.210 A  
HETATM   13  C   UNL     1      -9.897  14.675  66.906  1.00  0.00    -0.252 A  
HETATM   14  C   UNL     1      -7.881  16.146  67.174  1.00  0.00    -0.200 C  
HETATM   15  F   UNL     1      -7.712  16.405  65.847  1.00  0.00    -0.238 F  
HETATM   16  F   UNL     1      -8.562  17.210  67.678  1.00  0.00    -0.202 F  
HETATM   17  F   UNL     1      -6.641  16.195  67.729  1.00  0.00    -0.118 F  
ENDBRANCH   4   5
ENDBRANCH   2   4
TORSDOF 2
ENDMDL
MODEL      111
REMARK 921   NORMALIZED FREE ENERGY PREDICTED BY IDOCK:   -4.08 KCAL/MOL
REMARK 922        TOTAL FREE ENERGY PREDICTED BY IDOCK:   -4.79 KCAL/MOL
REMARK 923 INTER-LIGAND FREE ENERGY PREDICTED BY IDOCK:   -4.44 KCAL/MOL
REMARK 924 INTRA-LIGAND FREE ENERGY PREDICTED BY IDOCK:   -0.35 KCAL/MOL
REMARK 927      BINDING AFFINITY PREDICTED BY RF-SCORE:    0.00 PKD
ROOT
HETATM    1  C   UNL     1     -14.397   7.520  71.394  1.00  0.00    -0.540 C  
HETATM    2  C   UNL     1     -13.033   7.901  71.883  1.00  0.00    -0.298 C  
HETATM    3  O   UNL     1     -12.710   9.028  72.229  1.00  0.00    -0.380 OA 
ENDROOT
BRANCH   2   4
HETATM    4  O   UNL     1     -12.195   6.780  71.838  1.00  0.00    -0.329 OA 
BRANCH   4   5
HETATM    5  C   UNL     1     -11.028   6.902  71.050  1.00  0.00    -0.252 A  
HETATM    6  C   UNL     1      -9.759   6.984  71.641  1.00  0.00    -0.164 A  
HETATM    7  C   UNL     1      -8.636   7.024  70.793  1.00  0.00    -0.143 A  
HETATM    8  C   UNL     1      -9.472   7.022  73.107  1.00  0.00    -0.157 C  
HETATM    9  O   UNL     1     -10.538   6.938  73.925  1.00  0.00    -0.369 OA 
HETATM   10  C   UNL     1      -8.774   6.995  69.400  1.00  0.00    -0.133 A  
HETATM   11  O   UNL     1      -8.337   7.128  73.548  1.00  0.00    -0.115 OA 
HETATM   12  C   UNL     1     -10.041   6.908  68.817  1.00  0.00    -0.168 A  
HETATM   13  C   UNL     1     -11.160   6.827  69.655  1.00  0.00    -0.343 A  
HETATM   14  C   UNL     1     -10.241   6.915  67.321  1.00  0.00    -0.220 C  
HETATM   15  F   UNL     1     -10.857   5.784  66.879  1.00  0.00    -0.292 F  
HETATM   16  F   UNL     1     -11.024   7.950  66.912  1.00  0.00    -0.403 F  
HETATM   17  F   UNL     1      -9.084   7.016  66.615  1.00  0.00    -0.129 F  
ENDBRANCH   4   5
ENDBRANCH   2   4
TORSDOF 2
ENDMDL
MODEL      112
REMARK 921   NORMALIZED FREE ENERGY PREDICTED BY IDOCK:   -4.03 KCAL/MOL
REMARK 922        TOTAL FREE ENERGY PREDICTED BY IDOCK:   -4.74 KCAL/MOL
REMARK 923 INTER-LIGAND FREE ENERGY PREDICTED BY IDOCK:   -4.40 KCAL/MOL
REMARK 924 INTRA-LIGAND FREE ENERGY PREDICTED BY IDOCK:   -0.34 KCAL/MOL
REMARK 927      BINDING AFFINITY PREDICTED BY RF-SCORE:    0.00 PKD
ROOT
HETATM    1  C   UNL     1      -9.478   8.672  71.709  1.00  0.00    -0.354 C  
HETATM    2  C   UNL     1     -10.904   8.905  71.316  1.00  0.00    -0.290 C  
HETATM    3  O   UNL     1     -11.668   9.664  71.893  1.00  0.00    -0.357 OA 
ENDROOT
BRANCH   2   4
HETATM    4  O   UNL     1     -11.222   8.089  70.221  1.00  0.00    -0.258 OA 
BRANCH   4   5
HETATM    5  C   UNL     1     -10.776   8.537  68.957  1.00  0.00    -0.092 A  
HETATM    6  C   UNL     1     -10.216   7.648  68.029  1.00  0.00    -0.248 A  
HETATM    7  C   UNL     1      -9.868   8.149  66.761  1.00  0.00    -0.329 A  
HETATM    8  C   UNL     1      -9.959   6.192  68.249  1.00  0.00    -0.143 C  
HETATM    9  O   UNL     1     -10.332   5.696  69.443  1.00  0.00    -0.221 OA 
HETATM   10  C   UNL     1     -10.060   9.497  66.432  1.00  0.00    -0.328 A  
HETATM   11  O   UNL     1      -9.436   5.486  67.400  1.00  0.00    -0.113 OA 
HETATM   12  C   UNL     1     -10.623  10.377  67.360  1.00  0.00    -0.321 A  
HETATM   13  C   UNL     1     -11.009   9.876  68.609  1.00  0.00    -0.222 A  
HETATM   14  C   UNL     1     -10.810  11.845  67.065  1.00  0.00    -0.259 C  
HETATM   15  F   UNL     1     -12.117  12.222  67.141  1.00  0.00    -0.411 F  
HETATM   16  F   UNL     1     -10.143  12.637  67.949  1.00  0.00    -0.200 F  
HETATM   17  F   UNL     1     -10.381  12.215  65.829  1.00  0.00    -0.252 F  
ENDBRANCH   4   5
ENDBRANCH   2   4
TORSDOF 2
ENDMDL
MODEL      113
REMARK 921   NORMALIZED FREE ENERGY PREDICTED BY IDOCK:   -4.01 KCAL/MOL
REMARK 922        TOTAL FREE ENERGY PREDICTED BY IDOCK:   -4.72 KCAL/MOL
REMARK 923 INTER-LIGAND FREE ENERGY PREDICTED BY IDOCK:   -4.66 KCAL/MOL
REMARK 924 INTRA-LIGAND FREE ENERGY PREDICTED BY IDOCK:   -0.06 KCAL/MOL
REMARK 927      BINDING AFFINITY PREDICTED BY RF-SCORE:    0.00 PKD
ROOT
HETATM    1  C   UNL     1     -11.095   9.485  71.137  1.00  0.00    -0.450 C  
HETATM    2  C   UNL     1     -11.355  10.498  70.065  1.00  0.00    -0.318 C  
HETATM    3  O   UNL     1     -12.455  10.954  69.792  1.00  0.00    -0.311 OA 
ENDROOT
BRANCH   2   4
HETATM    4  O   UNL     1     -10.152  10.800  69.412  1.00  0.00    -0.212 OA 
BRANCH   4   5
HETATM    5  C   UNL     1     -10.256  11.578  68.237  1.00  0.00    -0.196 A  
HETATM    6  C   UNL     1     -10.189  10.987  66.967  1.00  0.00    -0.250 A  
HETATM    7  C   UNL     1     -10.380  11.812  65.843  1.00  0.00    -0.280 A  
HETATM    8  C   UNL     1      -9.945   9.540  66.682  1.00  0.00    -0.247 C  
HETATM    9  O   UNL     1      -9.807   8.737  67.753  1.00  0.00    -0.159 OA 
HETATM   10  C   UNL     1     -10.617  13.186  65.980  1.00  0.00    -0.291 A  
HETATM   11  O   UNL     1      -9.868   9.104  65.543  1.00  0.00    -0.220 OA 
HETATM   12  C   UNL     1     -10.687  13.768  67.248  1.00  0.00    -0.286 A  
HETATM   13  C   UNL     1     -10.539  12.945  68.371  1.00  0.00    -0.267 A  
HETATM   14  C   UNL     1     -10.899  15.249  67.442  1.00  0.00    -0.304 C  
HETATM   15  F   UNL     1     -12.030  15.517  68.153  1.00  0.00    -0.351 F  
HETATM   16  F   UNL     1      -9.879  15.829  68.132  1.00  0.00    -0.205 F  
HETATM   17  F   UNL     1     -11.010  15.944  66.279  1.00  0.00    -0.308 F  
ENDBRANCH   4   5
ENDBRANCH   2   4
TORSDOF 2
ENDMDL
MODEL      114
REMARK 921   NORMALIZED FREE ENERGY PREDICTED BY IDOCK:   -3.99 KCAL/MOL
REMARK 922        TOTAL FREE ENERGY PREDICTED BY IDOCK:   -4.70 KCAL/MOL
REMARK 923 INTER-LIGAND FREE ENERGY PREDICTED BY IDOCK:   -4.43 KCAL/MOL
REMARK 924 INTRA-LIGAND FREE ENERGY PREDICTED BY IDOCK:   -0.27 KCAL/MOL
REMARK 927      BINDING AFFINITY PREDICTED BY RF-SCORE:    0.00 PKD
ROOT
HETATM    1  C   UNL     1      -6.778  15.328  69.378  1.00  0.00    -0.164 C  
HETATM    2  C   UNL     1      -7.602  14.517  68.426  1.00  0.00    -0.122 C  
HETATM    3  O   UNL     1      -7.201  13.529  67.828  1.00  0.00    -0.121 OA 
ENDROOT
BRANCH   2   4
HETATM    4  O   UNL     1      -8.874  15.093  68.307  1.00  0.00    -0.165 OA 
BRANCH   4   5
HETATM    5  C   UNL     1      -9.940  14.207  68.031  1.00  0.00    -0.226 A  
HETATM    6  C   UNL     1     -10.563  14.190  66.776  1.00  0.00    -0.277 A  
HETATM    7  C   UNL     1     -11.564  13.227  66.548  1.00  0.00    -0.392 A  
HETATM    8  C   UNL     1     -10.258  15.100  65.630  1.00  0.00    -0.361 C  
HETATM    9  O   UNL     1      -9.271  15.993  65.825  1.00  0.00    -0.356 OA 
HETATM   10  C   UNL     1     -11.940  12.317  67.544  1.00  0.00    -0.210 A  
HETATM   11  O   UNL     1     -10.870  15.045  64.573  1.00  0.00    -0.313 OA 
HETATM   12  C   UNL     1     -11.311  12.336  68.791  1.00  0.00    -0.337 A  
HETATM   13  C   UNL     1     -10.287  13.265  69.011  1.00  0.00     0.014 A  
HETATM   14  C   UNL     1     -11.712  11.402  69.908  1.00  0.00    -0.346 C  
HETATM   15  F   UNL     1     -10.679  10.610  70.311  1.00  0.00    -0.318 F  
HETATM   16  F   UNL     1     -12.120  12.075  71.018  1.00  0.00    -0.426 F  
HETATM   17  F   UNL     1     -12.728  10.561  69.581  1.00  0.00    -0.310 F  
ENDBRANCH   4   5
ENDBRANCH   2   4
TORSDOF 2
ENDMDL
MODEL      115
REMARK 921   NORMALIZED FREE ENERGY PREDICTED BY IDOCK:   -3.99 KCAL/MOL
REMARK 922        TOTAL FREE ENERGY PREDICTED BY IDOCK:   -4.69 KCAL/MOL
REMARK 923 INTER-LIGAND FREE ENERGY PREDICTED BY IDOCK:   -4.45 KCAL/MOL
REMARK 924 INTRA-LIGAND FREE ENERGY PREDICTED BY IDOCK:   -0.25 KCAL/MOL
REMARK 927      BINDING AFFINITY PREDICTED BY RF-SCORE:    0.00 PKD
ROOT
HETATM    1  C   UNL     1      -6.501  12.591  67.710  1.00  0.00    -0.120 C  
HETATM    2  C   UNL     1      -7.906  12.901  68.126  1.00  0.00    -0.147 C  
HETATM    3  O   UNL     1      -8.257  13.939  68.667  1.00  0.00    -0.143 OA 
ENDROOT
BRANCH   2   4
HETATM    4  O   UNL     1      -8.728  11.804  67.834  1.00  0.00    -0.150 OA 
BRANCH   4   5
HETATM    5  C   UNL     1      -9.405  11.842  66.594  1.00  0.00    -0.205 A  
HETATM    6  C   UNL     1      -9.425  10.728  65.743  1.00  0.00    -0.244 A  
HETATM    7  C   UNL     1     -10.185  10.811  64.562  1.00  0.00    -0.428 A  
HETATM    8  C   UNL     1      -8.716   9.432  65.975  1.00  0.00    -0.150 C  
HETATM    9  O   UNL     1      -8.024   9.329  67.125  1.00  0.00    -0.105 OA 
HETATM   10  C   UNL     1     -10.894  11.973  64.232  1.00  0.00    -0.389 A  
HETATM   11  O   UNL     1      -8.754   8.515  65.169  1.00  0.00    -0.180 OA 
HETATM   12  C   UNL     1     -10.875  13.078  65.087  1.00  0.00    -0.320 A  
HETATM   13  C   UNL     1     -10.153  12.988  66.283  1.00  0.00    -0.283 A  
HETATM   14  C   UNL     1     -11.590  14.365  64.753  1.00  0.00    -0.408 C  
HETATM   15  F   UNL     1     -12.528  14.689  65.686  1.00  0.00    -0.336 F  
HETATM   16  F   UNL     1     -10.739  15.426  64.697  1.00  0.00    -0.412 F  
HETATM   17  F   UNL     1     -12.238  14.337  63.559  1.00  0.00    -0.424 F  
ENDBRANCH   4   5
ENDBRANCH   2   4
TORSDOF 2
ENDMDL
MODEL      116
REMARK 921   NORMALIZED FREE ENERGY PREDICTED BY IDOCK:   -3.96 KCAL/MOL
REMARK 922        TOTAL FREE ENERGY PREDICTED BY IDOCK:   -4.66 KCAL/MOL
REMARK 923 INTER-LIGAND FREE ENERGY PREDICTED BY IDOCK:   -4.34 KCAL/MOL
REMARK 924 INTRA-LIGAND FREE ENERGY PREDICTED BY IDOCK:   -0.32 KCAL/MOL
REMARK 927      BINDING AFFINITY PREDICTED BY RF-SCORE:    0.00 PKD
ROOT
HETATM    1  C   UNL     1      -9.429  11.081  68.388  1.00  0.00    -0.182 C  
HETATM    2  C   UNL     1     -10.566  10.195  68.793  1.00  0.00    -0.213 C  
HETATM    3  O   UNL     1     -11.095   9.368  68.066  1.00  0.00    -0.123 OA 
ENDROOT
BRANCH   2   4
HETATM    4  O   UNL     1     -10.943  10.498  70.108  1.00  0.00    -0.287 OA 
BRANCH   4   5
HETATM    5  C   UNL     1     -10.739   9.482  71.068  1.00  0.00    -0.340 A  
HETATM    6  C   UNL     1     -11.816   8.913  71.763  1.00  0.00    -0.429 A  
HETATM    7  C   UNL     1     -11.545   7.850  72.646  1.00  0.00    -0.435 A  
HETATM    8  C   UNL     1     -13.250   9.319  71.649  1.00  0.00    -0.388 C  
HETATM    9  O   UNL     1     -13.522  10.304  70.773  1.00  0.00    -0.278 OA 
HETATM   10  C   UNL     1     -10.241   7.378  72.839  1.00  0.00    -0.310 A  
HETATM   11  O   UNL     1     -14.131   8.796  72.314  1.00  0.00    -0.439 OA 
HETATM   12  C   UNL     1      -9.173   7.946  72.140  1.00  0.00    -0.213 A  
HETATM   13  C   UNL     1      -9.440   8.976  71.230  1.00  0.00    -0.339 A  
HETATM   14  C   UNL     1      -7.747   7.497  72.348  1.00  0.00    -0.094 C  
HETATM   15  F   UNL     1      -7.184   7.028  71.200  1.00  0.00    -0.069 F  
HETATM   16  F   UNL     1      -6.944   8.513  72.767  1.00  0.00    -0.109 F  
HETATM   17  F   UNL     1      -7.613   6.506  73.268  1.00  0.00    -0.091 F  
ENDBRANCH   4   5
ENDBRANCH   2   4
TORSDOF 2
ENDMDL
MODEL      117
REMARK 921   NORMALIZED FREE ENERGY PREDICTED BY IDOCK:   -3.96 KCAL/MOL
REMARK 922        TOTAL FREE ENERGY PREDICTED BY IDOCK:   -4.66 KCAL/MOL
REMARK 923 INTER-LIGAND FREE ENERGY PREDICTED BY IDOCK:   -4.41 KCAL/MOL
REMARK 924 INTRA-LIGAND FREE ENERGY PREDICTED BY IDOCK:   -0.25 KCAL/MOL
REMARK 927      BINDING AFFINITY PREDICTED BY RF-SCORE:    0.00 PKD
ROOT
HETATM    1  C   UNL     1      -7.900   8.357  69.268  1.00  0.00    -0.104 C  
HETATM    2  C   UNL     1      -9.179   8.027  68.561  1.00  0.00    -0.135 C  
HETATM    3  O   UNL     1      -9.559   8.560  67.528  1.00  0.00    -0.145 OA 
ENDROOT
BRANCH   2   4
HETATM    4  O   UNL     1      -9.873   7.052  69.290  1.00  0.00    -0.157 OA 
BRANCH   4   5
HETATM    5  C   UNL     1     -10.585   7.507  70.423  1.00  0.00    -0.229 A  
HETATM    6  C   UNL     1     -10.553   6.799  71.632  1.00  0.00    -0.239 A  
HETATM    7  C   UNL     1     -11.221   7.352  72.740  1.00  0.00    -0.380 A  
HETATM    8  C   UNL     1      -9.857   5.497  71.871  1.00  0.00    -0.168 C  
HETATM    9  O   UNL     1      -9.178   4.985  70.829  1.00  0.00    -0.135 OA 
HETATM   10  C   UNL     1     -11.910   8.567  72.643  1.00  0.00    -0.311 A  
HETATM   11  O   UNL     1      -9.901   4.922  72.948  1.00  0.00    -0.146 OA 
HETATM   12  C   UNL     1     -11.934   9.271  71.436  1.00  0.00    -0.424 A  
HETATM   13  C   UNL     1     -11.238   8.746  70.341  1.00  0.00    -0.247 A  
HETATM   14  C   UNL     1     -12.698  10.563  71.274  1.00  0.00    -0.428 C  
HETATM   15  F   UNL     1     -11.887  11.598  70.919  1.00  0.00    -0.407 F  
HETATM   16  F   UNL     1     -13.645  10.481  70.300  1.00  0.00    -0.218 F  
HETATM   17  F   UNL     1     -13.347  10.960  72.400  1.00  0.00    -0.533 F  
ENDBRANCH   4   5
ENDBRANCH   2   4
TORSDOF 2
ENDMDL
MODEL      118
REMARK 921   NORMALIZED FREE ENERGY PREDICTED BY IDOCK:   -3.94 KCAL/MOL
REMARK 922        TOTAL FREE ENERGY PREDICTED BY IDOCK:   -4.64 KCAL/MOL
REMARK 923 INTER-LIGAND FREE ENERGY PREDICTED BY IDOCK:   -4.23 KCAL/MOL
REMARK 924 INTRA-LIGAND FREE ENERGY PREDICTED BY IDOCK:   -0.41 KCAL/MOL
REMARK 927      BINDING AFFINITY PREDICTED BY RF-SCORE:    0.00 PKD
ROOT
HETATM    1  C   UNL     1     -12.244  14.753  69.602  1.00  0.00    -0.310 C  
HETATM    2  C   UNL     1     -11.250  15.705  69.012  1.00  0.00    -0.306 C  
HETATM    3  O   UNL     1     -10.719  16.622  69.623  1.00  0.00    -0.326 OA 
ENDROOT
BRANCH   2   4
HETATM    4  O   UNL     1     -11.065  15.401  67.657  1.00  0.00    -0.306 OA 
BRANCH   4   5
HETATM    5  C   UNL     1     -10.280  14.261  67.372  1.00  0.00    -0.247 A  
HETATM    6  C   UNL     1     -10.733  13.269  66.492  1.00  0.00    -0.290 A  
HETATM    7  C   UNL     1      -9.865  12.201  66.195  1.00  0.00    -0.254 A  
HETATM    8  C   UNL     1     -12.066  13.236  65.814  1.00  0.00    -0.441 C  
HETATM    9  O   UNL     1     -12.884  14.277  66.058  1.00  0.00    -0.379 OA 
HETATM   10  C   UNL     1      -8.590  12.119  66.767  1.00  0.00    -0.163 A  
HETATM   11  O   UNL     1     -12.403  12.317  65.083  1.00  0.00    -0.520 OA 
HETATM   12  C   UNL     1      -8.142  13.113  67.640  1.00  0.00    -0.176 A  
HETATM   13  C   UNL     1      -8.985  14.199  67.908  1.00  0.00    -0.185 A  
HETATM   14  C   UNL     1      -6.792  13.045  68.312  1.00  0.00    -0.101 C  
HETATM   15  F   UNL     1      -6.006  14.112  67.995  1.00  0.00    -0.097 F  
HETATM   16  F   UNL     1      -6.892  13.046  69.669  1.00  0.00    -0.081 F  
HETATM   17  F   UNL     1      -6.074  11.937  67.987  1.00  0.00    -0.049 F  
ENDBRANCH   4   5
ENDBRANCH   2   4
TORSDOF 2
ENDMDL
MODEL      119
REMARK 921   NORMALIZED FREE ENERGY PREDICTED BY IDOCK:   -3.90 KCAL/MOL
REMARK 922        TOTAL FREE ENERGY PREDICTED BY IDOCK:   -4.60 KCAL/MOL
REMARK 923 INTER-LIGAND FREE ENERGY PREDICTED BY IDOCK:   -4.32 KCAL/MOL
REMARK 924 INTRA-LIGAND FREE ENERGY PREDICTED BY IDOCK:   -0.27 KCAL/MOL
REMARK 927      BINDING AFFINITY PREDICTED BY RF-SCORE:    0.00 PKD
ROOT
HETATM    1  C   UNL     1     -11.940  12.976  70.083  1.00  0.00    -0.374 C  
HETATM    2  C   UNL     1     -12.012  11.482  70.010  1.00  0.00    -0.357 C  
HETATM    3  O   UNL     1     -13.050  10.836  69.992  1.00  0.00    -0.093 OA 
ENDROOT
BRANCH   2   4
HETATM    4  O   UNL     1     -10.713  10.955  70.006  1.00  0.00    -0.175 OA 
BRANCH   4   5
HETATM    5  C   UNL     1     -10.412  10.038  68.975  1.00  0.00    -0.214 A  
HETATM    6  C   UNL     1     -10.457   8.654  69.198  1.00  0.00    -0.223 A  
HETATM    7  C   UNL     1     -10.223   7.800  68.104  1.00  0.00    -0.244 A  
HETATM    8  C   UNL     1     -10.747   7.983  70.502  1.00  0.00    -0.229 C  
HETATM    9  O   UNL     1     -11.017   8.793  71.542  1.00  0.00    -0.259 OA 
HETATM   10  C   UNL     1      -9.941   8.309  66.830  1.00  0.00    -0.343 A  
HETATM   11  O   UNL     1     -10.737   6.767  70.626  1.00  0.00    -0.221 OA 
HETATM   12  C   UNL     1      -9.902   9.688  66.613  1.00  0.00    -0.285 A  
HETATM   13  C   UNL     1     -10.174  10.543  67.688  1.00  0.00    -0.234 A  
HETATM   14  C   UNL     1      -9.561  10.281  65.268  1.00  0.00    -0.264 C  
HETATM   15  F   UNL     1     -10.568  11.057  64.778  1.00  0.00    -0.353 F  
HETATM   16  F   UNL     1      -8.465  11.086  65.323  1.00  0.00    -0.175 F  
HETATM   17  F   UNL     1      -9.299   9.353  64.310  1.00  0.00    -0.277 F  
ENDBRANCH   4   5
ENDBRANCH   2   4
TORSDOF 2
ENDMDL
MODEL      120
REMARK 921   NORMALIZED FREE ENERGY PREDICTED BY IDOCK:   -3.89 KCAL/MOL
REMARK 922        TOTAL FREE ENERGY PREDICTED BY IDOCK:   -4.58 KCAL/MOL
REMARK 923 INTER-LIGAND FREE ENERGY PREDICTED BY IDOCK:   -4.32 KCAL/MOL
REMARK 924 INTRA-LIGAND FREE ENERGY PREDICTED BY IDOCK:   -0.27 KCAL/MOL
REMARK 927      BINDING AFFINITY PREDICTED BY RF-SCORE:    0.00 PKD
ROOT
HETATM    1  C   UNL     1     -12.000  13.075  66.698  1.00  0.00    -0.453 C  
HETATM    2  C   UNL     1     -10.546  12.881  66.398  1.00  0.00    -0.271 C  
HETATM    3  O   UNL     1     -10.092  12.632  65.290  1.00  0.00    -0.284 OA 
ENDROOT
BRANCH   2   4
HETATM    4  O   UNL     1      -9.809  12.990  67.585  1.00  0.00    -0.204 OA 
BRANCH   4   5
HETATM    5  C   UNL     1      -9.053  14.173  67.746  1.00  0.00    -0.190 A  
HETATM    6  C   UNL     1      -7.654  14.156  67.664  1.00  0.00    -0.193 A  
HETATM    7  C   UNL     1      -6.971  15.384  67.755  1.00  0.00    -0.183 A  
HETATM    8  C   UNL     1      -6.798  12.945  67.472  1.00  0.00    -0.153 C  
HETATM    9  O   UNL     1      -7.446  11.773  67.339  1.00  0.00    -0.124 OA 
HETATM   10  C   UNL     1      -7.661  16.589  67.935  1.00  0.00    -0.162 A  
HETATM   11  O   UNL     1      -5.578  13.007  67.443  1.00  0.00    -0.297 OA 
HETATM   12  C   UNL     1      -9.056  16.600  68.012  1.00  0.00    -0.218 A  
HETATM   13  C   UNL     1      -9.743  15.387  67.881  1.00  0.00    -0.207 A  
HETATM   14  C   UNL     1      -9.839  17.869  68.247  1.00  0.00    -0.348 C  
HETATM   15  F   UNL     1     -10.708  18.132  67.231  1.00  0.00    -0.386 F  
HETATM   16  F   UNL     1     -10.595  17.805  69.376  1.00  0.00    -0.320 F  
HETATM   17  F   UNL     1      -9.061  18.976  68.375  1.00  0.00    -0.322 F  
ENDBRANCH   4   5
ENDBRANCH   2   4
TORSDOF 2
ENDMDL
MODEL      121
REMARK 921   NORMALIZED FREE ENERGY PREDICTED BY IDOCK:   -3.89 KCAL/MOL
REMARK 922        TOTAL FREE ENERGY PREDICTED BY IDOCK:   -4.58 KCAL/MOL
REMARK 923 INTER-LIGAND FREE ENERGY PREDICTED BY IDOCK:   -4.38 KCAL/MOL
REMARK 924 INTRA-LIGAND FREE ENERGY PREDICTED BY IDOCK:   -0.20 KCAL/MOL
REMARK 927      BINDING AFFINITY PREDICTED BY RF-SCORE:    0.00 PKD
ROOT
HETATM    1  C   UNL     1     -12.482  11.616  70.455  1.00  0.00    -0.344 C  
HETATM    2  C   UNL     1     -11.749  11.146  69.237  1.00  0.00    -0.331 C  
HETATM    3  O   UNL     1     -12.203  11.165  68.102  1.00  0.00    -0.612 OA 
ENDROOT
BRANCH   2   4
HETATM    4  O   UNL     1     -10.493  10.651  69.614  1.00  0.00    -0.228 OA 
BRANCH   4   5
HETATM    5  C   UNL     1     -10.381   9.247  69.725  1.00  0.00    -0.218 A  
HETATM    6  C   UNL     1      -9.584   8.510  68.838  1.00  0.00    -0.160 A  
HETATM    7  C   UNL     1      -9.457   7.125  69.058  1.00  0.00    -0.143 A  
HETATM    8  C   UNL     1      -8.832   9.058  67.668  1.00  0.00    -0.124 C  
HETATM    9  O   UNL     1      -8.912  10.388  67.479  1.00  0.00    -0.134 OA 
HETATM   10  C   UNL     1     -10.114   6.493  70.121  1.00  0.00    -0.204 A  
HETATM   11  O   UNL     1      -8.182   8.345  66.918  1.00  0.00    -0.101 OA 
HETATM   12  C   UNL     1     -10.903   7.234  71.005  1.00  0.00    -0.258 A  
HETATM   13  C   UNL     1     -11.001   8.618  70.816  1.00  0.00    -0.286 A  
HETATM   14  C   UNL     1     -11.662   6.589  72.139  1.00  0.00    -0.311 C  
HETATM   15  F   UNL     1     -11.283   7.078  73.353  1.00  0.00    -0.287 F  
HETATM   16  F   UNL     1     -13.002   6.807  72.051  1.00  0.00    -0.361 F  
HETATM   17  F   UNL     1     -11.502   5.241  72.208  1.00  0.00    -0.278 F  
ENDBRANCH   4   5
ENDBRANCH   2   4
TORSDOF 2
ENDMDL
MODEL      122
REMARK 921   NORMALIZED FREE ENERGY PREDICTED BY IDOCK:   -3.89 KCAL/MOL
REMARK 922        TOTAL FREE ENERGY PREDICTED BY IDOCK:   -4.58 KCAL/MOL
REMARK 923 INTER-LIGAND FREE ENERGY PREDICTED BY IDOCK:   -4.17 KCAL/MOL
REMARK 924 INTRA-LIGAND FREE ENERGY PREDICTED BY IDOCK:   -0.41 KCAL/MOL
REMARK 927      BINDING AFFINITY PREDICTED BY RF-SCORE:    0.00 PKD
ROOT
HETATM    1  C   UNL     1      -9.191   9.632  70.219  1.00  0.00    -0.285 C  
HETATM    2  C   UNL     1     -10.459   9.449  69.443  1.00  0.00    -0.220 C  
HETATM    3  O   UNL     1     -10.745  10.064  68.426  1.00  0.00    -0.211 OA 
ENDROOT
BRANCH   2   4
HETATM    4  O   UNL     1     -11.265   8.502  70.089  1.00  0.00    -0.232 OA 
BRANCH   4   5
HETATM    5  C   UNL     1     -10.794   7.170  70.083  1.00  0.00    -0.257 A  
HETATM    6  C   UNL     1     -10.691   6.432  71.270  1.00  0.00    -0.288 A  
HETATM    7  C   UNL     1     -10.290   5.086  71.179  1.00  0.00    -0.254 A  
HETATM    8  C   UNL     1     -10.983   6.935  72.647  1.00  0.00    -0.268 C  
HETATM    9  O   UNL     1     -11.411   8.207  72.738  1.00  0.00    -0.408 OA 
HETATM   10  C   UNL     1      -9.988   4.498  69.944  1.00  0.00    -0.273 A  
HETATM   11  O   UNL     1     -10.838   6.238  73.641  1.00  0.00    -0.242 OA 
HETATM   12  C   UNL     1     -10.097   5.237  68.764  1.00  0.00    -0.248 A  
HETATM   13  C   UNL     1     -10.535   6.565  68.844  1.00  0.00    -0.249 A  
HETATM   14  C   UNL     1      -9.743   4.658  67.416  1.00  0.00    -0.178 C  
HETATM   15  F   UNL     1     -10.801   4.670  66.558  1.00  0.00    -0.271 F  
HETATM   16  F   UNL     1      -8.754   5.360  66.798  1.00  0.00    -0.114 F  
HETATM   17  F   UNL     1      -9.314   3.370  67.470  1.00  0.00    -0.172 F  
ENDBRANCH   4   5
ENDBRANCH   2   4
TORSDOF 2
ENDMDL
MODEL      123
REMARK 921   NORMALIZED FREE ENERGY PREDICTED BY IDOCK:   -3.89 KCAL/MOL
REMARK 922        TOTAL FREE ENERGY PREDICTED BY IDOCK:   -4.58 KCAL/MOL
REMARK 923 INTER-LIGAND FREE ENERGY PREDICTED BY IDOCK:   -4.29 KCAL/MOL
REMARK 924 INTRA-LIGAND FREE ENERGY PREDICTED BY IDOCK:   -0.29 KCAL/MOL
REMARK 927      BINDING AFFINITY PREDICTED BY RF-SCORE:    0.00 PKD
ROOT
HETATM    1  C   UNL     1      -6.537  12.151  69.110  1.00  0.00    -0.106 C  
HETATM    2  C   UNL     1      -6.655  13.643  69.046  1.00  0.00    -0.109 C  
HETATM    3  O   UNL     1      -6.765  14.373  70.020  1.00  0.00    -0.145 OA 
ENDROOT
BRANCH   2   4
HETATM    4  O   UNL     1      -6.659  14.050  67.705  1.00  0.00    -0.154 OA 
BRANCH   4   5
HETATM    5  C   UNL     1      -7.866  14.606  67.223  1.00  0.00    -0.186 A  
HETATM    6  C   UNL     1      -7.893  15.871  66.620  1.00  0.00    -0.236 A  
HETATM    7  C   UNL     1      -9.115  16.326  66.093  1.00  0.00    -0.377 A  
HETATM    8  C   UNL     1      -6.729  16.797  66.466  1.00  0.00    -0.138 C  
HETATM    9  O   UNL     1      -5.546  16.349  66.928  1.00  0.00    -0.332 OA 
HETATM   10  C   UNL     1     -10.278  15.551  66.175  1.00  0.00    -0.322 A  
HETATM   11  O   UNL     1      -6.837  17.902  65.957  1.00  0.00    -0.255 OA 
HETATM   12  C   UNL     1     -10.244  14.288  66.773  1.00  0.00    -0.272 A  
HETATM   13  C   UNL     1      -9.022  13.812  67.263  1.00  0.00    -0.227 A  
HETATM   14  C   UNL     1     -11.481  13.435  66.921  1.00  0.00    -0.342 C  
HETATM   15  F   UNL     1     -11.357  12.237  66.285  1.00  0.00    -0.311 F  
HETATM   16  F   UNL     1     -11.749  13.140  68.222  1.00  0.00    -0.304 F  
HETATM   17  F   UNL     1     -12.607  14.012  66.424  1.00  0.00    -0.471 F  
ENDBRANCH   4   5
ENDBRANCH   2   4
TORSDOF 2
ENDMDL
MODEL      124
REMARK 921   NORMALIZED FREE ENERGY PREDICTED BY IDOCK:   -3.88 KCAL/MOL
REMARK 922        TOTAL FREE ENERGY PREDICTED BY IDOCK:   -4.57 KCAL/MOL
REMARK 923 INTER-LIGAND FREE ENERGY PREDICTED BY IDOCK:   -4.38 KCAL/MOL
REMARK 924 INTRA-LIGAND FREE ENERGY PREDICTED BY IDOCK:   -0.19 KCAL/MOL
REMARK 927      BINDING AFFINITY PREDICTED BY RF-SCORE:    0.00 PKD
ROOT
HETATM    1  C   UNL     1      -8.875   5.225  67.472  1.00  0.00    -0.105 C  
HETATM    2  C   UNL     1      -9.975   5.969  68.165  1.00  0.00    -0.147 C  
HETATM    3  O   UNL     1     -11.126   6.042  67.760  1.00  0.00    -0.300 OA 
ENDROOT
BRANCH   2   4
HETATM    4  O   UNL     1      -9.462   6.591  69.311  1.00  0.00    -0.141 OA 
BRANCH   4   5
HETATM    5  C   UNL     1     -10.313   7.520  69.953  1.00  0.00    -0.223 A  
HETATM    6  C   UNL     1     -10.909   7.225  71.187  1.00  0.00    -0.260 A  
HETATM    7  C   UNL     1     -11.680   8.228  71.805  1.00  0.00    -0.357 A  
HETATM    8  C   UNL     1     -10.796   5.935  71.933  1.00  0.00    -0.254 C  
HETATM    9  O   UNL     1     -10.023   4.987  71.370  1.00  0.00    -0.177 OA 
HETATM   10  C   UNL     1     -11.861   9.480  71.205  1.00  0.00    -0.450 A  
HETATM   11  O   UNL     1     -11.373   5.741  72.992  1.00  0.00    -0.268 OA 
HETATM   12  C   UNL     1     -11.260   9.770  69.978  1.00  0.00    -0.297 A  
HETATM   13  C   UNL     1     -10.459   8.791  69.377  1.00  0.00    -0.228 A  
HETATM   14  C   UNL     1     -11.461  11.090  69.275  1.00  0.00    -0.300 C  
HETATM   15  F   UNL     1     -10.287  11.752  69.079  1.00  0.00    -0.211 F  
HETATM   16  F   UNL     1     -12.012  10.937  68.040  1.00  0.00    -0.331 F  
HETATM   17  F   UNL     1     -12.273  11.949  69.946  1.00  0.00    -0.336 F  
ENDBRANCH   4   5
ENDBRANCH   2   4
TORSDOF 2
ENDMDL
MODEL      125
REMARK 921   NORMALIZED FREE ENERGY PREDICTED BY IDOCK:   -3.88 KCAL/MOL
REMARK 922        TOTAL FREE ENERGY PREDICTED BY IDOCK:   -4.57 KCAL/MOL
REMARK 923 INTER-LIGAND FREE ENERGY PREDICTED BY IDOCK:   -4.28 KCAL/MOL
REMARK 924 INTRA-LIGAND FREE ENERGY PREDICTED BY IDOCK:   -0.29 KCAL/MOL
REMARK 927      BINDING AFFINITY PREDICTED BY RF-SCORE:    0.00 PKD
ROOT
HETATM    1  C   UNL     1     -10.824  11.015  66.706  1.00  0.00    -0.307 C  
HETATM    2  C   UNL     1     -10.351  11.126  68.123  1.00  0.00    -0.187 C  
HETATM    3  O   UNL     1     -10.611  12.057  68.871  1.00  0.00    -0.215 OA 
ENDROOT
BRANCH   2   4
HETATM    4  O   UNL     1      -9.541  10.024  68.428  1.00  0.00    -0.142 OA 
BRANCH   4   5
HETATM    5  C   UNL     1     -10.210   8.848  68.836  1.00  0.00    -0.206 A  
HETATM    6  C   UNL     1     -10.091   7.656  68.109  1.00  0.00    -0.220 A  
HETATM    7  C   UNL     1     -10.722   6.505  68.617  1.00  0.00    -0.323 A  
HETATM    8  C   UNL     1      -9.337   7.477  66.830  1.00  0.00    -0.157 C  
HETATM    9  O   UNL     1      -8.694   8.562  66.361  1.00  0.00    -0.120 OA 
HETATM   10  C   UNL     1     -11.459   6.544  69.807  1.00  0.00    -0.443 A  
HETATM   11  O   UNL     1      -9.306   6.411  66.235  1.00  0.00    -0.161 OA 
HETATM   12  C   UNL     1     -11.570   7.735  70.531  1.00  0.00    -0.173 A  
HETATM   13  C   UNL     1     -10.911   8.874  70.051  1.00  0.00    -0.217 A  
HETATM   14  C   UNL     1     -12.388   7.834  71.796  1.00  0.00    -0.317 C  
HETATM   15  F   UNL     1     -11.634   8.209  72.866  1.00  0.00    -0.445 F  
HETATM   16  F   UNL     1     -13.379   8.760  71.696  1.00  0.00    -0.320 F  
HETATM   17  F   UNL     1     -12.993   6.670  72.149  1.00  0.00    -0.327 F  
ENDBRANCH   4   5
ENDBRANCH   2   4
TORSDOF 2
ENDMDL
MODEL      126
REMARK 921   NORMALIZED FREE ENERGY PREDICTED BY IDOCK:   -3.87 KCAL/MOL
REMARK 922        TOTAL FREE ENERGY PREDICTED BY IDOCK:   -4.56 KCAL/MOL
REMARK 923 INTER-LIGAND FREE ENERGY PREDICTED BY IDOCK:   -4.47 KCAL/MOL
REMARK 924 INTRA-LIGAND FREE ENERGY PREDICTED BY IDOCK:   -0.09 KCAL/MOL
REMARK 927      BINDING AFFINITY PREDICTED BY RF-SCORE:    0.00 PKD
ROOT
HETATM    1  C   UNL     1      -6.592  12.582  68.848  1.00  0.00    -0.095 C  
HETATM    2  C   UNL     1      -7.151  13.286  67.650  1.00  0.00    -0.159 C  
HETATM    3  O   UNL     1      -6.760  14.368  67.236  1.00  0.00    -0.269 OA 
ENDROOT
BRANCH   2   4
HETATM    4  O   UNL     1      -8.204  12.531  67.118  1.00  0.00    -0.180 OA 
BRANCH   4   5
HETATM    5  C   UNL     1      -9.488  13.118  67.177  1.00  0.00    -0.239 A  
HETATM    6  C   UNL     1     -10.489  12.769  66.260  1.00  0.00    -0.273 A  
HETATM    7  C   UNL     1     -11.767  13.335  66.428  1.00  0.00    -0.418 A  
HETATM    8  C   UNL     1     -10.337  11.829  65.108  1.00  0.00    -0.279 C  
HETATM    9  O   UNL     1      -9.131  11.248  64.967  1.00  0.00    -0.173 OA 
HETATM   10  C   UNL     1     -12.035  14.231  67.470  1.00  0.00    -0.411 A  
HETATM   11  O   UNL     1     -11.250  11.598  64.329  1.00  0.00    -0.341 OA 
HETATM   12  C   UNL     1     -11.035  14.571  68.384  1.00  0.00    -0.255 A  
HETATM   13  C   UNL     1      -9.773  13.980  68.247  1.00  0.00    -0.225 A  
HETATM   14  C   UNL     1     -11.266  15.563  69.498  1.00  0.00    -0.299 C  
HETATM   15  F   UNL     1     -11.065  15.012  70.727  1.00  0.00    -0.293 F  
HETATM   16  F   UNL     1     -10.420  16.627  69.424  1.00  0.00    -0.266 F  
HETATM   17  F   UNL     1     -12.523  16.081  69.517  1.00  0.00    -0.293 F  
ENDBRANCH   4   5
ENDBRANCH   2   4
TORSDOF 2
ENDMDL
MODEL      127
REMARK 921   NORMALIZED FREE ENERGY PREDICTED BY IDOCK:   -3.84 KCAL/MOL
REMARK 922        TOTAL FREE ENERGY PREDICTED BY IDOCK:   -4.52 KCAL/MOL
REMARK 923 INTER-LIGAND FREE ENERGY PREDICTED BY IDOCK:   -4.14 KCAL/MOL
REMARK 924 INTRA-LIGAND FREE ENERGY PREDICTED BY IDOCK:   -0.38 KCAL/MOL
REMARK 927      BINDING AFFINITY PREDICTED BY RF-SCORE:    0.00 PKD
ROOT
HETATM    1  C   UNL     1      -8.390  11.411  68.533  1.00  0.00    -0.153 C  
HETATM    2  C   UNL     1      -9.566  10.815  67.824  1.00  0.00    -0.162 C  
HETATM    3  O   UNL     1     -10.332  11.439  67.103  1.00  0.00    -0.201 OA 
ENDROOT
BRANCH   2   4
HETATM    4  O   UNL     1      -9.666   9.456  68.152  1.00  0.00    -0.141 OA 
BRANCH   4   5
HETATM    5  C   UNL     1     -10.114   9.159  69.459  1.00  0.00    -0.197 A  
HETATM    6  C   UNL     1      -9.321   8.419  70.347  1.00  0.00    -0.170 A  
HETATM    7  C   UNL     1      -9.797   8.229  71.658  1.00  0.00    -0.263 A  
HETATM    8  C   UNL     1      -7.990   7.810  70.041  1.00  0.00    -0.113 C  
HETATM    9  O   UNL     1      -7.507   8.026  68.803  1.00  0.00    -0.087 OA 
HETATM   10  C   UNL     1     -11.031   8.750  72.067  1.00  0.00    -0.438 A  
HETATM   11  O   UNL     1      -7.372   7.148  70.861  1.00  0.00    -0.073 OA 
HETATM   12  C   UNL     1     -11.814   9.491  71.179  1.00  0.00    -0.436 A  
HETATM   13  C   UNL     1     -11.328   9.718  69.886  1.00  0.00    -0.238 A  
HETATM   14  C   UNL     1     -13.168  10.037  71.563  1.00  0.00    -0.401 C  
HETATM   15  F   UNL     1     -13.222  11.394  71.463  1.00  0.00    -0.471 F  
HETATM   16  F   UNL     1     -14.160   9.565  70.759  1.00  0.00    -0.307 F  
HETATM   17  F   UNL     1     -13.539   9.736  72.836  1.00  0.00    -0.293 F  
ENDBRANCH   4   5
ENDBRANCH   2   4
TORSDOF 2
ENDMDL
MODEL      128
REMARK 921   NORMALIZED FREE ENERGY PREDICTED BY IDOCK:   -3.78 KCAL/MOL
REMARK 922        TOTAL FREE ENERGY PREDICTED BY IDOCK:   -4.46 KCAL/MOL
REMARK 923 INTER-LIGAND FREE ENERGY PREDICTED BY IDOCK:   -4.46 KCAL/MOL
REMARK 924 INTRA-LIGAND FREE ENERGY PREDICTED BY IDOCK:   -0.00 KCAL/MOL
REMARK 927      BINDING AFFINITY PREDICTED BY RF-SCORE:    0.00 PKD
ROOT
HETATM    1  C   UNL     1     -11.785  12.876  67.683  1.00  0.00    -0.422 C  
HETATM    2  C   UNL     1     -11.689  11.430  68.062  1.00  0.00    -0.254 C  
HETATM    3  O   UNL     1     -11.544  10.512  67.268  1.00  0.00    -0.327 OA 
ENDROOT
BRANCH   2   4
HETATM    4  O   UNL     1     -11.832  11.304  69.451  1.00  0.00    -0.298 OA 
BRANCH   4   5
HETATM    5  C   UNL     1     -10.919  10.442  70.098  1.00  0.00    -0.300 A  
HETATM    6  C   UNL     1     -11.323   9.626  71.165  1.00  0.00    -0.456 A  
HETATM    7  C   UNL     1     -10.380   8.735  71.710  1.00  0.00    -0.413 A  
HETATM    8  C   UNL     1     -12.683   9.598  71.785  1.00  0.00    -0.420 C  
HETATM    9  O   UNL     1     -13.603  10.415  71.239  1.00  0.00    -0.207 OA 
HETATM   10  C   UNL     1      -9.072   8.667  71.216  1.00  0.00    -0.272 A  
HETATM   11  O   UNL     1     -12.952   8.881  72.736  1.00  0.00    -0.359 OA 
HETATM   12  C   UNL     1      -8.676   9.479  70.149  1.00  0.00    -0.258 A  
HETATM   13  C   UNL     1      -9.621  10.339  69.576  1.00  0.00    -0.225 A  
HETATM   14  C   UNL     1      -7.266   9.470  69.611  1.00  0.00    -0.076 C  
HETATM   15  F   UNL     1      -7.221   9.120  68.295  1.00  0.00    -0.074 F  
HETATM   16  F   UNL     1      -6.677  10.693  69.692  1.00  0.00    -0.061 F  
HETATM   17  F   UNL     1      -6.438   8.609  70.260  1.00  0.00    -0.036 F  
ENDBRANCH   4   5
ENDBRANCH   2   4
TORSDOF 2
ENDMDL
MODEL      129
REMARK 921   NORMALIZED FREE ENERGY PREDICTED BY IDOCK:   -3.77 KCAL/MOL
REMARK 922        TOTAL FREE ENERGY PREDICTED BY IDOCK:   -4.45 KCAL/MOL
REMARK 923 INTER-LIGAND FREE ENERGY PREDICTED BY IDOCK:   -4.07 KCAL/MOL
REMARK 924 INTRA-LIGAND FREE ENERGY PREDICTED BY IDOCK:   -0.37 KCAL/MOL
REMARK 927      BINDING AFFINITY PREDICTED BY RF-SCORE:    0.00 PKD
ROOT
HETATM    1  C   UNL     1      -6.858  12.179  67.132  1.00  0.00    -0.119 C  
HETATM    2  C   UNL     1      -7.475  11.358  68.222  1.00  0.00    -0.101 C  
HETATM    3  O   UNL     1      -6.966  11.161  69.316  1.00  0.00    -0.097 OA 
ENDROOT
BRANCH   2   4
HETATM    4  O   UNL     1      -8.691  10.828  67.772  1.00  0.00    -0.128 OA 
BRANCH   4   5
HETATM    5  C   UNL     1      -9.837  11.158  68.530  1.00  0.00    -0.198 A  
HETATM    6  C   UNL     1     -10.491  10.195  69.313  1.00  0.00    -0.246 A  
HETATM    7  C   UNL     1     -11.577  10.613  70.104  1.00  0.00    -0.414 A  
HETATM    8  C   UNL     1     -10.136   8.746  69.403  1.00  0.00    -0.203 C  
HETATM    9  O   UNL     1      -9.070   8.348  68.685  1.00  0.00    -0.140 OA 
HETATM   10  C   UNL     1     -12.007  11.946  70.105  1.00  0.00    -0.413 A  
HETATM   11  O   UNL     1     -10.776   7.959  70.085  1.00  0.00    -0.237 OA 
HETATM   12  C   UNL     1     -11.348  12.902  69.327  1.00  0.00    -0.303 A  
HETATM   13  C   UNL     1     -10.241  12.501  68.569  1.00  0.00    -0.210 A  
HETATM   14  C   UNL     1     -11.801  14.340  69.265  1.00  0.00    -0.330 C  
HETATM   15  F   UNL     1     -10.832  15.202  69.683  1.00  0.00    -0.237 F  
HETATM   16  F   UNL     1     -12.121  14.725  68.000  1.00  0.00    -0.346 F  
HETATM   17  F   UNL     1     -12.895  14.603  70.028  1.00  0.00    -0.349 F  
ENDBRANCH   4   5
ENDBRANCH   2   4
TORSDOF 2
ENDMDL
MODEL      130
REMARK 921   NORMALIZED FREE ENERGY PREDICTED BY IDOCK:   -3.76 KCAL/MOL
REMARK 922        TOTAL FREE ENERGY PREDICTED BY IDOCK:   -4.43 KCAL/MOL
REMARK 923 INTER-LIGAND FREE ENERGY PREDICTED BY IDOCK:   -4.16 KCAL/MOL
REMARK 924 INTRA-LIGAND FREE ENERGY PREDICTED BY IDOCK:   -0.27 KCAL/MOL
REMARK 927      BINDING AFFINITY PREDICTED BY RF-SCORE:    0.00 PKD
ROOT
HETATM    1  C   UNL     1      -9.455   9.603  70.208  1.00  0.00    -0.300 C  
HETATM    2  C   UNL     1     -10.705   9.570  69.384  1.00  0.00    -0.225 C  
HETATM    3  O   UNL     1     -11.711  10.222  69.623  1.00  0.00    -0.227 OA 
ENDROOT
BRANCH   2   4
HETATM    4  O   UNL     1     -10.545   8.654  68.336  1.00  0.00    -0.197 OA 
BRANCH   4   5
HETATM    5  C   UNL     1     -10.036   9.171  67.124  1.00  0.00    -0.236 A  
HETATM    6  C   UNL     1      -9.024   8.505  66.419  1.00  0.00    -0.201 A  
HETATM    7  C   UNL     1      -8.622   9.037  65.180  1.00  0.00    -0.204 A  
HETATM    8  C   UNL     1      -8.324   7.257  66.853  1.00  0.00    -0.118 C  
HETATM    9  O   UNL     1      -8.735   6.718  68.016  1.00  0.00    -0.119 OA 
HETATM   10  C   UNL     1      -9.202  10.203  64.664  1.00  0.00    -0.300 A  
HETATM   11  O   UNL     1      -7.425   6.752  66.198  1.00  0.00    -0.077 OA 
HETATM   12  C   UNL     1     -10.214  10.859  65.369  1.00  0.00    -0.339 A  
HETATM   13  C   UNL     1     -10.647  10.313  66.584  1.00  0.00    -0.232 A  
HETATM   14  C   UNL     1     -10.839  12.140  64.873  1.00  0.00    -0.308 C  
HETATM   15  F   UNL     1     -12.181  12.014  64.676  1.00  0.00    -0.420 F  
HETATM   16  F   UNL     1     -10.687  13.163  65.758  1.00  0.00    -0.270 F  
HETATM   17  F   UNL     1     -10.324  12.580  63.695  1.00  0.00    -0.387 F  
ENDBRANCH   4   5
ENDBRANCH   2   4
TORSDOF 2
ENDMDL
MODEL      131
REMARK 921   NORMALIZED FREE ENERGY PREDICTED BY IDOCK:   -3.76 KCAL/MOL
REMARK 922        TOTAL FREE ENERGY PREDICTED BY IDOCK:   -4.43 KCAL/MOL
REMARK 923 INTER-LIGAND FREE ENERGY PREDICTED BY IDOCK:   -4.35 KCAL/MOL
REMARK 924 INTRA-LIGAND FREE ENERGY PREDICTED BY IDOCK:   -0.08 KCAL/MOL
REMARK 927      BINDING AFFINITY PREDICTED BY RF-SCORE:    0.00 PKD
ROOT
HETATM    1  C   UNL     1      -9.266   9.615  62.450  1.00  0.00    -0.248 C  
HETATM    2  C   UNL     1      -9.018  10.334  63.740  1.00  0.00    -0.239 C  
HETATM    3  O   UNL     1      -7.937  10.385  64.310  1.00  0.00    -0.151 OA 
ENDROOT
BRANCH   2   4
HETATM    4  O   UNL     1     -10.219  10.892  64.198  1.00  0.00    -0.317 OA 
BRANCH   4   5
HETATM    5  C   UNL     1     -10.542  10.658  65.554  1.00  0.00    -0.110 A  
HETATM    6  C   UNL     1     -11.217  11.621  66.316  1.00  0.00    -0.332 A  
HETATM    7  C   UNL     1     -11.575  11.288  67.636  1.00  0.00    -0.290 A  
HETATM    8  C   UNL     1     -11.613  12.988  65.856  1.00  0.00    -0.363 C  
HETATM    9  O   UNL     1     -11.313  13.297  64.581  1.00  0.00    -0.321 OA 
HETATM   10  C   UNL     1     -11.260  10.038  68.182  1.00  0.00    -0.192 A  
HETATM   11  O   UNL     1     -12.172  13.787  66.592  1.00  0.00    -0.426 OA 
HETATM   12  C   UNL     1     -10.592   9.080  67.416  1.00  0.00    -0.309 A  
HETATM   13  C   UNL     1     -10.268   9.390  66.089  1.00  0.00    -0.264 A  
HETATM   14  C   UNL     1     -10.195   7.735  67.976  1.00  0.00    -0.201 C  
HETATM   15  F   UNL     1     -10.760   6.705  67.287  1.00  0.00    -0.250 F  
HETATM   16  F   UNL     1      -8.851   7.530  67.917  1.00  0.00    -0.125 F  
HETATM   17  F   UNL     1     -10.547   7.559  69.277  1.00  0.00    -0.212 F  
ENDBRANCH   4   5
ENDBRANCH   2   4
TORSDOF 2
ENDMDL
MODEL      132
REMARK 921   NORMALIZED FREE ENERGY PREDICTED BY IDOCK:   -3.74 KCAL/MOL
REMARK 922        TOTAL FREE ENERGY PREDICTED BY IDOCK:   -4.42 KCAL/MOL
REMARK 923 INTER-LIGAND FREE ENERGY PREDICTED BY IDOCK:   -4.31 KCAL/MOL
REMARK 924 INTRA-LIGAND FREE ENERGY PREDICTED BY IDOCK:   -0.11 KCAL/MOL
REMARK 927      BINDING AFFINITY PREDICTED BY RF-SCORE:    0.00 PKD
ROOT
HETATM    1  C   UNL     1      -8.456  13.350  68.114  1.00  0.00    -0.172 C  
HETATM    2  C   UNL     1      -9.693  14.100  68.505  1.00  0.00    -0.219 C  
HETATM    3  O   UNL     1      -9.722  15.018  69.311  1.00  0.00    -0.218 OA 
ENDROOT
BRANCH   2   4
HETATM    4  O   UNL     1     -10.796  13.554  67.835  1.00  0.00    -0.239 OA 
BRANCH   4   5
HETATM    5  C   UNL     1     -10.956  12.153  67.930  1.00  0.00    -0.229 A  
HETATM    6  C   UNL     1     -10.746  11.322  66.820  1.00  0.00    -0.323 A  
HETATM    7  C   UNL     1     -10.846   9.931  67.008  1.00  0.00    -0.186 A  
HETATM    8  C   UNL     1     -10.407  11.773  65.435  1.00  0.00    -0.268 C  
HETATM    9  O   UNL     1     -10.265  13.099  65.258  1.00  0.00    -0.299 OA 
HETATM   10  C   UNL     1     -11.158   9.386  68.259  1.00  0.00     0.005 A  
HETATM   11  O   UNL     1     -10.270  10.987  64.510  1.00  0.00    -0.295 OA 
HETATM   12  C   UNL     1     -11.362  10.219  69.362  1.00  0.00    -0.279 A  
HETATM   13  C   UNL     1     -11.224  11.602  69.191  1.00  0.00    -0.325 A  
HETATM   14  C   UNL     1     -11.741   9.678  70.720  1.00  0.00    -0.314 C  
HETATM   15  F   UNL     1     -10.825  10.002  71.675  1.00  0.00    -0.280 F  
HETATM   16  F   UNL     1     -12.929  10.176  71.158  1.00  0.00    -0.375 F  
HETATM   17  F   UNL     1     -11.862   8.325  70.755  1.00  0.00    -0.293 F  
ENDBRANCH   4   5
ENDBRANCH   2   4
TORSDOF 2
ENDMDL
MODEL      133
REMARK 921   NORMALIZED FREE ENERGY PREDICTED BY IDOCK:   -3.73 KCAL/MOL
REMARK 922        TOTAL FREE ENERGY PREDICTED BY IDOCK:   -4.40 KCAL/MOL
REMARK 923 INTER-LIGAND FREE ENERGY PREDICTED BY IDOCK:   -4.10 KCAL/MOL
REMARK 924 INTRA-LIGAND FREE ENERGY PREDICTED BY IDOCK:   -0.30 KCAL/MOL
REMARK 927      BINDING AFFINITY PREDICTED BY RF-SCORE:    0.00 PKD
ROOT
HETATM    1  C   UNL     1      -9.653  12.167  66.835  1.00  0.00    -0.210 C  
HETATM    2  C   UNL     1      -9.328  13.457  67.524  1.00  0.00    -0.218 C  
HETATM    3  O   UNL     1      -8.266  13.699  68.078  1.00  0.00    -0.139 OA 
ENDROOT
BRANCH   2   4
HETATM    4  O   UNL     1     -10.440  14.308  67.464  1.00  0.00    -0.250 OA 
BRANCH   4   5
HETATM    5  C   UNL     1     -10.889  14.839  68.694  1.00  0.00    -0.253 A  
HETATM    6  C   UNL     1     -10.618  16.167  69.052  1.00  0.00    -0.273 A  
HETATM    7  C   UNL     1     -11.164  16.652  70.255  1.00  0.00     0.010 A  
HETATM    8  C   UNL     1      -9.804  17.143  68.264  1.00  0.00    -0.288 C  
HETATM    9  O   UNL     1      -9.317  16.701  67.090  1.00  0.00    -0.222 OA 
HETATM   10  C   UNL     1     -11.944  15.835  71.082  1.00  0.00    -0.469 A  
HETATM   11  O   UNL     1      -9.584  18.278  68.658  1.00  0.00    -0.321 OA 
HETATM   12  C   UNL     1     -12.215  14.514  70.718  1.00  0.00    -0.403 A  
HETATM   13  C   UNL     1     -11.709  14.037  69.502  1.00  0.00    -0.367 A  
HETATM   14  C   UNL     1     -13.016  13.584  71.597  1.00  0.00    -0.359 C  
HETATM   15  F   UNL     1     -14.136  13.125  70.972  1.00  0.00     0.317 F  
HETATM   16  F   UNL     1     -12.309  12.478  71.954  1.00  0.00    -0.144 F  
HETATM   17  F   UNL     1     -13.436  14.155  72.756  1.00  0.00    -0.511 F  
ENDBRANCH   4   5
ENDBRANCH   2   4
TORSDOF 2
ENDMDL
MODEL      134
REMARK 921   NORMALIZED FREE ENERGY PREDICTED BY IDOCK:   -3.73 KCAL/MOL
REMARK 922        TOTAL FREE ENERGY PREDICTED BY IDOCK:   -4.40 KCAL/MOL
REMARK 923 INTER-LIGAND FREE ENERGY PREDICTED BY IDOCK:   -4.24 KCAL/MOL
REMARK 924 INTRA-LIGAND FREE ENERGY PREDICTED BY IDOCK:   -0.16 KCAL/MOL
REMARK 927      BINDING AFFINITY PREDICTED BY RF-SCORE:    0.00 PKD
ROOT
HETATM    1  C   UNL     1      -9.562   8.992  71.529  1.00  0.00    -0.340 C  
HETATM    2  C   UNL     1     -10.901   9.469  71.056  1.00  0.00    -0.353 C  
HETATM    3  O   UNL     1     -11.715  10.057  71.753  1.00  0.00    -0.293 OA 
ENDROOT
BRANCH   2   4
HETATM    4  O   UNL     1     -11.077   9.098  69.716  1.00  0.00    -0.215 OA 
BRANCH   4   5
HETATM    5  C   UNL     1     -10.705  10.057  68.747  1.00  0.00    -0.223 A  
HETATM    6  C   UNL     1     -10.193   9.668  67.502  1.00  0.00    -0.274 A  
HETATM    7  C   UNL     1      -9.918  10.675  66.557  1.00  0.00    -0.265 A  
HETATM    8  C   UNL     1      -9.915   8.266  67.063  1.00  0.00    -0.255 C  
HETATM    9  O   UNL     1     -10.218   7.296  67.944  1.00  0.00    -0.171 OA 
HETATM   10  C   UNL     1     -10.136  12.027  66.848  1.00  0.00    -0.224 A  
HETATM   11  O   UNL     1      -9.435   8.008  65.969  1.00  0.00    -0.155 OA 
HETATM   12  C   UNL     1     -10.652  12.408  68.090  1.00  0.00    -0.232 A  
HETATM   13  C   UNL     1     -10.965  11.408  69.020  1.00  0.00    -0.288 A  
HETATM   14  C   UNL     1     -10.864  13.854  68.463  1.00  0.00    -0.259 C  
HETATM   15  F   UNL     1     -12.167  14.124  68.755  1.00  0.00    -0.368 F  
HETATM   16  F   UNL     1     -10.154  14.210  69.568  1.00  0.00    -0.083 F  
HETATM   17  F   UNL     1     -10.506  14.730  67.487  1.00  0.00    -0.238 F  
ENDBRANCH   4   5
ENDBRANCH   2   4
TORSDOF 2
ENDMDL
MODEL      135
REMARK 921   NORMALIZED FREE ENERGY PREDICTED BY IDOCK:   -3.72 KCAL/MOL
REMARK 922        TOTAL FREE ENERGY PREDICTED BY IDOCK:   -4.40 KCAL/MOL
REMARK 923 INTER-LIGAND FREE ENERGY PREDICTED BY IDOCK:   -4.04 KCAL/MOL
REMARK 924 INTRA-LIGAND FREE ENERGY PREDICTED BY IDOCK:   -0.36 KCAL/MOL
REMARK 927      BINDING AFFINITY PREDICTED BY RF-SCORE:    0.00 PKD
ROOT
HETATM    1  C   UNL     1     -12.610  12.153  63.794  1.00  0.00    -0.585 C  
HETATM    2  C   UNL     1     -11.652  12.929  64.645  1.00  0.00    -0.346 C  
HETATM    3  O   UNL     1     -10.868  13.766  64.221  1.00  0.00    -0.368 OA 
ENDROOT
BRANCH   2   4
HETATM    4  O   UNL     1     -11.773  12.513  65.977  1.00  0.00    -0.380 OA 
BRANCH   4   5
HETATM    5  C   UNL     1     -10.568  12.220  66.654  1.00  0.00    -0.229 A  
HETATM    6  C   UNL     1     -10.119  13.018  67.715  1.00  0.00    -0.229 A  
HETATM    7  C   UNL     1      -8.952  12.620  68.393  1.00  0.00    -0.125 A  
HETATM    8  C   UNL     1     -10.774  14.264  68.217  1.00  0.00    -0.247 C  
HETATM    9  O   UNL     1     -11.916  14.625  67.603  1.00  0.00    -0.362 OA 
HETATM   10  C   UNL     1      -8.246  11.470  68.017  1.00  0.00    -0.143 A  
HETATM   11  O   UNL     1     -10.304  14.927  69.129  1.00  0.00    -0.235 OA 
HETATM   12  C   UNL     1      -8.701  10.676  66.962  1.00  0.00    -0.128 A  
HETATM   13  C   UNL     1      -9.885  11.044  66.309  1.00  0.00    -0.257 A  
HETATM   14  C   UNL     1      -7.952   9.452  66.495  1.00  0.00    -0.108 C  
HETATM   15  F   UNL     1      -8.705   8.321  66.594  1.00  0.00    -0.119 F  
HETATM   16  F   UNL     1      -7.584   9.541  65.189  1.00  0.00    -0.101 F  
HETATM   17  F   UNL     1      -6.812   9.209  67.194  1.00  0.00    -0.074 F  
ENDBRANCH   4   5
ENDBRANCH   2   4
TORSDOF 2
ENDMDL
MODEL      136
REMARK 921   NORMALIZED FREE ENERGY PREDICTED BY IDOCK:   -3.69 KCAL/MOL
REMARK 922        TOTAL FREE ENERGY PREDICTED BY IDOCK:   -4.36 KCAL/MOL
REMARK 923 INTER-LIGAND FREE ENERGY PREDICTED BY IDOCK:   -4.47 KCAL/MOL
REMARK 924 INTRA-LIGAND FREE ENERGY PREDICTED BY IDOCK:    0.12 KCAL/MOL
REMARK 927      BINDING AFFINITY PREDICTED BY RF-SCORE:    0.00 PKD
ROOT
HETATM    1  C   UNL     1     -12.107  12.554  69.637  1.00  0.00    -0.272 C  
HETATM    2  C   UNL     1     -11.597  12.686  68.235  1.00  0.00    -0.332 C  
HETATM    3  O   UNL     1     -12.201  13.237  67.326  1.00  0.00    -0.321 OA 
ENDROOT
BRANCH   2   4
HETATM    4  O   UNL     1     -10.354  12.048  68.132  1.00  0.00    -0.186 OA 
BRANCH   4   5
HETATM    5  C   UNL     1     -10.382  10.644  67.973  1.00  0.00    -0.178 A  
HETATM    6  C   UNL     1     -10.170  10.052  66.720  1.00  0.00    -0.295 A  
HETATM    7  C   UNL     1     -10.134   8.646  66.651  1.00  0.00    -0.364 A  
HETATM    8  C   UNL     1      -9.963  10.775  65.428  1.00  0.00    -0.271 C  
HETATM    9  O   UNL     1      -9.952  12.119  65.494  1.00  0.00    -0.246 OA 
HETATM   10  C   UNL     1     -10.315   7.856  67.793  1.00  0.00    -0.289 A  
HETATM   11  O   UNL     1      -9.817  10.187  64.367  1.00  0.00    -0.322 OA 
HETATM   12  C   UNL     1     -10.520   8.452  69.040  1.00  0.00    -0.216 A  
HETATM   13  C   UNL     1     -10.517   9.850  69.122  1.00  0.00    -0.235 A  
HETATM   14  C   UNL     1     -10.761   7.641  70.290  1.00  0.00    -0.239 C  
HETATM   15  F   UNL     1      -9.818   7.877  71.244  1.00  0.00    -0.170 F  
HETATM   16  F   UNL     1     -11.957   7.932  70.868  1.00  0.00    -0.294 F  
HETATM   17  F   UNL     1     -10.759   6.299  70.079  1.00  0.00    -0.241 F  
ENDBRANCH   4   5
ENDBRANCH   2   4
TORSDOF 2
ENDMDL
MODEL      137
REMARK 921   NORMALIZED FREE ENERGY PREDICTED BY IDOCK:   -3.68 KCAL/MOL
REMARK 922        TOTAL FREE ENERGY PREDICTED BY IDOCK:   -4.35 KCAL/MOL
REMARK 923 INTER-LIGAND FREE ENERGY PREDICTED BY IDOCK:   -3.98 KCAL/MOL
REMARK 924 INTRA-LIGAND FREE ENERGY PREDICTED BY IDOCK:   -0.37 KCAL/MOL
REMARK 927      BINDING AFFINITY PREDICTED BY RF-SCORE:    0.00 PKD
ROOT
HETATM    1  C   UNL     1      -8.483   5.995  67.082  1.00  0.00    -0.104 C  
HETATM    2  C   UNL     1      -9.962   5.835  66.905  1.00  0.00    -0.171 C  
HETATM    3  O   UNL     1     -10.534   4.762  66.777  1.00  0.00    -0.224 OA 
ENDROOT
BRANCH   2   4
HETATM    4  O   UNL     1     -10.563   7.100  66.869  1.00  0.00    -0.305 OA 
BRANCH   4   5
HETATM    5  C   UNL     1     -10.504   7.855  68.062  1.00  0.00    -0.185 A  
HETATM    6  C   UNL     1     -10.101   9.198  68.052  1.00  0.00    -0.238 A  
HETATM    7  C   UNL     1     -10.143   9.910  69.265  1.00  0.00    -0.214 A  
HETATM    8  C   UNL     1      -9.636   9.968  66.857  1.00  0.00    -0.175 C  
HETATM    9  O   UNL     1      -9.638   9.306  65.685  1.00  0.00    -0.265 OA 
HETATM   10  C   UNL     1     -10.560   9.300  70.454  1.00  0.00    -0.298 A  
HETATM   11  O   UNL     1      -9.269  11.130  66.933  1.00  0.00    -0.164 OA 
HETATM   12  C   UNL     1     -10.965   7.962  70.457  1.00  0.00    -0.250 A  
HETATM   13  C   UNL     1     -10.965   7.260  69.246  1.00  0.00    -0.121 A  
HETATM   14  C   UNL     1     -11.383   7.252  71.721  1.00  0.00    -0.253 C  
HETATM   15  F   UNL     1     -12.663   6.789  71.651  1.00  0.00    -0.376 F  
HETATM   16  F   UNL     1     -10.608   6.164  71.981  1.00  0.00    -0.223 F  
HETATM   17  F   UNL     1     -11.324   8.031  72.833  1.00  0.00    -0.416 F  
ENDBRANCH   4   5
ENDBRANCH   2   4
TORSDOF 2
ENDMDL
MODEL      138
REMARK 921   NORMALIZED FREE ENERGY PREDICTED BY IDOCK:   -3.67 KCAL/MOL
REMARK 922        TOTAL FREE ENERGY PREDICTED BY IDOCK:   -4.34 KCAL/MOL
REMARK 923 INTER-LIGAND FREE ENERGY PREDICTED BY IDOCK:   -4.13 KCAL/MOL
REMARK 924 INTRA-LIGAND FREE ENERGY PREDICTED BY IDOCK:   -0.20 KCAL/MOL
REMARK 927      BINDING AFFINITY PREDICTED BY RF-SCORE:    0.00 PKD
ROOT
HETATM    1  C   UNL     1      -8.358   9.961  69.880  1.00  0.00    -0.200 C  
HETATM    2  C   UNL     1      -9.274  10.513  68.832  1.00  0.00    -0.183 C  
HETATM    3  O   UNL     1      -8.930  11.279  67.943  1.00  0.00    -0.138 OA 
ENDROOT
BRANCH   2   4
HETATM    4  O   UNL     1     -10.575  10.046  69.061  1.00  0.00    -0.195 OA 
BRANCH   4   5
HETATM    5  C   UNL     1     -10.708   8.661  69.311  1.00  0.00    -0.136 A  
HETATM    6  C   UNL     1     -11.339   8.191  70.471  1.00  0.00    -0.222 A  
HETATM    7  C   UNL     1     -11.506   6.801  70.615  1.00  0.00    -0.403 A  
HETATM    8  C   UNL     1     -11.873   9.033  71.585  1.00  0.00    -0.360 C  
HETATM    9  O   UNL     1     -11.757  10.365  71.433  1.00  0.00    -0.308 OA 
HETATM   10  C   UNL     1     -11.048   5.907  69.640  1.00  0.00    -0.414 A  
HETATM   11  O   UNL     1     -12.383   8.547  72.584  1.00  0.00    -0.378 OA 
HETATM   12  C   UNL     1     -10.425   6.382  68.483  1.00  0.00    -0.265 A  
HETATM   13  C   UNL     1     -10.292   7.766  68.314  1.00  0.00    -0.239 A  
HETATM   14  C   UNL     1      -9.879   5.455  67.425  1.00  0.00    -0.154 C  
HETATM   15  F   UNL     1     -10.463   5.660  66.211  1.00  0.00    -0.242 F  
HETATM   16  F   UNL     1      -8.544   5.627  67.229  1.00  0.00    -0.111 F  
HETATM   17  F   UNL     1     -10.052   4.137  67.710  1.00  0.00    -0.186 F  
ENDBRANCH   4   5
ENDBRANCH   2   4
TORSDOF 2
ENDMDL
MODEL      139
REMARK 921   NORMALIZED FREE ENERGY PREDICTED BY IDOCK:   -3.66 KCAL/MOL
REMARK 922        TOTAL FREE ENERGY PREDICTED BY IDOCK:   -4.32 KCAL/MOL
REMARK 923 INTER-LIGAND FREE ENERGY PREDICTED BY IDOCK:   -4.70 KCAL/MOL
REMARK 924 INTRA-LIGAND FREE ENERGY PREDICTED BY IDOCK:    0.37 KCAL/MOL
REMARK 927      BINDING AFFINITY PREDICTED BY RF-SCORE:    0.00 PKD
ROOT
HETATM    1  C   UNL     1     -13.257  14.742  70.894  1.00  0.00    -0.408 C  
HETATM    2  C   UNL     1     -12.131  13.913  70.356  1.00  0.00    -0.351 C  
HETATM    3  O   UNL     1     -11.063  14.362  69.968  1.00  0.00    -0.192 OA 
ENDROOT
BRANCH   2   4
HETATM    4  O   UNL     1     -12.517  12.566  70.334  1.00  0.00    -0.242 OA 
BRANCH   4   5
HETATM    5  C   UNL     1     -11.589  11.659  69.775  1.00  0.00    -0.315 A  
HETATM    6  C   UNL     1     -11.404  10.381  70.321  1.00  0.00    -0.406 A  
HETATM    7  C   UNL     1     -10.522   9.502  69.664  1.00  0.00    -0.239 A  
HETATM    8  C   UNL     1     -12.071   9.843  71.546  1.00  0.00    -0.410 C  
HETATM    9  O   UNL     1     -12.950  10.661  72.153  1.00  0.00    -0.427 OA 
HETATM   10  C   UNL     1      -9.836   9.890  68.506  1.00  0.00    -0.168 A  
HETATM   11  O   UNL     1     -11.834   8.726  71.981  1.00  0.00    -0.333 OA 
HETATM   12  C   UNL     1     -10.029  11.162  67.964  1.00  0.00    -0.190 A  
HETATM   13  C   UNL     1     -10.936  12.027  68.589  1.00  0.00    -0.281 A  
HETATM   14  C   UNL     1      -9.281  11.638  66.742  1.00  0.00    -0.186 C  
HETATM   15  F   UNL     1     -10.121  11.969  65.722  1.00  0.00    -0.231 F  
HETATM   16  F   UNL     1      -8.541  12.752  66.992  1.00  0.00    -0.183 F  
HETATM   17  F   UNL     1      -8.417  10.718  66.237  1.00  0.00    -0.138 F  
ENDBRANCH   4   5
ENDBRANCH   2   4
TORSDOF 2
ENDMDL
MODEL      140
REMARK 921   NORMALIZED FREE ENERGY PREDICTED BY IDOCK:   -3.61 KCAL/MOL
REMARK 922        TOTAL FREE ENERGY PREDICTED BY IDOCK:   -4.27 KCAL/MOL
REMARK 923 INTER-LIGAND FREE ENERGY PREDICTED BY IDOCK:   -4.14 KCAL/MOL
REMARK 924 INTRA-LIGAND FREE ENERGY PREDICTED BY IDOCK:   -0.13 KCAL/MOL
REMARK 927      BINDING AFFINITY PREDICTED BY RF-SCORE:    0.00 PKD
ROOT
HETATM    1  C   UNL     1     -13.347  11.026  72.063  1.00  0.00    -0.393 C  
HETATM    2  C   UNL     1     -12.581   9.966  71.332  1.00  0.00    -0.398 C  
HETATM    3  O   UNL     1     -12.848   8.774  71.359  1.00  0.00    -0.322 OA 
ENDROOT
BRANCH   2   4
HETATM    4  O   UNL     1     -11.503  10.555  70.658  1.00  0.00    -0.322 OA 
BRANCH   4   5
HETATM    5  C   UNL     1     -10.431   9.698  70.323  1.00  0.00    -0.283 A  
HETATM    6  C   UNL     1      -9.999   9.560  68.996  1.00  0.00    -0.185 A  
HETATM    7  C   UNL     1      -8.875   8.750  68.747  1.00  0.00    -0.134 A  
HETATM    8  C   UNL     1     -10.615  10.209  67.799  1.00  0.00    -0.256 C  
HETATM    9  O   UNL     1     -11.662  11.021  68.034  1.00  0.00    -0.532 OA 
HETATM   10  C   UNL     1      -8.210   8.088  69.786  1.00  0.00    -0.120 A  
HETATM   11  O   UNL     1     -10.201  10.015  66.666  1.00  0.00    -0.217 OA 
HETATM   12  C   UNL     1      -8.642   8.233  71.107  1.00  0.00    -0.168 A  
HETATM   13  C   UNL     1      -9.734   9.069  71.367  1.00  0.00    -0.369 A  
HETATM   14  C   UNL     1      -7.982   7.506  72.254  1.00  0.00    -0.102 C  
HETATM   15  F   UNL     1      -7.479   8.364  73.185  1.00  0.00    -0.152 F  
HETATM   16  F   UNL     1      -8.852   6.700  72.921  1.00  0.00    -0.126 F  
HETATM   17  F   UNL     1      -6.947   6.711  71.874  1.00  0.00    -0.066 F  
ENDBRANCH   4   5
ENDBRANCH   2   4
TORSDOF 2
ENDMDL
MODEL      141
REMARK 921   NORMALIZED FREE ENERGY PREDICTED BY IDOCK:   -3.60 KCAL/MOL
REMARK 922        TOTAL FREE ENERGY PREDICTED BY IDOCK:   -4.25 KCAL/MOL
REMARK 923 INTER-LIGAND FREE ENERGY PREDICTED BY IDOCK:   -3.84 KCAL/MOL
REMARK 924 INTRA-LIGAND FREE ENERGY PREDICTED BY IDOCK:   -0.42 KCAL/MOL
REMARK 927      BINDING AFFINITY PREDICTED BY RF-SCORE:    0.00 PKD
ROOT
HETATM    1  C   UNL     1      -6.323  13.337  67.500  1.00  0.00    -0.130 C  
HETATM    2  C   UNL     1      -7.464  14.055  68.151  1.00  0.00    -0.131 C  
HETATM    3  O   UNL     1      -7.605  15.270  68.161  1.00  0.00    -0.108 OA 
ENDROOT
BRANCH   2   4
HETATM    4  O   UNL     1      -8.304  13.123  68.773  1.00  0.00    -0.035 OA 
BRANCH   4   5
HETATM    5  C   UNL     1      -9.124  12.352  67.919  1.00  0.00    -0.191 A  
HETATM    6  C   UNL     1      -9.097  10.951  67.957  1.00  0.00    -0.152 A  
HETATM    7  C   UNL     1      -9.998  10.249  67.134  1.00  0.00    -0.243 A  
HETATM    8  C   UNL     1      -8.200  10.111  68.809  1.00  0.00    -0.113 C  
HETATM    9  O   UNL     1      -7.368  10.775  69.632  1.00  0.00    -0.145 OA 
HETATM   10  C   UNL     1     -10.889  10.923  66.290  1.00  0.00    -0.191 A  
HETATM   11  O   UNL     1      -8.212   8.890  68.763  1.00  0.00    -0.112 OA 
HETATM   12  C   UNL     1     -10.915  12.319  66.260  1.00  0.00    -0.327 A  
HETATM   13  C   UNL     1     -10.050  13.023  67.106  1.00  0.00    -0.244 A  
HETATM   14  C   UNL     1     -11.829  13.087  65.336  1.00  0.00    -0.388 C  
HETATM   15  F   UNL     1     -12.683  13.900  66.018  1.00  0.00    -0.478 F  
HETATM   16  F   UNL     1     -11.140  13.899  64.488  1.00  0.00    -0.348 F  
HETATM   17  F   UNL     1     -12.606  12.295  64.552  1.00  0.00    -0.503 F  
ENDBRANCH   4   5
ENDBRANCH   2   4
TORSDOF 2
ENDMDL
MODEL      142
REMARK 921   NORMALIZED FREE ENERGY PREDICTED BY IDOCK:   -3.57 KCAL/MOL
REMARK 922        TOTAL FREE ENERGY PREDICTED BY IDOCK:   -4.22 KCAL/MOL
REMARK 923 INTER-LIGAND FREE ENERGY PREDICTED BY IDOCK:   -3.91 KCAL/MOL
REMARK 924 INTRA-LIGAND FREE ENERGY PREDICTED BY IDOCK:   -0.31 KCAL/MOL
REMARK 927      BINDING AFFINITY PREDICTED BY RF-SCORE:    0.00 PKD
ROOT
HETATM    1  C   UNL     1      -7.157   8.616  68.633  1.00  0.00    -0.068 C  
HETATM    2  C   UNL     1      -7.921   9.578  69.490  1.00  0.00    -0.110 C  
HETATM    3  O   UNL     1      -7.410  10.370  70.268  1.00  0.00    -0.215 OA 
ENDROOT
BRANCH   2   4
HETATM    4  O   UNL     1      -9.294   9.390  69.286  1.00  0.00    -0.156 OA 
BRANCH   4   5
HETATM    5  C   UNL     1      -9.841   8.183  69.776  1.00  0.00    -0.187 A  
HETATM    6  C   UNL     1     -10.368   7.219  68.905  1.00  0.00    -0.207 A  
HETATM    7  C   UNL     1     -10.823   6.007  69.457  1.00  0.00    -0.439 A  
HETATM    8  C   UNL     1     -10.486   7.346  67.420  1.00  0.00    -0.296 C  
HETATM    9  O   UNL     1     -10.011   8.483  66.880  1.00  0.00    -0.212 OA 
HETATM   10  C   UNL     1     -10.767   5.768  70.836  1.00  0.00    -0.333 A  
HETATM   11  O   UNL     1     -10.988   6.473  66.728  1.00  0.00    -0.354 OA 
HETATM   12  C   UNL     1     -10.236   6.731  71.698  1.00  0.00    -0.208 A  
HETATM   13  C   UNL     1      -9.744   7.922  71.151  1.00  0.00    -0.182 A  
HETATM   14  C   UNL     1     -10.193   6.534  73.194  1.00  0.00    -0.213 C  
HETATM   15  F   UNL     1      -8.921   6.577  73.681  1.00  0.00    -0.122 F  
HETATM   16  F   UNL     1     -10.880   7.501  73.860  1.00  0.00    -0.375 F  
HETATM   17  F   UNL     1     -10.715   5.348  73.606  1.00  0.00    -0.234 F  
ENDBRANCH   4   5
ENDBRANCH   2   4
TORSDOF 2
ENDMDL
MODEL      143
REMARK 921   NORMALIZED FREE ENERGY PREDICTED BY IDOCK:   -3.55 KCAL/MOL
REMARK 922        TOTAL FREE ENERGY PREDICTED BY IDOCK:   -4.20 KCAL/MOL
REMARK 923 INTER-LIGAND FREE ENERGY PREDICTED BY IDOCK:   -3.98 KCAL/MOL
REMARK 924 INTRA-LIGAND FREE ENERGY PREDICTED BY IDOCK:   -0.22 KCAL/MOL
REMARK 927      BINDING AFFINITY PREDICTED BY RF-SCORE:    0.00 PKD
ROOT
HETATM    1  C   UNL     1     -12.606   6.649  71.477  1.00  0.00    -0.287 C  
HETATM    2  C   UNL     1     -11.263   7.291  71.649  1.00  0.00    -0.245 C  
HETATM    3  O   UNL     1     -11.065   8.334  72.254  1.00  0.00    -0.308 OA 
ENDROOT
BRANCH   2   4
HETATM    4  O   UNL     1     -10.297   6.531  70.976  1.00  0.00    -0.201 OA 
BRANCH   4   5
HETATM    5  C   UNL     1     -10.185   6.750  69.584  1.00  0.00    -0.187 A  
HETATM    6  C   UNL     1     -10.004   5.683  68.693  1.00  0.00    -0.213 A  
HETATM    7  C   UNL     1      -9.981   5.969  67.315  1.00  0.00    -0.177 A  
HETATM    8  C   UNL     1      -9.844   4.244  69.065  1.00  0.00    -0.078 C  
HETATM    9  O   UNL     1      -9.910   3.957  70.379  1.00  0.00    -0.196 OA 
HETATM   10  C   UNL     1     -10.121   7.279  66.841  1.00  0.00    -0.317 A  
HETATM   11  O   UNL     1      -9.656   3.372  68.231  1.00  0.00    -0.169 OA 
HETATM   12  C   UNL     1     -10.306   8.338  67.733  1.00  0.00    -0.296 A  
HETATM   13  C   UNL     1     -10.371   8.055  69.103  1.00  0.00    -0.226 A  
HETATM   14  C   UNL     1     -10.421   9.770  67.270  1.00  0.00    -0.261 C  
HETATM   15  F   UNL     1     -11.608  10.333  67.630  1.00  0.00    -0.351 F  
HETATM   16  F   UNL     1      -9.454  10.563  67.808  1.00  0.00    -0.145 F  
HETATM   17  F   UNL     1     -10.324   9.918  65.923  1.00  0.00    -0.326 F  
ENDBRANCH   4   5
ENDBRANCH   2   4
TORSDOF 2
ENDMDL
MODEL      144
REMARK 921   NORMALIZED FREE ENERGY PREDICTED BY IDOCK:   -3.55 KCAL/MOL
REMARK 922        TOTAL FREE ENERGY PREDICTED BY IDOCK:   -4.20 KCAL/MOL
REMARK 923 INTER-LIGAND FREE ENERGY PREDICTED BY IDOCK:   -3.83 KCAL/MOL
REMARK 924 INTRA-LIGAND FREE ENERGY PREDICTED BY IDOCK:   -0.37 KCAL/MOL
REMARK 927      BINDING AFFINITY PREDICTED BY RF-SCORE:    0.00 PKD
ROOT
HETATM    1  C   UNL     1      -9.970  11.954  66.431  1.00  0.00    -0.237 C  
HETATM    2  C   UNL     1     -10.894  11.586  67.551  1.00  0.00    -0.237 C  
HETATM    3  O   UNL     1     -12.112  11.544  67.462  1.00  0.00    -0.614 OA 
ENDROOT
BRANCH   2   4
HETATM    4  O   UNL     1     -10.143  11.343  68.709  1.00  0.00    -0.205 OA 
BRANCH   4   5
HETATM    5  C   UNL     1      -9.584  10.051  68.833  1.00  0.00    -0.181 A  
HETATM    6  C   UNL     1      -8.209   9.872  69.037  1.00  0.00    -0.124 A  
HETATM    7  C   UNL     1      -7.734   8.561  69.231  1.00  0.00    -0.093 A  
HETATM    8  C   UNL     1      -7.178  10.954  69.085  1.00  0.00    -0.118 C  
HETATM    9  O   UNL     1      -7.630  12.213  68.946  1.00  0.00    -0.090 OA 
HETATM   10  C   UNL     1      -8.601   7.461  69.208  1.00  0.00    -0.137 A  
HETATM   11  O   UNL     1      -5.989  10.716  69.235  1.00  0.00    -0.040 OA 
HETATM   12  C   UNL     1      -9.972   7.647  69.009  1.00  0.00    -0.181 A  
HETATM   13  C   UNL     1     -10.456   8.952  68.857  1.00  0.00    -0.225 A  
HETATM   14  C   UNL     1     -10.938   6.489  68.937  1.00  0.00    -0.314 C  
HETATM   15  F   UNL     1     -11.898   6.560  69.900  1.00  0.00    -0.450 F  
HETATM   16  F   UNL     1     -11.603   6.448  67.750  1.00  0.00    -0.332 F  
HETATM   17  F   UNL     1     -10.347   5.274  69.080  1.00  0.00    -0.255 F  
ENDBRANCH   4   5
ENDBRANCH   2   4
TORSDOF 2
ENDMDL
MODEL      145
REMARK 921   NORMALIZED FREE ENERGY PREDICTED BY IDOCK:   -3.52 KCAL/MOL
REMARK 922        TOTAL FREE ENERGY PREDICTED BY IDOCK:   -4.17 KCAL/MOL
REMARK 923 INTER-LIGAND FREE ENERGY PREDICTED BY IDOCK:   -4.61 KCAL/MOL
REMARK 924 INTRA-LIGAND FREE ENERGY PREDICTED BY IDOCK:    0.44 KCAL/MOL
REMARK 927      BINDING AFFINITY PREDICTED BY RF-SCORE:    0.00 PKD
ROOT
HETATM    1  C   UNL     1     -10.353  18.492  67.923  1.00  0.00    -0.424 C  
HETATM    2  C   UNL     1      -9.600  19.617  67.283  1.00  0.00    -0.346 C  
HETATM    3  O   UNL     1     -10.021  20.760  67.172  1.00  0.00    -0.422 OA 
ENDROOT
BRANCH   2   4
HETATM    4  O   UNL     1      -8.373  19.141  66.805  1.00  0.00    -0.271 OA 
BRANCH   4   5
HETATM    5  C   UNL     1      -7.505  18.572  67.764  1.00  0.00    -0.230 A  
HETATM    6  C   UNL     1      -6.482  19.327  68.354  1.00  0.00    -0.271 A  
HETATM    7  C   UNL     1      -5.707  18.719  69.359  1.00  0.00    -0.233 A  
HETATM    8  C   UNL     1      -6.132  20.744  68.026  1.00  0.00    -0.320 C  
HETATM    9  O   UNL     1      -6.898  21.347  67.098  1.00  0.00    -0.552 OA 
HETATM   10  C   UNL     1      -5.936  17.396  69.755  1.00  0.00    -0.245 A  
HETATM   11  O   UNL     1      -5.202  21.327  68.562  1.00  0.00    -0.281 OA 
HETATM   12  C   UNL     1      -6.961  16.650  69.167  1.00  0.00    -0.227 A  
HETATM   13  C   UNL     1      -7.762  17.262  68.195  1.00  0.00    -0.217 A  
HETATM   14  C   UNL     1      -7.218  15.208  69.533  1.00  0.00    -0.204 C  
HETATM   15  F   UNL     1      -8.474  15.020  70.026  1.00  0.00    -0.119 F  
HETATM   16  F   UNL     1      -7.112  14.379  68.459  1.00  0.00    -0.089 F  
HETATM   17  F   UNL     1      -6.366  14.721  70.473  1.00  0.00    -0.160 F  
ENDBRANCH   4   5
ENDBRANCH   2   4
TORSDOF 2
ENDMDL
MODEL      146
REMARK 921   NORMALIZED FREE ENERGY PREDICTED BY IDOCK:   -3.52 KCAL/MOL
REMARK 922        TOTAL FREE ENERGY PREDICTED BY IDOCK:   -4.17 KCAL/MOL
REMARK 923 INTER-LIGAND FREE ENERGY PREDICTED BY IDOCK:   -4.09 KCAL/MOL
REMARK 924 INTRA-LIGAND FREE ENERGY PREDICTED BY IDOCK:   -0.08 KCAL/MOL
REMARK 927      BINDING AFFINITY PREDICTED BY RF-SCORE:    0.00 PKD
ROOT
HETATM    1  C   UNL     1     -10.348   7.931  67.068  1.00  0.00    -0.411 C  
HETATM    2  C   UNL     1     -10.286   9.344  67.561  1.00  0.00    -0.255 C  
HETATM    3  O   UNL     1     -10.644   9.708  68.672  1.00  0.00    -0.210 OA 
ENDROOT
BRANCH   2   4
HETATM    4  O   UNL     1      -9.799  10.170  66.540  1.00  0.00    -0.193 OA 
BRANCH   4   5
HETATM    5  C   UNL     1      -9.582  11.525  66.880  1.00  0.00    -0.187 A  
HETATM    6  C   UNL     1      -8.288  12.062  66.932  1.00  0.00    -0.159 A  
HETATM    7  C   UNL     1      -8.153  13.437  67.200  1.00  0.00    -0.096 A  
HETATM    8  C   UNL     1      -7.014  11.310  66.713  1.00  0.00    -0.141 C  
HETATM    9  O   UNL     1      -7.137  10.005  66.411  1.00  0.00    -0.095 OA 
HETATM   10  C   UNL     1      -9.272  14.249  67.423  1.00  0.00    -0.200 A  
HETATM   11  O   UNL     1      -5.919  11.843  66.807  1.00  0.00    -0.149 OA 
HETATM   12  C   UNL     1     -10.560  13.709  67.365  1.00  0.00    -0.260 A  
HETATM   13  C   UNL     1     -10.703  12.350  67.058  1.00  0.00    -0.268 A  
HETATM   14  C   UNL     1     -11.792  14.536  67.638  1.00  0.00    -0.364 C  
HETATM   15  F   UNL     1     -12.639  14.563  66.572  1.00  0.00    -0.411 F  
HETATM   16  F   UNL     1     -12.519  14.047  68.679  1.00  0.00    -0.352 F  
HETATM   17  F   UNL     1     -11.524  15.833  67.942  1.00  0.00    -0.337 F  
ENDBRANCH   4   5
ENDBRANCH   2   4
TORSDOF 2
ENDMDL
MODEL      147
REMARK 921   NORMALIZED FREE ENERGY PREDICTED BY IDOCK:   -3.52 KCAL/MOL
REMARK 922        TOTAL FREE ENERGY PREDICTED BY IDOCK:   -4.17 KCAL/MOL
REMARK 923 INTER-LIGAND FREE ENERGY PREDICTED BY IDOCK:   -3.90 KCAL/MOL
REMARK 924 INTRA-LIGAND FREE ENERGY PREDICTED BY IDOCK:   -0.26 KCAL/MOL
REMARK 927      BINDING AFFINITY PREDICTED BY RF-SCORE:    0.00 PKD
ROOT
HETATM    1  C   UNL     1      -9.524   7.749  69.667  1.00  0.00    -0.156 C  
HETATM    2  C   UNL     1      -9.719   7.603  68.189  1.00  0.00    -0.153 C  
HETATM    3  O   UNL     1     -10.497   6.819  67.666  1.00  0.00    -0.178 OA 
ENDROOT
BRANCH   2   4
HETATM    4  O   UNL     1      -8.845   8.470  67.519  1.00  0.00    -0.134 OA 
BRANCH   4   5
HETATM    5  C   UNL     1      -9.434   9.594  66.897  1.00  0.00    -0.153 A  
HETATM    6  C   UNL     1      -9.375   9.768  65.507  1.00  0.00    -0.299 A  
HETATM    7  C   UNL     1     -10.051  10.869  64.950  1.00  0.00    -0.374 A  
HETATM    8  C   UNL     1      -8.665   8.879  64.538  1.00  0.00    -0.086 C  
HETATM    9  O   UNL     1      -8.054   7.798  65.059  1.00  0.00    -0.131 OA 
HETATM   10  C   UNL     1     -10.754  11.776  65.753  1.00  0.00    -0.328 A  
HETATM   11  O   UNL     1      -8.631   9.115  63.340  1.00  0.00    -0.201 OA 
HETATM   12  C   UNL     1     -10.813  11.594  67.137  1.00  0.00    -0.306 A  
HETATM   13  C   UNL     1     -10.176  10.478  67.694  1.00  0.00    -0.234 A  
HETATM   14  C   UNL     1     -11.523  12.567  68.047  1.00  0.00    -0.317 C  
HETATM   15  F   UNL     1     -12.529  11.975  68.748  1.00  0.00    -0.224 F  
HETATM   16  F   UNL     1     -10.688  13.105  68.977  1.00  0.00    -0.242 F  
HETATM   17  F   UNL     1     -12.085  13.618  67.393  1.00  0.00    -0.389 F  
ENDBRANCH   4   5
ENDBRANCH   2   4
TORSDOF 2
ENDMDL
MODEL      148
REMARK 921   NORMALIZED FREE ENERGY PREDICTED BY IDOCK:   -3.48 KCAL/MOL
REMARK 922        TOTAL FREE ENERGY PREDICTED BY IDOCK:   -4.12 KCAL/MOL
REMARK 923 INTER-LIGAND FREE ENERGY PREDICTED BY IDOCK:   -3.75 KCAL/MOL
REMARK 924 INTRA-LIGAND FREE ENERGY PREDICTED BY IDOCK:   -0.37 KCAL/MOL
REMARK 927      BINDING AFFINITY PREDICTED BY RF-SCORE:    0.00 PKD
ROOT
HETATM    1  C   UNL     1      -7.939  12.566  67.531  1.00  0.00    -0.175 C  
HETATM    2  C   UNL     1      -9.422  12.770  67.484  1.00  0.00    -0.187 C  
HETATM    3  O   UNL     1     -10.016  13.681  68.043  1.00  0.00    -0.232 OA 
ENDROOT
BRANCH   2   4
HETATM    4  O   UNL     1     -10.009  11.736  66.742  1.00  0.00    -0.198 OA 
BRANCH   4   5
HETATM    5  C   UNL     1     -10.104  10.481  67.383  1.00  0.00    -0.197 A  
HETATM    6  C   UNL     1      -9.567   9.325  66.798  1.00  0.00    -0.240 A  
HETATM    7  C   UNL     1      -9.629   8.124  67.530  1.00  0.00    -0.196 A  
HETATM    8  C   UNL     1      -8.912   9.240  65.457  1.00  0.00    -0.205 C  
HETATM    9  O   UNL     1      -8.809  10.393  64.771  1.00  0.00    -0.175 OA 
HETATM   10  C   UNL     1     -10.218   8.074  68.799  1.00  0.00    -0.220 A  
HETATM   11  O   UNL     1      -8.497   8.186  65.000  1.00  0.00    -0.157 OA 
HETATM   12  C   UNL     1     -10.746   9.230  69.379  1.00  0.00    -0.222 A  
HETATM   13  C   UNL     1     -10.652  10.436  68.673  1.00  0.00    -0.234 A  
HETATM   14  C   UNL     1     -11.427   9.216  70.726  1.00  0.00    -0.282 C  
HETATM   15  F   UNL     1     -10.808  10.033  71.623  1.00  0.00    -0.280 F  
HETATM   16  F   UNL     1     -12.716   9.649  70.656  1.00  0.00    -0.299 F  
HETATM   17  F   UNL     1     -11.473   7.986  71.303  1.00  0.00    -0.253 F  
ENDBRANCH   4   5
ENDBRANCH   2   4
TORSDOF 2
ENDMDL
MODEL      149
REMARK 921   NORMALIZED FREE ENERGY PREDICTED BY IDOCK:   -3.47 KCAL/MOL
REMARK 922        TOTAL FREE ENERGY PREDICTED BY IDOCK:   -4.11 KCAL/MOL
REMARK 923 INTER-LIGAND FREE ENERGY PREDICTED BY IDOCK:   -4.18 KCAL/MOL
REMARK 924 INTRA-LIGAND FREE ENERGY PREDICTED BY IDOCK:    0.07 KCAL/MOL
REMARK 927      BINDING AFFINITY PREDICTED BY RF-SCORE:    0.00 PKD
ROOT
HETATM    1  C   UNL     1      -9.092  17.090  68.770  1.00  0.00    -0.252 C  
HETATM    2  C   UNL     1      -8.147  17.529  67.694  1.00  0.00    -0.207 C  
HETATM    3  O   UNL     1      -7.049  18.026  67.895  1.00  0.00    -0.208 OA 
ENDROOT
BRANCH   2   4
HETATM    4  O   UNL     1      -8.740  17.317  66.442  1.00  0.00    -0.247 OA 
BRANCH   4   5
HETATM    5  C   UNL     1      -9.258  16.023  66.206  1.00  0.00    -0.333 A  
HETATM    6  C   UNL     1     -10.388  15.830  65.399  1.00  0.00    -0.417 A  
HETATM    7  C   UNL     1     -10.801  14.509  65.144  1.00  0.00    -0.407 A  
HETATM    8  C   UNL     1     -11.208  16.906  64.761  1.00  0.00     0.169 C  
HETATM    9  O   UNL     1     -10.793  18.170  64.964  1.00  0.00    -0.707 OA 
HETATM   10  C   UNL     1     -10.116  13.415  65.685  1.00  0.00    -0.285 A  
HETATM   11  O   UNL     1     -12.202  16.660  64.096  1.00  0.00    -0.409 OA 
HETATM   12  C   UNL     1      -8.987  13.613  66.484  1.00  0.00    -0.068 A  
HETATM   13  C   UNL     1      -8.547  14.923  66.709  1.00  0.00    -0.256 A  
HETATM   14  C   UNL     1      -8.241  12.466  67.123  1.00  0.00    -0.176 C  
HETATM   15  F   UNL     1      -6.941  12.412  66.721  1.00  0.00    -0.094 F  
HETATM   16  F   UNL     1      -8.209  12.566  68.479  1.00  0.00    -0.150 F  
HETATM   17  F   UNL     1      -8.773  11.246  66.846  1.00  0.00    -0.140 F  
ENDBRANCH   4   5
ENDBRANCH   2   4
TORSDOF 2
ENDMDL
MODEL      150
REMARK 921   NORMALIZED FREE ENERGY PREDICTED BY IDOCK:   -3.45 KCAL/MOL
REMARK 922        TOTAL FREE ENERGY PREDICTED BY IDOCK:   -4.09 KCAL/MOL
REMARK 923 INTER-LIGAND FREE ENERGY PREDICTED BY IDOCK:   -3.73 KCAL/MOL
REMARK 924 INTRA-LIGAND FREE ENERGY PREDICTED BY IDOCK:   -0.36 KCAL/MOL
REMARK 927      BINDING AFFINITY PREDICTED BY RF-SCORE:    0.00 PKD
ROOT
HETATM    1  C   UNL     1     -10.787   5.898  72.341  1.00  0.00    -0.288 C  
HETATM    2  C   UNL     1     -11.361   6.712  71.222  1.00  0.00    -0.299 C  
HETATM    3  O   UNL     1     -12.522   6.653  70.845  1.00  0.00    -0.325 OA 
ENDROOT
BRANCH   2   4
HETATM    4  O   UNL     1     -10.351   7.507  70.663  1.00  0.00    -0.206 OA 
BRANCH   4   5
HETATM    5  C   UNL     1     -10.258   7.501  69.253  1.00  0.00    -0.201 A  
HETATM    6  C   UNL     1     -10.505   8.660  68.505  1.00  0.00    -0.209 A  
HETATM    7  C   UNL     1     -10.316   8.600  67.111  1.00  0.00    -0.369 A  
HETATM    8  C   UNL     1     -10.946   9.981  69.048  1.00  0.00    -0.212 C  
HETATM    9  O   UNL     1     -11.085  10.059  70.384  1.00  0.00    -0.280 OA 
HETATM   10  C   UNL     1      -9.905   7.418  66.482  1.00  0.00    -0.209 A  
HETATM   11  O   UNL     1     -11.174  10.940  68.326  1.00  0.00    -0.241 OA 
HETATM   12  C   UNL     1      -9.655   6.268  67.235  1.00  0.00    -0.138 A  
HETATM   13  C   UNL     1      -9.802   6.332  68.626  1.00  0.00    -0.152 A  
HETATM   14  C   UNL     1      -9.250   4.961  66.596  1.00  0.00    -0.126 C  
HETATM   15  F   UNL     1      -8.038   4.526  67.040  1.00  0.00    -0.099 F  
HETATM   16  F   UNL     1     -10.129   3.960  66.873  1.00  0.00    -0.230 F  
HETATM   17  F   UNL     1      -9.159   5.019  65.241  1.00  0.00    -0.148 F  
ENDBRANCH   4   5
ENDBRANCH   2   4
TORSDOF 2
ENDMDL
MODEL      151
REMARK 921   NORMALIZED FREE ENERGY PREDICTED BY IDOCK:   -3.44 KCAL/MOL
REMARK 922        TOTAL FREE ENERGY PREDICTED BY IDOCK:   -4.08 KCAL/MOL
REMARK 923 INTER-LIGAND FREE ENERGY PREDICTED BY IDOCK:   -3.80 KCAL/MOL
REMARK 924 INTRA-LIGAND FREE ENERGY PREDICTED BY IDOCK:   -0.28 KCAL/MOL
REMARK 927      BINDING AFFINITY PREDICTED BY RF-SCORE:    0.00 PKD
ROOT
HETATM    1  C   UNL     1      -6.890   8.446  62.632  1.00  0.00    -0.090 C  
HETATM    2  C   UNL     1      -6.866   8.679  64.111  1.00  0.00    -0.075 C  
HETATM    3  O   UNL     1      -6.022   9.341  64.696  1.00  0.00    -0.067 OA 
ENDROOT
BRANCH   2   4
HETATM    4  O   UNL     1      -7.931   7.988  64.706  1.00  0.00    -0.130 OA 
BRANCH   4   5
HETATM    5  C   UNL     1      -8.873   8.774  65.407  1.00  0.00    -0.178 A  
HETATM    6  C   UNL     1      -9.215   8.485  66.735  1.00  0.00    -0.215 A  
HETATM    7  C   UNL     1     -10.100   9.357  67.395  1.00  0.00    -0.271 A  
HETATM    8  C   UNL     1      -8.715   7.328  67.540  1.00  0.00    -0.121 C  
HETATM    9  O   UNL     1      -7.833   6.515  66.930  1.00  0.00    -0.104 OA 
HETATM   10  C   UNL     1     -10.638  10.476  66.748  1.00  0.00    -0.284 A  
HETATM   11  O   UNL     1      -9.086   7.122  68.686  1.00  0.00    -0.134 OA 
HETATM   12  C   UNL     1     -10.289  10.763  65.426  1.00  0.00    -0.315 A  
HETATM   13  C   UNL     1      -9.377   9.922  64.776  1.00  0.00    -0.339 A  
HETATM   14  C   UNL     1     -10.875  11.934  64.675  1.00  0.00    -0.311 C  
HETATM   15  F   UNL     1      -9.916  12.808  64.257  1.00  0.00    -0.329 F  
HETATM   16  F   UNL     1     -11.539  11.546  63.553  1.00  0.00    -0.488 F  
HETATM   17  F   UNL     1     -11.759  12.664  65.404  1.00  0.00    -0.350 F  
ENDBRANCH   4   5
ENDBRANCH   2   4
TORSDOF 2
ENDMDL
MODEL      152
REMARK 921   NORMALIZED FREE ENERGY PREDICTED BY IDOCK:   -3.43 KCAL/MOL
REMARK 922        TOTAL FREE ENERGY PREDICTED BY IDOCK:   -4.07 KCAL/MOL
REMARK 923 INTER-LIGAND FREE ENERGY PREDICTED BY IDOCK:   -3.66 KCAL/MOL
REMARK 924 INTRA-LIGAND FREE ENERGY PREDICTED BY IDOCK:   -0.41 KCAL/MOL
REMARK 927      BINDING AFFINITY PREDICTED BY RF-SCORE:    0.00 PKD
ROOT
HETATM    1  C   UNL     1      -9.050   5.142  70.289  1.00  0.00    -0.164 C  
HETATM    2  C   UNL     1     -10.482   5.570  70.375  1.00  0.00    -0.286 C  
HETATM    3  O   UNL     1     -11.088   5.763  71.419  1.00  0.00    -0.263 OA 
ENDROOT
BRANCH   2   4
HETATM    4  O   UNL     1     -11.014   5.671  69.082  1.00  0.00    -0.274 OA 
BRANCH   4   5
HETATM    5  C   UNL     1     -10.626   6.804  68.333  1.00  0.00    -0.227 A  
HETATM    6  C   UNL     1     -10.032   6.670  67.070  1.00  0.00    -0.223 A  
HETATM    7  C   UNL     1      -9.745   7.843  66.347  1.00  0.00    -0.235 A  
HETATM    8  C   UNL     1      -9.677   5.383  66.397  1.00  0.00    -0.166 C  
HETATM    9  O   UNL     1      -9.991   4.257  67.063  1.00  0.00    -0.206 OA 
HETATM   10  C   UNL     1     -10.029   9.110  66.871  1.00  0.00    -0.304 A  
HETATM   11  O   UNL     1      -9.129   5.348  65.305  1.00  0.00    -0.141 OA 
HETATM   12  C   UNL     1     -10.627   9.237  68.127  1.00  0.00    -0.248 A  
HETATM   13  C   UNL     1     -10.952   8.073  68.835  1.00  0.00     0.114 A  
HETATM   14  C   UNL     1     -10.914  10.582  68.749  1.00  0.00    -0.251 C  
HETATM   15  F   UNL     1     -12.240  10.756  69.006  1.00  0.00    -0.375 F  
HETATM   16  F   UNL     1     -10.279  10.743  69.942  1.00  0.00    -0.224 F  
HETATM   17  F   UNL     1     -10.537  11.634  67.976  1.00  0.00    -0.188 F  
ENDBRANCH   4   5
ENDBRANCH   2   4
TORSDOF 2
ENDMDL
MODEL      153
REMARK 921   NORMALIZED FREE ENERGY PREDICTED BY IDOCK:   -3.41 KCAL/MOL
REMARK 922        TOTAL FREE ENERGY PREDICTED BY IDOCK:   -4.04 KCAL/MOL
REMARK 923 INTER-LIGAND FREE ENERGY PREDICTED BY IDOCK:   -4.08 KCAL/MOL
REMARK 924 INTRA-LIGAND FREE ENERGY PREDICTED BY IDOCK:    0.04 KCAL/MOL
REMARK 927      BINDING AFFINITY PREDICTED BY RF-SCORE:    0.00 PKD
ROOT
HETATM    1  C   UNL     1     -13.902  14.538  71.942  1.00  0.00    -0.545 C  
HETATM    2  C   UNL     1     -13.115  13.496  71.209  1.00  0.00    -0.262 C  
HETATM    3  O   UNL     1     -12.731  12.444  71.699  1.00  0.00    -0.289 OA 
ENDROOT
BRANCH   2   4
HETATM    4  O   UNL     1     -12.862  13.939  69.904  1.00  0.00    -0.113 OA 
BRANCH   4   5
HETATM    5  C   UNL     1     -11.683  13.451  69.295  1.00  0.00    -0.330 A  
HETATM    6  C   UNL     1     -10.549  14.262  69.156  1.00  0.00    -0.201 A  
HETATM    7  C   UNL     1      -9.386  13.686  68.612  1.00  0.00    -0.057 A  
HETATM    8  C   UNL     1     -10.443  15.702  69.547  1.00  0.00    -0.270 C  
HETATM    9  O   UNL     1     -11.537  16.247  70.110  1.00  0.00    -0.289 OA 
HETATM   10  C   UNL     1      -9.358  12.345  68.207  1.00  0.00    -0.199 A  
HETATM   11  O   UNL     1      -9.427  16.354  69.364  1.00  0.00    -0.222 OA 
HETATM   12  C   UNL     1     -10.491  11.540  68.353  1.00  0.00    -0.226 A  
HETATM   13  C   UNL     1     -11.638  12.097  68.931  1.00  0.00    -0.377 A  
HETATM   14  C   UNL     1     -10.520  10.103  67.893  1.00  0.00    -0.222 C  
HETATM   15  F   UNL     1     -10.780   9.242  68.916  1.00  0.00    -0.226 F  
HETATM   16  F   UNL     1     -11.489   9.880  66.964  1.00  0.00    -0.111 F  
HETATM   17  F   UNL     1      -9.355   9.683  67.333  1.00  0.00    -0.139 F  
ENDBRANCH   4   5
ENDBRANCH   2   4
TORSDOF 2
ENDMDL
MODEL      154
REMARK 921   NORMALIZED FREE ENERGY PREDICTED BY IDOCK:   -3.39 KCAL/MOL
REMARK 922        TOTAL FREE ENERGY PREDICTED BY IDOCK:   -4.02 KCAL/MOL
REMARK 923 INTER-LIGAND FREE ENERGY PREDICTED BY IDOCK:   -4.10 KCAL/MOL
REMARK 924 INTRA-LIGAND FREE ENERGY PREDICTED BY IDOCK:    0.08 KCAL/MOL
REMARK 927      BINDING AFFINITY PREDICTED BY RF-SCORE:    0.00 PKD
ROOT
HETATM    1  C   UNL     1      -9.983   6.226  73.644  1.00  0.00    -0.218 C  
HETATM    2  C   UNL     1     -10.500   7.569  73.229  1.00  0.00    -0.371 C  
HETATM    3  O   UNL     1     -11.671   7.915  73.300  1.00  0.00    -0.201 OA 
ENDROOT
BRANCH   2   4
HETATM    4  O   UNL     1      -9.444   8.334  72.716  1.00  0.00    -0.260 OA 
BRANCH   4   5
HETATM    5  C   UNL     1      -9.622   8.855  71.414  1.00  0.00    -0.289 A  
HETATM    6  C   UNL     1      -8.833   8.415  70.342  1.00  0.00    -0.149 A  
HETATM    7  C   UNL     1      -9.120   8.919  69.060  1.00  0.00    -0.137 A  
HETATM    8  C   UNL     1      -7.705   7.437  70.423  1.00  0.00    -0.093 C  
HETATM    9  O   UNL     1      -7.455   6.916  71.639  1.00  0.00    -0.084 OA 
HETATM   10  C   UNL     1     -10.153   9.842  68.854  1.00  0.00    -0.194 A  
HETATM   11  O   UNL     1      -7.040   7.127  69.447  1.00  0.00    -0.071 OA 
HETATM   12  C   UNL     1     -10.939  10.273  69.926  1.00  0.00    -0.358 A  
HETATM   13  C   UNL     1     -10.686   9.744  71.198  1.00  0.00    -0.284 A  
HETATM   14  C   UNL     1     -12.036  11.297  69.759  1.00  0.00    -0.360 C  
HETATM   15  F   UNL     1     -13.254  10.808  70.122  1.00  0.00    -0.269 F  
HETATM   16  F   UNL     1     -11.832  12.399  70.530  1.00  0.00    -0.402 F  
HETATM   17  F   UNL     1     -12.173  11.748  68.484  1.00  0.00    -0.363 F  
ENDBRANCH   4   5
ENDBRANCH   2   4
TORSDOF 2
ENDMDL
MODEL      155
REMARK 921   NORMALIZED FREE ENERGY PREDICTED BY IDOCK:   -3.38 KCAL/MOL
REMARK 922        TOTAL FREE ENERGY PREDICTED BY IDOCK:   -4.02 KCAL/MOL
REMARK 923 INTER-LIGAND FREE ENERGY PREDICTED BY IDOCK:   -4.31 KCAL/MOL
REMARK 924 INTRA-LIGAND FREE ENERGY PREDICTED BY IDOCK:    0.29 KCAL/MOL
REMARK 927      BINDING AFFINITY PREDICTED BY RF-SCORE:    0.00 PKD
ROOT
HETATM    1  C   UNL     1      -6.560  11.649  67.996  1.00  0.00    -0.062 C  
HETATM    2  C   UNL     1      -7.469  10.742  68.768  1.00  0.00    -0.109 C  
HETATM    3  O   UNL     1      -7.306  10.428  69.938  1.00  0.00    -0.151 OA 
ENDROOT
BRANCH   2   4
HETATM    4  O   UNL     1      -8.495  10.290  67.927  1.00  0.00    -0.117 OA 
BRANCH   4   5
HETATM    5  C   UNL     1      -9.593  11.163  67.755  1.00  0.00    -0.172 A  
HETATM    6  C   UNL     1     -10.727  11.072  68.574  1.00  0.00    -0.236 A  
HETATM    7  C   UNL     1     -11.748  12.024  68.396  1.00  0.00    -0.390 A  
HETATM    8  C   UNL     1     -10.961  10.055  69.644  1.00  0.00    -0.264 C  
HETATM    9  O   UNL     1      -9.969   9.169  69.850  1.00  0.00    -0.180 OA 
HETATM   10  C   UNL     1     -11.648  13.028  67.425  1.00  0.00    -0.407 A  
HETATM   11  O   UNL     1     -11.993  10.020  70.297  1.00  0.00    -0.249 OA 
HETATM   12  C   UNL     1     -10.512  13.116  66.616  1.00  0.00    -0.280 A  
HETATM   13  C   UNL     1      -9.475  12.197  66.814  1.00  0.00    -0.213 A  
HETATM   14  C   UNL     1     -10.378  14.155  65.529  1.00  0.00    -0.351 C  
HETATM   15  F   UNL     1      -9.301  14.966  65.723  1.00  0.00    -0.332 F  
HETATM   16  F   UNL     1     -10.206  13.595  64.300  1.00  0.00    -0.450 F  
HETATM   17  F   UNL     1     -11.455  14.977  65.421  1.00  0.00    -0.342 F  
ENDBRANCH   4   5
ENDBRANCH   2   4
TORSDOF 2
ENDMDL
MODEL      156
REMARK 921   NORMALIZED FREE ENERGY PREDICTED BY IDOCK:   -3.36 KCAL/MOL
REMARK 922        TOTAL FREE ENERGY PREDICTED BY IDOCK:   -3.99 KCAL/MOL
REMARK 923 INTER-LIGAND FREE ENERGY PREDICTED BY IDOCK:   -3.67 KCAL/MOL
REMARK 924 INTRA-LIGAND FREE ENERGY PREDICTED BY IDOCK:   -0.32 KCAL/MOL
REMARK 927      BINDING AFFINITY PREDICTED BY RF-SCORE:    0.00 PKD
ROOT
HETATM    1  C   UNL     1      -7.871   6.938  67.061  1.00  0.00    -0.111 C  
HETATM    2  C   UNL     1      -9.199   7.369  67.603  1.00  0.00    -0.127 C  
HETATM    3  O   UNL     1     -10.273   6.883  67.278  1.00  0.00    -0.174 OA 
ENDROOT
BRANCH   2   4
HETATM    4  O   UNL     1      -9.012   8.432  68.496  1.00  0.00    -0.136 OA 
BRANCH   4   5
HETATM    5  C   UNL     1      -9.795   8.407  69.672  1.00  0.00    -0.184 A  
HETATM    6  C   UNL     1     -10.812   9.348  69.887  1.00  0.00    -0.259 A  
HETATM    7  C   UNL     1     -11.604   9.214  71.043  1.00  0.00    -0.370 A  
HETATM    8  C   UNL     1     -11.155  10.493  68.989  1.00  0.00    -0.249 C  
HETATM    9  O   UNL     1     -10.432  10.601  67.859  1.00  0.00    -0.184 OA 
HETATM   10  C   UNL     1     -11.381   8.182  71.962  1.00  0.00    -0.378 A  
HETATM   11  O   UNL     1     -12.037  11.294  69.261  1.00  0.00    -0.334 OA 
HETATM   12  C   UNL     1     -10.369   7.244  71.740  1.00  0.00    -0.215 A  
HETATM   13  C   UNL     1      -9.604   7.348  70.572  1.00  0.00    -0.172 A  
HETATM   14  C   UNL     1     -10.066   6.140  72.724  1.00  0.00    -0.180 C  
HETATM   15  F   UNL     1     -10.209   4.904  72.169  1.00  0.00    -0.218 F  
HETATM   16  F   UNL     1      -8.786   6.196  73.182  1.00  0.00    -0.121 F  
HETATM   17  F   UNL     1     -10.862   6.154  73.825  1.00  0.00    -0.256 F  
ENDBRANCH   4   5
ENDBRANCH   2   4
TORSDOF 2
ENDMDL
MODEL      157
REMARK 921   NORMALIZED FREE ENERGY PREDICTED BY IDOCK:   -3.33 KCAL/MOL
REMARK 922        TOTAL FREE ENERGY PREDICTED BY IDOCK:   -3.95 KCAL/MOL
REMARK 923 INTER-LIGAND FREE ENERGY PREDICTED BY IDOCK:   -4.18 KCAL/MOL
REMARK 924 INTRA-LIGAND FREE ENERGY PREDICTED BY IDOCK:    0.22 KCAL/MOL
REMARK 927      BINDING AFFINITY PREDICTED BY RF-SCORE:    0.00 PKD
ROOT
HETATM    1  C   UNL     1     -12.547  13.756  70.844  1.00  0.00    -0.428 C  
HETATM    2  C   UNL     1     -12.236  12.390  70.314  1.00  0.00    -0.267 C  
HETATM    3  O   UNL     1     -12.139  11.384  71.002  1.00  0.00    -0.318 OA 
ENDROOT
BRANCH   2   4
HETATM    4  O   UNL     1     -12.036  12.465  68.929  1.00  0.00    -0.303 OA 
BRANCH   4   5
HETATM    5  C   UNL     1     -10.856  13.113  68.501  1.00  0.00    -0.262 A  
HETATM    6  C   UNL     1      -9.748  12.381  68.050  1.00  0.00    -0.210 A  
HETATM    7  C   UNL     1      -8.637  13.095  67.565  1.00  0.00    -0.196 A  
HETATM    8  C   UNL     1      -9.632  10.891  68.020  1.00  0.00    -0.162 C  
HETATM    9  O   UNL     1     -10.708  10.201  68.441  1.00  0.00    -0.204 OA 
HETATM   10  C   UNL     1      -8.624  14.495  67.541  1.00  0.00    -0.198 A  
HETATM   11  O   UNL     1      -8.618  10.323  67.642  1.00  0.00    -0.118 OA 
HETATM   12  C   UNL     1      -9.733  15.219  67.987  1.00  0.00    -0.211 A  
HETATM   13  C   UNL     1     -10.858  14.514  68.433  1.00  0.00    -0.250 A  
HETATM   14  C   UNL     1      -9.749  16.728  68.018  1.00  0.00    -0.243 C  
HETATM   15  F   UNL     1     -10.745  17.247  67.248  1.00  0.00    -0.337 F  
HETATM   16  F   UNL     1      -9.956  17.214  69.272  1.00  0.00    -0.266 F  
HETATM   17  F   UNL     1      -8.595  17.297  67.578  1.00  0.00    -0.201 F  
ENDBRANCH   4   5
ENDBRANCH   2   4
TORSDOF 2
ENDMDL
MODEL      158
REMARK 921   NORMALIZED FREE ENERGY PREDICTED BY IDOCK:   -3.32 KCAL/MOL
REMARK 922        TOTAL FREE ENERGY PREDICTED BY IDOCK:   -3.95 KCAL/MOL
REMARK 923 INTER-LIGAND FREE ENERGY PREDICTED BY IDOCK:   -4.09 KCAL/MOL
REMARK 924 INTRA-LIGAND FREE ENERGY PREDICTED BY IDOCK:    0.14 KCAL/MOL
REMARK 927      BINDING AFFINITY PREDICTED BY RF-SCORE:    0.00 PKD
ROOT
HETATM    1  C   UNL     1     -11.556  12.228  65.505  1.00  0.00    -0.422 C  
HETATM    2  C   UNL     1     -10.377  11.315  65.364  1.00  0.00    -0.272 C  
HETATM    3  O   UNL     1     -10.156  10.612  64.388  1.00  0.00    -0.325 OA 
ENDROOT
BRANCH   2   4
HETATM    4  O   UNL     1      -9.607  11.368  66.533  1.00  0.00    -0.189 OA 
BRANCH   4   5
HETATM    5  C   UNL     1     -10.120  10.674  67.652  1.00  0.00    -0.177 A  
HETATM    6  C   UNL     1     -10.702  11.360  68.727  1.00  0.00    -0.240 A  
HETATM    7  C   UNL     1     -11.262  10.599  69.771  1.00  0.00    -0.363 A  
HETATM    8  C   UNL     1     -10.801  12.844  68.874  1.00  0.00    -0.200 C  
HETATM    9  O   UNL     1     -10.308  13.577  67.858  1.00  0.00    -0.238 OA 
HETATM   10  C   UNL     1     -11.232   9.200  69.750  1.00  0.00    -0.073 A  
HETATM   11  O   UNL     1     -11.296  13.371  69.859  1.00  0.00    -0.154 OA 
HETATM   12  C   UNL     1     -10.655   8.522  68.673  1.00  0.00    -0.154 A  
HETATM   13  C   UNL     1     -10.132   9.271  67.612  1.00  0.00    -0.266 A  
HETATM   14  C   UNL     1     -10.563   7.016  68.627  1.00  0.00    -0.210 C  
HETATM   15  F   UNL     1     -11.214   6.494  67.550  1.00  0.00    -0.371 F  
HETATM   16  F   UNL     1      -9.277   6.582  68.530  1.00  0.00    -0.128 F  
HETATM   17  F   UNL     1     -11.087   6.402  69.720  1.00  0.00    -0.302 F  
ENDBRANCH   4   5
ENDBRANCH   2   4
TORSDOF 2
ENDMDL
MODEL      159
REMARK 921   NORMALIZED FREE ENERGY PREDICTED BY IDOCK:   -3.32 KCAL/MOL
REMARK 922        TOTAL FREE ENERGY PREDICTED BY IDOCK:   -3.94 KCAL/MOL
REMARK 923 INTER-LIGAND FREE ENERGY PREDICTED BY IDOCK:   -3.98 KCAL/MOL
REMARK 924 INTRA-LIGAND FREE ENERGY PREDICTED BY IDOCK:    0.04 KCAL/MOL
REMARK 927      BINDING AFFINITY PREDICTED BY RF-SCORE:    0.00 PKD
ROOT
HETATM    1  C   UNL     1      -8.756   7.136  65.601  1.00  0.00    -0.088 C  
HETATM    2  C   UNL     1      -9.148   8.360  66.369  1.00  0.00    -0.187 C  
HETATM    3  O   UNL     1      -8.411   9.313  66.580  1.00  0.00    -0.124 OA 
ENDROOT
BRANCH   2   4
HETATM    4  O   UNL     1     -10.463   8.216  66.832  1.00  0.00    -0.328 OA 
BRANCH   4   5
HETATM    5  C   UNL     1     -10.782   8.892  68.031  1.00  0.00    -0.108 A  
HETATM    6  C   UNL     1     -10.851   8.208  69.253  1.00  0.00    -0.064 A  
HETATM    7  C   UNL     1     -11.096   8.958  70.418  1.00  0.00    -0.270 A  
HETATM    8  C   UNL     1     -10.674   6.736  69.448  1.00  0.00    -0.255 C  
HETATM    9  O   UNL     1     -10.395   6.018  68.345  1.00  0.00    -0.166 OA 
HETATM   10  C   UNL     1     -11.279  10.345  70.366  1.00  0.00    -0.399 A  
HETATM   11  O   UNL     1     -10.782   6.206  70.544  1.00  0.00    -0.240 OA 
HETATM   12  C   UNL     1     -11.204  11.022  69.146  1.00  0.00    -0.318 A  
HETATM   13  C   UNL     1     -10.920  10.287  67.988  1.00  0.00    -0.345 A  
HETATM   14  C   UNL     1     -11.435  12.510  69.035  1.00  0.00    -0.304 C  
HETATM   15  F   UNL     1     -10.350  13.162  68.532  1.00  0.00    -0.233 F  
HETATM   16  F   UNL     1     -12.469  12.809  68.203  1.00  0.00    -0.192 F  
HETATM   17  F   UNL     1     -11.720  13.109  70.222  1.00  0.00    -0.361 F  
ENDBRANCH   4   5
ENDBRANCH   2   4
TORSDOF 2
ENDMDL
MODEL      160
REMARK 921   NORMALIZED FREE ENERGY PREDICTED BY IDOCK:   -3.31 KCAL/MOL
REMARK 922        TOTAL FREE ENERGY PREDICTED BY IDOCK:   -3.93 KCAL/MOL
REMARK 923 INTER-LIGAND FREE ENERGY PREDICTED BY IDOCK:   -3.74 KCAL/MOL
REMARK 924 INTRA-LIGAND FREE ENERGY PREDICTED BY IDOCK:   -0.20 KCAL/MOL
REMARK 927      BINDING AFFINITY PREDICTED BY RF-SCORE:    0.00 PKD
ROOT
HETATM    1  C   UNL     1     -10.642   5.716  66.508  1.00  0.00    -0.320 C  
HETATM    2  C   UNL     1     -10.291   7.073  67.036  1.00  0.00    -0.290 C  
HETATM    3  O   UNL     1     -10.871   7.631  67.956  1.00  0.00    -0.127 OA 
ENDROOT
BRANCH   2   4
HETATM    4  O   UNL     1      -9.233   7.602  66.286  1.00  0.00    -0.174 OA 
BRANCH   4   5
HETATM    5  C   UNL     1      -9.093   9.008  66.305  1.00  0.00    -0.179 A  
HETATM    6  C   UNL     1      -8.167   9.634  67.151  1.00  0.00    -0.120 A  
HETATM    7  C   UNL     1      -8.027  11.031  67.060  1.00  0.00    -0.137 A  
HETATM    8  C   UNL     1      -7.287   8.952  68.150  1.00  0.00    -0.084 C  
HETATM    9  O   UNL     1      -7.383   7.611  68.211  1.00  0.00    -0.093 OA 
HETATM   10  C   UNL     1      -8.795  11.783  66.163  1.00  0.00    -0.107 A  
HETATM   11  O   UNL     1      -6.525   9.571  68.878  1.00  0.00    -0.046 OA 
HETATM   12  C   UNL     1      -9.713  11.154  65.319  1.00  0.00    -0.285 A  
HETATM   13  C   UNL     1      -9.828   9.759  65.376  1.00  0.00    -0.365 A  
HETATM   14  C   UNL     1     -10.591  11.927  64.366  1.00  0.00    -0.319 C  
HETATM   15  F   UNL     1     -10.388  11.563  63.069  1.00  0.00    -0.350 F  
HETATM   16  F   UNL     1     -11.915  11.724  64.606  1.00  0.00    -0.361 F  
HETATM   17  F   UNL     1     -10.401  13.272  64.415  1.00  0.00    -0.377 F  
ENDBRANCH   4   5
ENDBRANCH   2   4
TORSDOF 2
ENDMDL
MODEL      161
REMARK 921   NORMALIZED FREE ENERGY PREDICTED BY IDOCK:   -3.31 KCAL/MOL
REMARK 922        TOTAL FREE ENERGY PREDICTED BY IDOCK:   -3.93 KCAL/MOL
REMARK 923 INTER-LIGAND FREE ENERGY PREDICTED BY IDOCK:   -3.80 KCAL/MOL
REMARK 924 INTRA-LIGAND FREE ENERGY PREDICTED BY IDOCK:   -0.13 KCAL/MOL
REMARK 927      BINDING AFFINITY PREDICTED BY RF-SCORE:    0.00 PKD
ROOT
HETATM    1  C   UNL     1     -10.870   7.285  69.570  1.00  0.00    -0.224 C  
HETATM    2  C   UNL     1     -10.436   8.712  69.442  1.00  0.00    -0.218 C  
HETATM    3  O   UNL     1      -9.616   9.256  70.167  1.00  0.00    -0.188 OA 
ENDROOT
BRANCH   2   4
HETATM    4  O   UNL     1     -11.146   9.321  68.399  1.00  0.00    -0.049 OA 
BRANCH   4   5
HETATM    5  C   UNL     1     -10.439   9.518  67.191  1.00  0.00    -0.253 A  
HETATM    6  C   UNL     1     -10.505  10.737  66.502  1.00  0.00    -0.299 A  
HETATM    7  C   UNL     1      -9.712  10.888  65.350  1.00  0.00    -0.287 A  
HETATM    8  C   UNL     1     -11.338  11.919  66.883  1.00  0.00    -0.330 C  
HETATM    9  O   UNL     1     -12.064  11.797  68.009  1.00  0.00    -0.572 OA 
HETATM   10  C   UNL     1      -8.888   9.853  64.891  1.00  0.00    -0.223 A  
HETATM   11  O   UNL     1     -11.367  12.939  66.211  1.00  0.00    -0.298 OA 
HETATM   12  C   UNL     1      -8.823   8.642  65.584  1.00  0.00    -0.227 A  
HETATM   13  C   UNL     1      -9.579   8.499  66.755  1.00  0.00    -0.273 A  
HETATM   14  C   UNL     1      -7.982   7.484  65.105  1.00  0.00    -0.128 C  
HETATM   15  F   UNL     1      -7.040   7.120  66.019  1.00  0.00    -0.065 F  
HETATM   16  F   UNL     1      -8.727   6.369  64.872  1.00  0.00    -0.098 F  
HETATM   17  F   UNL     1      -7.311   7.737  63.950  1.00  0.00    -0.074 F  
ENDBRANCH   4   5
ENDBRANCH   2   4
TORSDOF 2
ENDMDL
MODEL      162
REMARK 921   NORMALIZED FREE ENERGY PREDICTED BY IDOCK:   -3.29 KCAL/MOL
REMARK 922        TOTAL FREE ENERGY PREDICTED BY IDOCK:   -3.91 KCAL/MOL
REMARK 923 INTER-LIGAND FREE ENERGY PREDICTED BY IDOCK:   -3.64 KCAL/MOL
REMARK 924 INTRA-LIGAND FREE ENERGY PREDICTED BY IDOCK:   -0.28 KCAL/MOL
REMARK 927      BINDING AFFINITY PREDICTED BY RF-SCORE:    0.00 PKD
ROOT
HETATM    1  C   UNL     1     -10.798   6.944  70.186  1.00  0.00    -0.300 C  
HETATM    2  C   UNL     1     -10.369   8.377  70.261  1.00  0.00    -0.205 C  
HETATM    3  O   UNL     1     -11.021   9.270  70.781  1.00  0.00    -0.240 OA 
ENDROOT
BRANCH   2   4
HETATM    4  O   UNL     1      -9.138   8.527  69.610  1.00  0.00    -0.147 OA 
BRANCH   4   5
HETATM    5  C   UNL     1      -8.929   9.752  68.938  1.00  0.00    -0.144 A  
HETATM    6  C   UNL     1      -7.892  10.618  69.312  1.00  0.00    -0.140 A  
HETATM    7  C   UNL     1      -7.695  11.783  68.548  1.00  0.00    -0.137 A  
HETATM    8  C   UNL     1      -6.948  10.418  70.454  1.00  0.00    -0.010 C  
HETATM    9  O   UNL     1      -7.102   9.283  71.162  1.00  0.00    -0.184 OA 
HETATM   10  C   UNL     1      -8.514  12.082  67.452  1.00  0.00    -0.170 A  
HETATM   11  O   UNL     1      -6.087  11.236  70.740  1.00  0.00    -0.344 OA 
HETATM   12  C   UNL     1      -9.543  11.213  67.081  1.00  0.00    -0.192 A  
HETATM   13  C   UNL     1      -9.719  10.032  67.813  1.00  0.00    -0.174 A  
HETATM   14  C   UNL     1     -10.477  11.515  65.934  1.00  0.00    -0.255 C  
HETATM   15  F   UNL     1     -10.425  10.559  64.965  1.00  0.00    -0.374 F  
HETATM   16  F   UNL     1     -11.777  11.573  66.330  1.00  0.00    -0.345 F  
HETATM   17  F   UNL     1     -10.218  12.697  65.314  1.00  0.00    -0.277 F  
ENDBRANCH   4   5
ENDBRANCH   2   4
TORSDOF 2
ENDMDL
MODEL      163
REMARK 921   NORMALIZED FREE ENERGY PREDICTED BY IDOCK:   -3.27 KCAL/MOL
REMARK 922        TOTAL FREE ENERGY PREDICTED BY IDOCK:   -3.89 KCAL/MOL
REMARK 923 INTER-LIGAND FREE ENERGY PREDICTED BY IDOCK:   -3.89 KCAL/MOL
REMARK 924 INTRA-LIGAND FREE ENERGY PREDICTED BY IDOCK:   -0.00 KCAL/MOL
REMARK 927      BINDING AFFINITY PREDICTED BY RF-SCORE:    0.00 PKD
ROOT
HETATM    1  C   UNL     1     -11.841   5.737  72.526  1.00  0.00    -0.222 C  
HETATM    2  C   UNL     1     -11.742   6.805  71.481  1.00  0.00    -0.317 C  
HETATM    3  O   UNL     1     -12.630   7.604  71.220  1.00  0.00    -0.323 OA 
ENDROOT
BRANCH   2   4
HETATM    4  O   UNL     1     -10.502   6.710  70.836  1.00  0.00    -0.210 OA 
BRANCH   4   5
HETATM    5  C   UNL     1      -9.938   7.923  70.381  1.00  0.00    -0.192 A  
HETATM    6  C   UNL     1      -8.879   8.533  71.067  1.00  0.00    -0.212 A  
HETATM    7  C   UNL     1      -8.315   9.698  70.513  1.00  0.00    -0.134 A  
HETATM    8  C   UNL     1      -8.267   8.056  72.346  1.00  0.00    -0.145 C  
HETATM    9  O   UNL     1      -8.771   6.918  72.858  1.00  0.00    -0.123 OA 
HETATM   10  C   UNL     1      -8.800  10.244  69.318  1.00  0.00    -0.186 A  
HETATM   11  O   UNL     1      -7.365   8.662  72.903  1.00  0.00    -0.323 OA 
HETATM   12  C   UNL     1      -9.853   9.629  68.636  1.00  0.00    -0.171 A  
HETATM   13  C   UNL     1     -10.391   8.447  69.161  1.00  0.00    -0.229 A  
HETATM   14  C   UNL     1     -10.436  10.204  67.368  1.00  0.00    -0.256 C  
HETATM   15  F   UNL     1     -10.332   9.342  66.318  1.00  0.00    -0.335 F  
HETATM   16  F   UNL     1     -11.762  10.483  67.492  1.00  0.00    -0.318 F  
HETATM   17  F   UNL     1      -9.843  11.360  66.969  1.00  0.00    -0.194 F  
ENDBRANCH   4   5
ENDBRANCH   2   4
TORSDOF 2
ENDMDL
MODEL      164
REMARK 921   NORMALIZED FREE ENERGY PREDICTED BY IDOCK:   -3.27 KCAL/MOL
REMARK 922        TOTAL FREE ENERGY PREDICTED BY IDOCK:   -3.89 KCAL/MOL
REMARK 923 INTER-LIGAND FREE ENERGY PREDICTED BY IDOCK:   -3.66 KCAL/MOL
REMARK 924 INTRA-LIGAND FREE ENERGY PREDICTED BY IDOCK:   -0.23 KCAL/MOL
REMARK 927      BINDING AFFINITY PREDICTED BY RF-SCORE:    0.00 PKD
ROOT
HETATM    1  C   UNL     1      -5.619  12.596  67.528  1.00  0.00    -0.121 C  
HETATM    2  C   UNL     1      -6.520  13.436  68.380  1.00  0.00    -0.093 C  
HETATM    3  O   UNL     1      -6.567  13.384  69.600  1.00  0.00    -0.094 OA 
ENDROOT
BRANCH   2   4
HETATM    4  O   UNL     1      -7.314  14.245  67.557  1.00  0.00    -0.170 OA 
BRANCH   4   5
HETATM    5  C   UNL     1      -8.461  14.812  68.156  1.00  0.00    -0.149 A  
HETATM    6  C   UNL     1      -8.508  16.172  68.493  1.00  0.00    -0.197 A  
HETATM    7  C   UNL     1      -9.711  16.684  69.013  1.00  0.00    -0.260 A  
HETATM    8  C   UNL     1      -7.391  17.154  68.341  1.00  0.00    -0.220 C  
HETATM    9  O   UNL     1      -6.252  16.682  67.802  1.00  0.00    -0.124 OA 
HETATM   10  C   UNL     1     -10.830  15.863  69.203  1.00  0.00    -0.268 A  
HETATM   11  O   UNL     1      -7.496  18.321  68.689  1.00  0.00    -0.281 OA 
HETATM   12  C   UNL     1     -10.779  14.510  68.861  1.00  0.00    -0.259 A  
HETATM   13  C   UNL     1      -9.598  14.003  68.305  1.00  0.00    -0.224 A  
HETATM   14  C   UNL     1     -11.946  13.579  69.086  1.00  0.00    -0.333 C  
HETATM   15  F   UNL     1     -12.385  13.016  67.926  1.00  0.00    -0.323 F  
HETATM   16  F   UNL     1     -11.625  12.541  69.905  1.00  0.00    -0.333 F  
HETATM   17  F   UNL     1     -13.027  14.182  69.647  1.00  0.00    -0.211 F  
ENDBRANCH   4   5
ENDBRANCH   2   4
TORSDOF 2
ENDMDL
MODEL      165
REMARK 921   NORMALIZED FREE ENERGY PREDICTED BY IDOCK:   -3.27 KCAL/MOL
REMARK 922        TOTAL FREE ENERGY PREDICTED BY IDOCK:   -3.89 KCAL/MOL
REMARK 923 INTER-LIGAND FREE ENERGY PREDICTED BY IDOCK:   -3.47 KCAL/MOL
REMARK 924 INTRA-LIGAND FREE ENERGY PREDICTED BY IDOCK:   -0.42 KCAL/MOL
REMARK 927      BINDING AFFINITY PREDICTED BY RF-SCORE:    0.00 PKD
ROOT
HETATM    1  C   UNL     1      -8.334   9.151  66.853  1.00  0.00    -0.119 C  
HETATM    2  C   UNL     1      -7.767   9.005  68.232  1.00  0.00    -0.095 C  
HETATM    3  O   UNL     1      -7.264   9.914  68.876  1.00  0.00    -0.072 OA 
ENDROOT
BRANCH   2   4
HETATM    4  O   UNL     1      -7.871   7.667  68.636  1.00  0.00    -0.116 OA 
BRANCH   4   5
HETATM    5  C   UNL     1      -9.156   7.229  69.027  1.00  0.00    -0.133 A  
HETATM    6  C   UNL     1      -9.739   6.088  68.458  1.00  0.00    -0.142 A  
HETATM    7  C   UNL     1     -10.987   5.666  68.953  1.00  0.00    -0.136 A  
HETATM    8  C   UNL     1      -9.152   5.252  67.367  1.00  0.00    -0.112 C  
HETATM    9  O   UNL     1      -7.938   5.623  66.919  1.00  0.00    -0.101 OA 
HETATM   10  C   UNL     1     -11.640   6.366  69.975  1.00  0.00    -0.446 A  
HETATM   11  O   UNL     1      -9.737   4.287  66.898  1.00  0.00    -0.197 OA 
HETATM   12  C   UNL     1     -11.051   7.499  70.542  1.00  0.00    -0.275 A  
HETATM   13  C   UNL     1      -9.791   7.901  70.082  1.00  0.00    -0.184 A  
HETATM   14  C   UNL     1     -11.736   8.309  71.617  1.00  0.00    -0.292 C  
HETATM   15  F   UNL     1     -11.006   8.358  72.766  1.00  0.00    -0.404 F  
HETATM   16  F   UNL     1     -11.929   9.603  71.242  1.00  0.00    -0.340 F  
HETATM   17  F   UNL     1     -12.960   7.831  71.966  1.00  0.00    -0.310 F  
ENDBRANCH   4   5
ENDBRANCH   2   4
TORSDOF 2
ENDMDL
MODEL      166
REMARK 921   NORMALIZED FREE ENERGY PREDICTED BY IDOCK:   -3.25 KCAL/MOL
REMARK 922        TOTAL FREE ENERGY PREDICTED BY IDOCK:   -3.86 KCAL/MOL
REMARK 923 INTER-LIGAND FREE ENERGY PREDICTED BY IDOCK:   -3.91 KCAL/MOL
REMARK 924 INTRA-LIGAND FREE ENERGY PREDICTED BY IDOCK:    0.04 KCAL/MOL
REMARK 927      BINDING AFFINITY PREDICTED BY RF-SCORE:    0.00 PKD
ROOT
HETATM    1  C   UNL     1      -5.911  14.966  67.912  1.00  0.00    -0.160 C  
HETATM    2  C   UNL     1      -6.666  14.960  69.206  1.00  0.00    -0.141 C  
HETATM    3  O   UNL     1      -6.426  14.217  70.146  1.00  0.00    -0.144 OA 
ENDROOT
BRANCH   2   4
HETATM    4  O   UNL     1      -7.701  15.902  69.143  1.00  0.00    -0.195 OA 
BRANCH   4   5
HETATM    5  C   UNL     1      -8.904  15.472  68.540  1.00  0.00    -0.186 A  
HETATM    6  C   UNL     1      -9.893  16.389  68.157  1.00  0.00    -0.238 A  
HETATM    7  C   UNL     1     -11.030  15.895  67.491  1.00  0.00    -0.280 A  
HETATM    8  C   UNL     1      -9.854  17.867  68.378  1.00  0.00    -0.355 C  
HETATM    9  O   UNL     1      -8.749  18.352  68.973  1.00  0.00    -0.188 OA 
HETATM   10  C   UNL     1     -11.183  14.529  67.226  1.00  0.00    -0.341 A  
HETATM   11  O   UNL     1     -10.773  18.600  68.044  1.00  0.00    -0.343 OA 
HETATM   12  C   UNL     1     -10.192  13.620  67.606  1.00  0.00    -0.239 A  
HETATM   13  C   UNL     1      -9.040  14.109  68.233  1.00  0.00    -0.190 A  
HETATM   14  C   UNL     1     -10.333  12.135  67.378  1.00  0.00    -0.205 C  
HETATM   15  F   UNL     1      -9.338  11.640  66.590  1.00  0.00    -0.174 F  
HETATM   16  F   UNL     1     -10.274  11.428  68.539  1.00  0.00    -0.179 F  
HETATM   17  F   UNL     1     -11.500  11.781  66.779  1.00  0.00    -0.347 F  
ENDBRANCH   4   5
ENDBRANCH   2   4
TORSDOF 2
ENDMDL
MODEL      167
REMARK 921   NORMALIZED FREE ENERGY PREDICTED BY IDOCK:   -3.20 KCAL/MOL
REMARK 922        TOTAL FREE ENERGY PREDICTED BY IDOCK:   -3.81 KCAL/MOL
REMARK 923 INTER-LIGAND FREE ENERGY PREDICTED BY IDOCK:   -3.76 KCAL/MOL
REMARK 924 INTRA-LIGAND FREE ENERGY PREDICTED BY IDOCK:   -0.04 KCAL/MOL
REMARK 927      BINDING AFFINITY PREDICTED BY RF-SCORE:    0.00 PKD
ROOT
HETATM    1  C   UNL     1      -9.417   8.156  73.359  1.00  0.00    -0.237 C  
HETATM    2  C   UNL     1      -9.605   6.743  73.819  1.00  0.00    -0.214 C  
HETATM    3  O   UNL     1      -8.796   6.118  74.489  1.00  0.00    -0.128 OA 
ENDROOT
BRANCH   2   4
HETATM    4  O   UNL     1     -10.822   6.254  73.327  1.00  0.00    -0.260 OA 
BRANCH   4   5
HETATM    5  C   UNL     1     -10.943   6.175  71.922  1.00  0.00    -0.263 A  
HETATM    6  C   UNL     1     -11.758   7.068  71.212  1.00  0.00    -0.356 A  
HETATM    7  C   UNL     1     -11.768   6.981  69.807  1.00  0.00    -0.049 A  
HETATM    8  C   UNL     1     -12.624   8.131  71.807  1.00  0.00    -0.330 C  
HETATM    9  O   UNL     1     -12.585   8.250  73.147  1.00  0.00    -0.040 OA 
HETATM   10  C   UNL     1     -10.999   6.025  69.131  1.00  0.00    -0.429 A  
HETATM   11  O   UNL     1     -13.334   8.852  71.123  1.00  0.00    -0.216 OA 
HETATM   12  C   UNL     1     -10.185   5.141  69.844  1.00  0.00    -0.361 A  
HETATM   13  C   UNL     1     -10.139   5.249  71.239  1.00  0.00    -0.278 A  
HETATM   14  C   UNL     1      -9.371   4.069  69.161  1.00  0.00    -0.167 C  
HETATM   15  F   UNL     1      -8.037   4.205  69.401  1.00  0.00    -0.059 F  
HETATM   16  F   UNL     1      -9.701   2.821  69.591  1.00  0.00    -0.212 F  
HETATM   17  F   UNL     1      -9.512   4.052  67.809  1.00  0.00    -0.166 F  
ENDBRANCH   4   5
ENDBRANCH   2   4
TORSDOF 2
ENDMDL
MODEL      168
REMARK 921   NORMALIZED FREE ENERGY PREDICTED BY IDOCK:   -3.19 KCAL/MOL
REMARK 922        TOTAL FREE ENERGY PREDICTED BY IDOCK:   -3.80 KCAL/MOL
REMARK 923 INTER-LIGAND FREE ENERGY PREDICTED BY IDOCK:   -3.89 KCAL/MOL
REMARK 924 INTRA-LIGAND FREE ENERGY PREDICTED BY IDOCK:    0.08 KCAL/MOL
REMARK 927      BINDING AFFINITY PREDICTED BY RF-SCORE:    0.00 PKD
ROOT
HETATM    1  C   UNL     1      -5.858  12.734  67.491  1.00  0.00    -0.132 C  
HETATM    2  C   UNL     1      -7.108  12.782  68.315  1.00  0.00    -0.104 C  
HETATM    3  O   UNL     1      -7.134  12.832  69.536  1.00  0.00     0.089 OA 
ENDROOT
BRANCH   2   4
HETATM    4  O   UNL     1      -8.223  12.719  67.468  1.00  0.00    -0.157 OA 
BRANCH   4   5
HETATM    5  C   UNL     1      -9.410  12.202  68.034  1.00  0.00    -0.197 A  
HETATM    6  C   UNL     1     -10.657  12.778  67.756  1.00  0.00    -0.231 A  
HETATM    7  C   UNL     1     -11.804  12.161  68.290  1.00  0.00    -0.361 A  
HETATM    8  C   UNL     1     -10.898  13.995  66.922  1.00  0.00    -0.290 C  
HETATM    9  O   UNL     1      -9.810  14.563  66.370  1.00  0.00    -0.266 OA 
HETATM   10  C   UNL     1     -11.710  11.015  69.088  1.00  0.00    -0.403 A  
HETATM   11  O   UNL     1     -12.016  14.458  66.751  1.00  0.00    -0.411 OA 
HETATM   12  C   UNL     1     -10.464  10.442  69.358  1.00  0.00    -0.261 A  
HETATM   13  C   UNL     1      -9.323  11.027  68.795  1.00  0.00    -0.185 A  
HETATM   14  C   UNL     1     -10.310   9.231  70.246  1.00  0.00    -0.229 C  
HETATM   15  F   UNL     1      -9.737   8.184  69.590  1.00  0.00    -0.165 F  
HETATM   16  F   UNL     1      -9.514   9.479  71.320  1.00  0.00    -0.310 F  
HETATM   17  F   UNL     1     -11.486   8.767  70.746  1.00  0.00    -0.276 F  
ENDBRANCH   4   5
ENDBRANCH   2   4
TORSDOF 2
ENDMDL
MODEL      169
REMARK 921   NORMALIZED FREE ENERGY PREDICTED BY IDOCK:   -3.15 KCAL/MOL
REMARK 922        TOTAL FREE ENERGY PREDICTED BY IDOCK:   -3.76 KCAL/MOL
REMARK 923 INTER-LIGAND FREE ENERGY PREDICTED BY IDOCK:   -3.49 KCAL/MOL
REMARK 924 INTRA-LIGAND FREE ENERGY PREDICTED BY IDOCK:   -0.27 KCAL/MOL
REMARK 927      BINDING AFFINITY PREDICTED BY RF-SCORE:    0.00 PKD
ROOT
HETATM    1  C   UNL     1     -12.281  13.243  65.033  1.00  0.00    -0.477 C  
HETATM    2  C   UNL     1     -11.006  13.980  65.306  1.00  0.00    -0.334 C  
HETATM    3  O   UNL     1     -10.204  14.320  64.448  1.00  0.00    -0.227 OA 
ENDROOT
BRANCH   2   4
HETATM    4  O   UNL     1     -10.869  14.174  66.687  1.00  0.00    -0.294 OA 
BRANCH   4   5
HETATM    5  C   UNL     1      -9.550  14.145  67.195  1.00  0.00    -0.244 A  
HETATM    6  C   UNL     1      -8.999  15.257  67.847  1.00  0.00    -0.170 A  
HETATM    7  C   UNL     1      -7.710  15.129  68.397  1.00  0.00    -0.118 A  
HETATM    8  C   UNL     1      -9.660  16.585  68.031  1.00  0.00    -0.227 C  
HETATM    9  O   UNL     1     -10.911  16.700  67.548  1.00  0.00    -0.305 OA 
HETATM   10  C   UNL     1      -6.988  13.934  68.290  1.00  0.00    -0.108 A  
HETATM   11  O   UNL     1      -9.101  17.521  68.584  1.00  0.00    -0.278 OA 
HETATM   12  C   UNL     1      -7.544  12.828  67.643  1.00  0.00    -0.152 A  
HETATM   13  C   UNL     1      -8.842  12.935  67.129  1.00  0.00    -0.210 A  
HETATM   14  C   UNL     1      -6.787  11.534  67.468  1.00  0.00    -0.098 C  
HETATM   15  F   UNL     1      -7.423  10.483  68.056  1.00  0.00    -0.085 F  
HETATM   16  F   UNL     1      -6.643  11.196  66.158  1.00  0.00    -0.125 F  
HETATM   17  F   UNL     1      -5.533  11.558  67.992  1.00  0.00    -0.043 F  
ENDBRANCH   4   5
ENDBRANCH   2   4
TORSDOF 2
ENDMDL
MODEL      170
REMARK 921   NORMALIZED FREE ENERGY PREDICTED BY IDOCK:   -3.15 KCAL/MOL
REMARK 922        TOTAL FREE ENERGY PREDICTED BY IDOCK:   -3.75 KCAL/MOL
REMARK 923 INTER-LIGAND FREE ENERGY PREDICTED BY IDOCK:   -3.61 KCAL/MOL
REMARK 924 INTRA-LIGAND FREE ENERGY PREDICTED BY IDOCK:   -0.14 KCAL/MOL
REMARK 927      BINDING AFFINITY PREDICTED BY RF-SCORE:    0.00 PKD
ROOT
HETATM    1  C   UNL     1     -10.442  11.523  63.422  1.00  0.00    -0.466 C  
HETATM    2  C   UNL     1     -11.120  11.788  64.730  1.00  0.00    -0.296 C  
HETATM    3  O   UNL     1     -12.050  12.566  64.885  1.00  0.00    -0.402 OA 
ENDROOT
BRANCH   2   4
HETATM    4  O   UNL     1     -10.495  11.039  65.736  1.00  0.00    -0.249 OA 
BRANCH   4   5
HETATM    5  C   UNL     1      -9.405  11.657  66.391  1.00  0.00    -0.213 A  
HETATM    6  C   UNL     1      -8.289  10.914  66.801  1.00  0.00    -0.138 A  
HETATM    7  C   UNL     1      -7.208  11.608  67.375  1.00  0.00    -0.128 A  
HETATM    8  C   UNL     1      -8.124   9.433  66.677  1.00  0.00    -0.108 C  
HETATM    9  O   UNL     1      -9.136   8.768  66.088  1.00  0.00    -0.174 OA 
HETATM   10  C   UNL     1      -7.242  12.997  67.546  1.00  0.00    -0.154 A  
HETATM   11  O   UNL     1      -7.133   8.850  67.089  1.00  0.00    -0.080 OA 
HETATM   12  C   UNL     1      -8.354  13.733  67.130  1.00  0.00    -0.153 A  
HETATM   13  C   UNL     1      -9.417  13.054  66.521  1.00  0.00    -0.246 A  
HETATM   14  C   UNL     1      -8.453  15.225  67.331  1.00  0.00    -0.179 C  
HETATM   15  F   UNL     1      -8.592  15.894  66.153  1.00  0.00    -0.318 F  
HETATM   16  F   UNL     1      -9.530  15.573  68.086  1.00  0.00    -0.193 F  
HETATM   17  F   UNL     1      -7.369  15.767  67.948  1.00  0.00    -0.115 F  
ENDBRANCH   4   5
ENDBRANCH   2   4
TORSDOF 2
ENDMDL
MODEL      171
REMARK 921   NORMALIZED FREE ENERGY PREDICTED BY IDOCK:   -3.12 KCAL/MOL
REMARK 922        TOTAL FREE ENERGY PREDICTED BY IDOCK:   -3.72 KCAL/MOL
REMARK 923 INTER-LIGAND FREE ENERGY PREDICTED BY IDOCK:   -3.51 KCAL/MOL
REMARK 924 INTRA-LIGAND FREE ENERGY PREDICTED BY IDOCK:   -0.21 KCAL/MOL
REMARK 927      BINDING AFFINITY PREDICTED BY RF-SCORE:    0.00 PKD
ROOT
HETATM    1  C   UNL     1      -8.463   4.046  66.433  1.00  0.00    -0.109 C  
HETATM    2  C   UNL     1      -9.522   5.018  66.856  1.00  0.00    -0.142 C  
HETATM    3  O   UNL     1     -10.607   5.144  66.307  1.00  0.00    -0.292 OA 
ENDROOT
BRANCH   2   4
HETATM    4  O   UNL     1      -9.052   5.772  67.940  1.00  0.00    -0.112 OA 
BRANCH   4   5
HETATM    5  C   UNL     1      -9.688   7.015  68.159  1.00  0.00    -0.133 A  
HETATM    6  C   UNL     1     -10.421   7.258  69.329  1.00  0.00    -0.221 A  
HETATM    7  C   UNL     1     -10.960   8.545  69.516  1.00  0.00    -0.057 A  
HETATM    8  C   UNL     1     -10.683   6.274  70.424  1.00  0.00    -0.271 C  
HETATM    9  O   UNL     1     -10.133   5.055  70.274  1.00  0.00    -0.235 OA 
HETATM   10  C   UNL     1     -10.784   9.554  68.561  1.00  0.00    -0.222 A  
HETATM   11  O   UNL     1     -11.362   6.551  71.401  1.00  0.00    -0.268 OA 
HETATM   12  C   UNL     1     -10.047   9.307  67.400  1.00  0.00    -0.280 A  
HETATM   13  C   UNL     1      -9.474   8.041  67.227  1.00  0.00    -0.196 A  
HETATM   14  C   UNL     1      -9.866  10.351  66.325  1.00  0.00    -0.218 C  
HETATM   15  F   UNL     1      -8.554  10.649  66.115  1.00  0.00    -0.138 F  
HETATM   16  F   UNL     1     -10.352   9.940  65.122  1.00  0.00    -0.380 F  
HETATM   17  F   UNL     1     -10.483  11.531  66.599  1.00  0.00    -0.238 F  
ENDBRANCH   4   5
ENDBRANCH   2   4
TORSDOF 2
ENDMDL
MODEL      172
REMARK 921   NORMALIZED FREE ENERGY PREDICTED BY IDOCK:   -3.10 KCAL/MOL
REMARK 922        TOTAL FREE ENERGY PREDICTED BY IDOCK:   -3.70 KCAL/MOL
REMARK 923 INTER-LIGAND FREE ENERGY PREDICTED BY IDOCK:   -3.41 KCAL/MOL
REMARK 924 INTRA-LIGAND FREE ENERGY PREDICTED BY IDOCK:   -0.29 KCAL/MOL
REMARK 927      BINDING AFFINITY PREDICTED BY RF-SCORE:    0.00 PKD
ROOT
HETATM    1  C   UNL     1     -13.033  13.786  70.247  1.00  0.00     0.043 C  
HETATM    2  C   UNL     1     -12.231  12.908  69.337  1.00  0.00    -0.091 C  
HETATM    3  O   UNL     1     -11.702  11.858  69.673  1.00  0.00    -0.304 OA 
ENDROOT
BRANCH   2   4
HETATM    4  O   UNL     1     -12.154  13.501  68.070  1.00  0.00    -0.347 OA 
BRANCH   4   5
HETATM    5  C   UNL     1     -10.865  13.877  67.631  1.00  0.00    -0.254 A  
HETATM    6  C   UNL     1     -10.386  13.492  66.371  1.00  0.00    -0.289 A  
HETATM    7  C   UNL     1      -9.124  13.969  65.969  1.00  0.00     0.160 A  
HETATM    8  C   UNL     1     -11.099  12.620  65.388  1.00  0.00    -0.292 C  
HETATM    9  O   UNL     1     -12.325  12.197  65.746  1.00  0.00    -0.564 OA 
HETATM   10  C   UNL     1      -8.358  14.794  66.802  1.00  0.00    -0.114 A  
HETATM   11  O   UNL     1     -10.601  12.300  64.319  1.00  0.00    -0.305 OA 
HETATM   12  C   UNL     1      -8.843  15.178  68.055  1.00  0.00    -0.170 A  
HETATM   13  C   UNL     1     -10.115  14.740  68.444  1.00  0.00    -0.225 A  
HETATM   14  C   UNL     1      -8.036  16.032  69.003  1.00  0.00    -0.224 C  
HETATM   15  F   UNL     1      -8.668  17.199  69.307  1.00  0.00    -0.184 F  
HETATM   16  F   UNL     1      -7.811  15.409  70.191  1.00  0.00    -0.120 F  
HETATM   17  F   UNL     1      -6.813  16.378  68.521  1.00  0.00    -0.128 F  
ENDBRANCH   4   5
ENDBRANCH   2   4
TORSDOF 2
ENDMDL
MODEL      173
REMARK 921   NORMALIZED FREE ENERGY PREDICTED BY IDOCK:   -3.10 KCAL/MOL
REMARK 922        TOTAL FREE ENERGY PREDICTED BY IDOCK:   -3.70 KCAL/MOL
REMARK 923 INTER-LIGAND FREE ENERGY PREDICTED BY IDOCK:   -3.34 KCAL/MOL
REMARK 924 INTRA-LIGAND FREE ENERGY PREDICTED BY IDOCK:   -0.36 KCAL/MOL
REMARK 927      BINDING AFFINITY PREDICTED BY RF-SCORE:    0.00 PKD
ROOT
HETATM    1  C   UNL     1     -12.763   9.989  71.296  1.00  0.00    -0.500 C  
HETATM    2  C   UNL     1     -12.018   8.701  71.464  1.00  0.00    -0.306 C  
HETATM    3  O   UNL     1     -12.380   7.625  71.011  1.00  0.00    -0.290 OA 
ENDROOT
BRANCH   2   4
HETATM    4  O   UNL     1     -10.879   8.924  72.250  1.00  0.00    -0.332 OA 
BRANCH   4   5
HETATM    5  C   UNL     1      -9.646   8.513  71.696  1.00  0.00    -0.249 A  
HETATM    6  C   UNL     1      -9.003   7.349  72.139  1.00  0.00    -0.154 A  
HETATM    7  C   UNL     1      -7.818   6.959  71.487  1.00  0.00    -0.100 A  
HETATM    8  C   UNL     1      -9.465   6.456  73.246  1.00  0.00    -0.139 C  
HETATM    9  O   UNL     1     -10.621   6.797  73.844  1.00  0.00    -0.350 OA 
HETATM   10  C   UNL     1      -7.284   7.712  70.435  1.00  0.00    -0.063 A  
HETATM   11  O   UNL     1      -8.831   5.472  73.598  1.00  0.00    -0.125 OA 
HETATM   12  C   UNL     1      -7.932   8.869  69.995  1.00  0.00    -0.109 A  
HETATM   13  C   UNL     1      -9.133   9.240  70.612  1.00  0.00    -0.309 A  
HETATM   14  C   UNL     1      -7.372   9.735  68.892  1.00  0.00    -0.073 C  
HETATM   15  F   UNL     1      -8.225   9.837  67.836  1.00  0.00    -0.109 F  
HETATM   16  F   UNL     1      -7.139  11.009  69.308  1.00  0.00    -0.081 F  
HETATM   17  F   UNL     1      -6.195   9.282  68.385  1.00  0.00    -0.050 F  
ENDBRANCH   4   5
ENDBRANCH   2   4
TORSDOF 2
ENDMDL
MODEL      174
REMARK 921   NORMALIZED FREE ENERGY PREDICTED BY IDOCK:   -3.03 KCAL/MOL
REMARK 922        TOTAL FREE ENERGY PREDICTED BY IDOCK:   -3.62 KCAL/MOL
REMARK 923 INTER-LIGAND FREE ENERGY PREDICTED BY IDOCK:   -4.22 KCAL/MOL
REMARK 924 INTRA-LIGAND FREE ENERGY PREDICTED BY IDOCK:    0.60 KCAL/MOL
REMARK 927      BINDING AFFINITY PREDICTED BY RF-SCORE:    0.00 PKD
ROOT
HETATM    1  C   UNL     1      -8.275  12.694  67.454  1.00  0.00    -0.184 C  
HETATM    2  C   UNL     1      -9.642  12.501  66.874  1.00  0.00    -0.229 C  
HETATM    3  O   UNL     1     -10.192  11.418  66.739  1.00  0.00    -0.211 OA 
ENDROOT
BRANCH   2   4
HETATM    4  O   UNL     1     -10.159  13.743  66.481  1.00  0.00    -0.272 OA 
BRANCH   4   5
HETATM    5  C   UNL     1      -9.699  14.868  67.201  1.00  0.00    -0.228 A  
HETATM    6  C   UNL     1     -10.353  15.304  68.363  1.00  0.00    -0.227 A  
HETATM    7  C   UNL     1      -9.793  16.382  69.072  1.00  0.00    -0.266 A  
HETATM    8  C   UNL     1     -11.601  14.719  68.941  1.00  0.00    -0.313 C  
HETATM    9  O   UNL     1     -12.117  13.658  68.294  1.00  0.00    -0.357 OA 
HETATM   10  C   UNL     1      -8.624  17.016  68.631  1.00  0.00    -0.265 A  
HETATM   11  O   UNL     1     -12.132  15.175  69.942  1.00  0.00    -0.311 OA 
HETATM   12  C   UNL     1      -7.974  16.574  67.476  1.00  0.00    -0.176 A  
HETATM   13  C   UNL     1      -8.504  15.475  66.788  1.00  0.00    -0.314 A  
HETATM   14  C   UNL     1      -6.736  17.252  66.940  1.00  0.00    -0.195 C  
HETATM   15  F   UNL     1      -5.672  16.403  66.879  1.00  0.00    -0.180 F  
HETATM   16  F   UNL     1      -6.913  17.720  65.675  1.00  0.00    -0.318 F  
HETATM   17  F   UNL     1      -6.330  18.315  67.683  1.00  0.00    -0.176 F  
ENDBRANCH   4   5
ENDBRANCH   2   4
TORSDOF 2
ENDMDL
MODEL      175
REMARK 921   NORMALIZED FREE ENERGY PREDICTED BY IDOCK:   -3.02 KCAL/MOL
REMARK 922        TOTAL FREE ENERGY PREDICTED BY IDOCK:   -3.61 KCAL/MOL
REMARK 923 INTER-LIGAND FREE ENERGY PREDICTED BY IDOCK:   -3.42 KCAL/MOL
REMARK 924 INTRA-LIGAND FREE ENERGY PREDICTED BY IDOCK:   -0.20 KCAL/MOL
REMARK 927      BINDING AFFINITY PREDICTED BY RF-SCORE:    0.00 PKD
ROOT
HETATM    1  C   UNL     1      -9.935  11.085  64.661  1.00  0.00    -0.357 C  
HETATM    2  C   UNL     1      -9.423  11.111  66.068  1.00  0.00    -0.208 C  
HETATM    3  O   UNL     1      -9.275  12.125  66.734  1.00  0.00    -0.196 OA 
ENDROOT
BRANCH   2   4
HETATM    4  O   UNL     1      -9.108   9.806  66.471  1.00  0.00    -0.147 OA 
BRANCH   4   5
HETATM    5  C   UNL     1      -8.954   9.600  67.861  1.00  0.00    -0.118 A  
HETATM    6  C   UNL     1      -7.684   9.472  68.439  1.00  0.00    -0.085 A  
HETATM    7  C   UNL     1      -7.604   9.348  69.839  1.00  0.00    -0.109 A  
HETATM    8  C   UNL     1      -6.380   9.466  67.707  1.00  0.00    -0.058 C  
HETATM    9  O   UNL     1      -6.446   9.629  66.373  1.00  0.00    -0.068 OA 
HETATM   10  C   UNL     1      -8.755   9.340  70.636  1.00  0.00    -0.282 A  
HETATM   11  O   UNL     1      -5.311   9.316  68.279  1.00  0.00    -0.037 OA 
HETATM   12  C   UNL     1     -10.018   9.474  70.055  1.00  0.00    -0.274 A  
HETATM   13  C   UNL     1     -10.102   9.638  68.666  1.00  0.00    -0.196 A  
HETATM   14  C   UNL     1     -11.288   9.430  70.870  1.00  0.00    -0.319 C  
HETATM   15  F   UNL     1     -12.013  10.577  70.753  1.00  0.00    -0.336 F  
HETATM   16  F   UNL     1     -12.116   8.424  70.477  1.00  0.00    -0.204 F  
HETATM   17  F   UNL     1     -11.078   9.248  72.200  1.00  0.00    -0.422 F  
ENDBRANCH   4   5
ENDBRANCH   2   4
TORSDOF 2
ENDMDL
MODEL      176
REMARK 921   NORMALIZED FREE ENERGY PREDICTED BY IDOCK:   -3.02 KCAL/MOL
REMARK 922        TOTAL FREE ENERGY PREDICTED BY IDOCK:   -3.61 KCAL/MOL
REMARK 923 INTER-LIGAND FREE ENERGY PREDICTED BY IDOCK:   -3.28 KCAL/MOL
REMARK 924 INTRA-LIGAND FREE ENERGY PREDICTED BY IDOCK:   -0.33 KCAL/MOL
REMARK 927      BINDING AFFINITY PREDICTED BY RF-SCORE:    0.00 PKD
ROOT
HETATM    1  C   UNL     1      -6.630   3.596  68.909  1.00  0.00    -0.040 C  
HETATM    2  C   UNL     1      -7.717   4.339  68.196  1.00  0.00    -0.075 C  
HETATM    3  O   UNL     1      -8.374   3.888  67.270  1.00  0.00    -0.097 OA 
ENDROOT
BRANCH   2   4
HETATM    4  O   UNL     1      -7.825   5.629  68.732  1.00  0.00    -0.093 OA 
BRANCH   4   5
HETATM    5  C   UNL     1      -9.043   5.939  69.378  1.00  0.00    -0.127 A  
HETATM    6  C   UNL     1     -10.000   6.760  68.765  1.00  0.00    -0.149 A  
HETATM    7  C   UNL     1     -11.223   6.961  69.432  1.00  0.00    -0.215 A  
HETATM    8  C   UNL     1      -9.856   7.444  67.443  1.00  0.00    -0.169 C  
HETATM    9  O   UNL     1      -8.708   7.220  66.778  1.00  0.00    -0.121 OA 
HETATM   10  C   UNL     1     -11.479   6.373  70.677  1.00  0.00    -0.426 A  
HETATM   11  O   UNL     1     -10.725   8.173  66.988  1.00  0.00    -0.321 OA 
HETATM   12  C   UNL     1     -10.522   5.553  71.281  1.00  0.00    -0.306 A  
HETATM   13  C   UNL     1      -9.320   5.316  70.603  1.00  0.00    -0.209 A  
HETATM   14  C   UNL     1     -10.737   4.932  72.640  1.00  0.00    -0.213 C  
HETATM   15  F   UNL     1     -10.689   3.571  72.596  1.00  0.00    -0.231 F  
HETATM   16  F   UNL     1      -9.784   5.310  73.534  1.00  0.00    -0.143 F  
HETATM   17  F   UNL     1     -11.932   5.250  73.204  1.00  0.00    -0.339 F  
ENDBRANCH   4   5
ENDBRANCH   2   4
TORSDOF 2
ENDMDL
MODEL      177
REMARK 921   NORMALIZED FREE ENERGY PREDICTED BY IDOCK:   -3.00 KCAL/MOL
REMARK 922        TOTAL FREE ENERGY PREDICTED BY IDOCK:   -3.58 KCAL/MOL
REMARK 923 INTER-LIGAND FREE ENERGY PREDICTED BY IDOCK:   -3.30 KCAL/MOL
REMARK 924 INTRA-LIGAND FREE ENERGY PREDICTED BY IDOCK:   -0.28 KCAL/MOL
REMARK 927      BINDING AFFINITY PREDICTED BY RF-SCORE:    0.00 PKD
ROOT
HETATM    1  C   UNL     1      -8.165   8.630  71.496  1.00  0.00    -0.209 C  
HETATM    2  C   UNL     1      -7.289   9.585  70.747  1.00  0.00    -0.084 C  
HETATM    3  O   UNL     1      -6.409  10.265  71.255  1.00  0.00    -0.330 OA 
ENDROOT
BRANCH   2   4
HETATM    4  O   UNL     1      -7.667   9.600  69.397  1.00  0.00    -0.084 OA 
BRANCH   4   5
HETATM    5  C   UNL     1      -8.258  10.794  68.926  1.00  0.00    -0.149 A  
HETATM    6  C   UNL     1      -7.546  11.681  68.105  1.00  0.00    -0.115 A  
HETATM    7  C   UNL     1      -8.223  12.810  67.609  1.00  0.00    -0.175 A  
HETATM    8  C   UNL     1      -6.118  11.538  67.687  1.00  0.00    -0.062 C  
HETATM    9  O   UNL     1      -5.477  10.437  68.121  1.00  0.00    -0.035 OA 
HETATM   10  C   UNL     1      -9.564  13.055  67.930  1.00  0.00    -0.215 A  
HETATM   11  O   UNL     1      -5.555  12.372  66.994  1.00  0.00    -0.295 OA 
HETATM   12  C   UNL     1     -10.269  12.165  68.743  1.00  0.00    -0.133 A  
HETATM   13  C   UNL     1      -9.613  11.018  69.208  1.00  0.00    -0.008 A  
HETATM   14  C   UNL     1     -11.703  12.409  69.149  1.00  0.00    -0.322 C  
HETATM   15  F   UNL     1     -12.531  11.410  68.735  1.00  0.00    -0.307 F  
HETATM   16  F   UNL     1     -11.850  12.480  70.500  1.00  0.00    -0.398 F  
HETATM   17  F   UNL     1     -12.223  13.562  68.652  1.00  0.00    -0.380 F  
ENDBRANCH   4   5
ENDBRANCH   2   4
TORSDOF 2
ENDMDL
MODEL      178
REMARK 921   NORMALIZED FREE ENERGY PREDICTED BY IDOCK:   -2.93 KCAL/MOL
REMARK 922        TOTAL FREE ENERGY PREDICTED BY IDOCK:   -3.51 KCAL/MOL
REMARK 923 INTER-LIGAND FREE ENERGY PREDICTED BY IDOCK:   -3.42 KCAL/MOL
REMARK 924 INTRA-LIGAND FREE ENERGY PREDICTED BY IDOCK:   -0.09 KCAL/MOL
REMARK 927      BINDING AFFINITY PREDICTED BY RF-SCORE:    0.00 PKD
ROOT
HETATM    1  C   UNL     1      -5.647   4.179  71.147  1.00  0.00    -0.008 C  
HETATM    2  C   UNL     1      -6.853   5.056  71.005  1.00  0.00    -0.043 C  
HETATM    3  O   UNL     1      -6.940   6.193  71.446  1.00  0.00    -0.071 OA 
ENDROOT
BRANCH   2   4
HETATM    4  O   UNL     1      -7.860   4.353  70.331  1.00  0.00    -0.052 OA 
BRANCH   4   5
HETATM    5  C   UNL     1      -9.047   5.069  70.056  1.00  0.00    -0.123 A  
HETATM    6  C   UNL     1      -9.403   5.407  68.743  1.00  0.00    -0.159 A  
HETATM    7  C   UNL     1     -10.638   6.051  68.538  1.00  0.00    -0.325 A  
HETATM    8  C   UNL     1      -8.595   5.136  67.515  1.00  0.00    -0.104 C  
HETATM    9  O   UNL     1      -7.434   4.480  67.698  1.00  0.00    -0.072 OA 
HETATM   10  C   UNL     1     -11.485   6.360  69.609  1.00  0.00    -0.446 A  
HETATM   11  O   UNL     1      -8.958   5.491  66.404  1.00  0.00    -0.124 OA 
HETATM   12  C   UNL     1     -11.127   6.016  70.915  1.00  0.00    -0.352 A  
HETATM   13  C   UNL     1      -9.919   5.339  71.122  1.00  0.00    -0.265 A  
HETATM   14  C   UNL     1     -11.989   6.365  72.104  1.00  0.00    -0.298 C  
HETATM   15  F   UNL     1     -12.386   5.259  72.793  1.00  0.00    -0.304 F  
HETATM   16  F   UNL     1     -11.332   7.148  73.003  1.00  0.00    -0.300 F  
HETATM   17  F   UNL     1     -13.125   7.037  71.778  1.00  0.00    -0.372 F  
ENDBRANCH   4   5
ENDBRANCH   2   4
TORSDOF 2
ENDMDL
MODEL      179
REMARK 921   NORMALIZED FREE ENERGY PREDICTED BY IDOCK:   -2.92 KCAL/MOL
REMARK 922        TOTAL FREE ENERGY PREDICTED BY IDOCK:   -3.50 KCAL/MOL
REMARK 923 INTER-LIGAND FREE ENERGY PREDICTED BY IDOCK:   -3.46 KCAL/MOL
REMARK 924 INTRA-LIGAND FREE ENERGY PREDICTED BY IDOCK:   -0.04 KCAL/MOL
REMARK 927      BINDING AFFINITY PREDICTED BY RF-SCORE:    0.00 PKD
ROOT
HETATM    1  C   UNL     1     -11.007  15.203  65.183  1.00  0.00    -0.428 C  
HETATM    2  C   UNL     1     -10.937  15.303  66.676  1.00  0.00    -0.297 C  
HETATM    3  O   UNL     1     -11.647  14.676  67.448  1.00  0.00    -0.363 OA 
ENDROOT
BRANCH   2   4
HETATM    4  O   UNL     1      -9.967  16.250  67.032  1.00  0.00    -0.243 OA 
BRANCH   4   5
HETATM    5  C   UNL     1      -8.649  15.766  67.192  1.00  0.00    -0.201 A  
HETATM    6  C   UNL     1      -7.567  16.644  67.348  1.00  0.00    -0.191 A  
HETATM    7  C   UNL     1      -6.295  16.090  67.582  1.00  0.00    -0.187 A  
HETATM    8  C   UNL     1      -7.633  18.137  67.304  1.00  0.00    -0.216 C  
HETATM    9  O   UNL     1      -8.854  18.674  67.127  1.00  0.00    -0.266 OA 
HETATM   10  C   UNL     1      -6.103  14.704  67.645  1.00  0.00    -0.078 A  
HETATM   11  O   UNL     1      -6.638  18.837  67.417  1.00  0.00    -0.193 OA 
HETATM   12  C   UNL     1      -7.186  13.834  67.493  1.00  0.00    -0.173 A  
HETATM   13  C   UNL     1      -8.461  14.379  67.301  1.00  0.00    -0.229 A  
HETATM   14  C   UNL     1      -7.021  12.334  67.512  1.00  0.00    -0.142 C  
HETATM   15  F   UNL     1      -7.743  11.751  68.509  1.00  0.00    -0.110 F  
HETATM   16  F   UNL     1      -7.447  11.755  66.357  1.00  0.00    -0.097 F  
HETATM   17  F   UNL     1      -5.736  11.927  67.687  1.00  0.00    -0.046 F  
ENDBRANCH   4   5
ENDBRANCH   2   4
TORSDOF 2
ENDMDL
MODEL      180
REMARK 921   NORMALIZED FREE ENERGY PREDICTED BY IDOCK:   -2.92 KCAL/MOL
REMARK 922        TOTAL FREE ENERGY PREDICTED BY IDOCK:   -3.50 KCAL/MOL
REMARK 923 INTER-LIGAND FREE ENERGY PREDICTED BY IDOCK:   -3.46 KCAL/MOL
REMARK 924 INTRA-LIGAND FREE ENERGY PREDICTED BY IDOCK:   -0.04 KCAL/MOL
REMARK 927      BINDING AFFINITY PREDICTED BY RF-SCORE:    0.00 PKD
ROOT
HETATM    1  C   UNL     1     -10.840   8.843  70.123  1.00  0.00    -0.251 C  
HETATM    2  C   UNL     1      -9.529   8.485  70.752  1.00  0.00    -0.178 C  
HETATM    3  O   UNL     1      -9.075   9.011  71.758  1.00  0.00    -0.340 OA 
ENDROOT
BRANCH   2   4
HETATM    4  O   UNL     1      -8.901   7.495  69.985  1.00  0.00    -0.142 OA 
BRANCH   4   5
HETATM    5  C   UNL     1      -9.210   6.157  70.316  1.00  0.00    -0.156 A  
HETATM    6  C   UNL     1      -8.792   5.093  69.504  1.00  0.00    -0.120 A  
HETATM    7  C   UNL     1      -9.068   3.783  69.937  1.00  0.00    -0.188 A  
HETATM    8  C   UNL     1      -8.059   5.212  68.206  1.00  0.00    -0.087 C  
HETATM    9  O   UNL     1      -7.752   6.461  67.808  1.00  0.00    -0.100 OA 
HETATM   10  C   UNL     1      -9.750   3.540  71.135  1.00  0.00    -0.237 A  
HETATM   11  O   UNL     1      -7.756   4.237  67.536  1.00  0.00    -0.083 OA 
HETATM   12  C   UNL     1     -10.159   4.604  71.943  1.00  0.00    -0.266 A  
HETATM   13  C   UNL     1      -9.853   5.909  71.538  1.00  0.00    -0.201 A  
HETATM   14  C   UNL     1     -10.932   4.392  73.222  1.00  0.00    -0.273 C  
HETATM   15  F   UNL     1     -10.276   4.889  74.307  1.00  0.00    -0.180 F  
HETATM   16  F   UNL     1     -12.142   5.014  73.201  1.00  0.00    -0.381 F  
HETATM   17  F   UNL     1     -11.185   3.085  73.499  1.00  0.00    -0.277 F  
ENDBRANCH   4   5
ENDBRANCH   2   4
TORSDOF 2
ENDMDL
MODEL      181
REMARK 921   NORMALIZED FREE ENERGY PREDICTED BY IDOCK:   -2.91 KCAL/MOL
REMARK 922        TOTAL FREE ENERGY PREDICTED BY IDOCK:   -3.49 KCAL/MOL
REMARK 923 INTER-LIGAND FREE ENERGY PREDICTED BY IDOCK:   -3.18 KCAL/MOL
REMARK 924 INTRA-LIGAND FREE ENERGY PREDICTED BY IDOCK:   -0.30 KCAL/MOL
REMARK 927      BINDING AFFINITY PREDICTED BY RF-SCORE:    0.00 PKD
ROOT
HETATM    1  C   UNL     1     -10.234   7.810  71.514  1.00  0.00    -0.216 C  
HETATM    2  C   UNL     1     -10.810   9.114  71.055  1.00  0.00    -0.291 C  
HETATM    3  O   UNL     1     -11.340   9.936  71.789  1.00  0.00    -0.216 OA 
ENDROOT
BRANCH   2   4
HETATM    4  O   UNL     1     -10.681   9.213  69.663  1.00  0.00    -0.228 OA 
BRANCH   4   5
HETATM    5  C   UNL     1      -9.810  10.218  69.186  1.00  0.00    -0.216 A  
HETATM    6  C   UNL     1     -10.306  11.418  68.658  1.00  0.00    -0.219 A  
HETATM    7  C   UNL     1      -9.379  12.406  68.275  1.00  0.00    -0.199 A  
HETATM    8  C   UNL     1     -11.748  11.767  68.470  1.00  0.00    -0.330 C  
HETATM    9  O   UNL     1     -12.641  10.846  68.877  1.00  0.00    -0.338 OA 
HETATM   10  C   UNL     1      -8.000  12.198  68.402  1.00  0.00    -0.152 A  
HETATM   11  O   UNL     1     -12.103  12.824  67.972  1.00  0.00    -0.302 OA 
HETATM   12  C   UNL     1      -7.511  11.002  68.933  1.00  0.00    -0.123 A  
HETATM   13  C   UNL     1      -8.429  10.032  69.354  1.00  0.00    -0.176 A  
HETATM   14  C   UNL     1      -6.034  10.717  69.050  1.00  0.00    -0.040 C  
HETATM   15  F   UNL     1      -5.654  10.494  70.339  1.00  0.00    -0.047 F  
HETATM   16  F   UNL     1      -5.667   9.606  68.356  1.00  0.00    -0.040 F  
HETATM   17  F   UNL     1      -5.245  11.725  68.593  1.00  0.00    -0.047 F  
ENDBRANCH   4   5
ENDBRANCH   2   4
TORSDOF 2
ENDMDL
MODEL      182
REMARK 921   NORMALIZED FREE ENERGY PREDICTED BY IDOCK:   -2.88 KCAL/MOL
REMARK 922        TOTAL FREE ENERGY PREDICTED BY IDOCK:   -3.45 KCAL/MOL
REMARK 923 INTER-LIGAND FREE ENERGY PREDICTED BY IDOCK:   -3.35 KCAL/MOL
REMARK 924 INTRA-LIGAND FREE ENERGY PREDICTED BY IDOCK:   -0.10 KCAL/MOL
REMARK 927      BINDING AFFINITY PREDICTED BY RF-SCORE:    0.00 PKD
ROOT
HETATM    1  C   UNL     1      -7.862   8.037  73.625  1.00  0.00    -0.234 C  
HETATM    2  C   UNL     1      -9.086   7.266  73.235  1.00  0.00    -0.159 C  
HETATM    3  O   UNL     1     -10.148   7.297  73.840  1.00  0.00    -0.324 OA 
ENDROOT
BRANCH   2   4
HETATM    4  O   UNL     1      -8.802   6.486  72.107  1.00  0.00    -0.135 OA 
BRANCH   4   5
HETATM    5  C   UNL     1      -9.436   6.871  70.904  1.00  0.00    -0.157 A  
HETATM    6  C   UNL     1      -9.808   5.920  69.943  1.00  0.00    -0.223 A  
HETATM    7  C   UNL     1     -10.506   6.368  68.806  1.00  0.00    -0.260 A  
HETATM    8  C   UNL     1      -9.544   4.450  70.012  1.00  0.00    -0.203 C  
HETATM    9  O   UNL     1      -8.917   4.009  71.118  1.00  0.00    -0.098 OA 
HETATM   10  C   UNL     1     -10.812   7.722  68.626  1.00  0.00     0.010 A  
HETATM   11  O   UNL     1      -9.871   3.686  69.116  1.00  0.00    -0.082 OA 
HETATM   12  C   UNL     1     -10.444   8.664  69.589  1.00  0.00    -0.220 A  
HETATM   13  C   UNL     1      -9.785   8.220  70.742  1.00  0.00    -0.197 A  
HETATM   14  C   UNL     1     -10.716  10.139  69.418  1.00  0.00    -0.238 C  
HETATM   15  F   UNL     1     -11.502  10.635  70.415  1.00  0.00    -0.322 F  
HETATM   16  F   UNL     1      -9.575  10.879  69.441  1.00  0.00    -0.202 F  
HETATM   17  F   UNL     1     -11.344  10.448  68.253  1.00  0.00    -0.307 F  
ENDBRANCH   4   5
ENDBRANCH   2   4
TORSDOF 2
ENDMDL
MODEL      183
REMARK 921   NORMALIZED FREE ENERGY PREDICTED BY IDOCK:   -2.85 KCAL/MOL
REMARK 922        TOTAL FREE ENERGY PREDICTED BY IDOCK:   -3.42 KCAL/MOL
REMARK 923 INTER-LIGAND FREE ENERGY PREDICTED BY IDOCK:   -3.27 KCAL/MOL
REMARK 924 INTRA-LIGAND FREE ENERGY PREDICTED BY IDOCK:   -0.14 KCAL/MOL
REMARK 927      BINDING AFFINITY PREDICTED BY RF-SCORE:    0.00 PKD
ROOT
HETATM    1  C   UNL     1     -10.851   5.920  67.510  1.00  0.00    -0.335 C  
HETATM    2  C   UNL     1     -10.665   6.332  68.938  1.00  0.00    -0.299 C  
HETATM    3  O   UNL     1     -11.571   6.444  69.751  1.00  0.00    -0.431 OA 
ENDROOT
BRANCH   2   4
HETATM    4  O   UNL     1      -9.310   6.602  69.170  1.00  0.00    -0.136 OA 
BRANCH   4   5
HETATM    5  C   UNL     1      -8.929   7.962  69.137  1.00  0.00    -0.145 A  
HETATM    6  C   UNL     1      -8.310   8.570  70.238  1.00  0.00    -0.125 A  
HETATM    7  C   UNL     1      -7.886   9.905  70.105  1.00  0.00    -0.186 A  
HETATM    8  C   UNL     1      -8.039   7.927  71.560  1.00  0.00    -0.108 C  
HETATM    9  O   UNL     1      -8.401   6.636  71.680  1.00  0.00    -0.115 OA 
HETATM   10  C   UNL     1      -8.083  10.617  68.915  1.00  0.00    -0.139 A  
HETATM   11  O   UNL     1      -7.524   8.534  72.487  1.00  0.00    -0.238 OA 
HETATM   12  C   UNL     1      -8.696  10.004  67.819  1.00  0.00    -0.125 A  
HETATM   13  C   UNL     1      -9.083   8.664  67.931  1.00  0.00    -0.145 A  
HETATM   14  C   UNL     1      -8.966  10.744  66.531  1.00  0.00    -0.156 C  
HETATM   15  F   UNL     1      -8.341  10.168  65.467  1.00  0.00    -0.134 F  
HETATM   16  F   UNL     1     -10.290  10.765  66.218  1.00  0.00    -0.269 F  
HETATM   17  F   UNL     1      -8.562  12.042  66.550  1.00  0.00    -0.185 F  
ENDBRANCH   4   5
ENDBRANCH   2   4
TORSDOF 2
ENDMDL
MODEL      184
REMARK 921   NORMALIZED FREE ENERGY PREDICTED BY IDOCK:   -2.82 KCAL/MOL
REMARK 922        TOTAL FREE ENERGY PREDICTED BY IDOCK:   -3.39 KCAL/MOL
REMARK 923 INTER-LIGAND FREE ENERGY PREDICTED BY IDOCK:   -4.30 KCAL/MOL
REMARK 924 INTRA-LIGAND FREE ENERGY PREDICTED BY IDOCK:    0.91 KCAL/MOL
REMARK 927      BINDING AFFINITY PREDICTED BY RF-SCORE:    0.00 PKD
ROOT
HETATM    1  C   UNL     1     -10.508  15.343  69.190  1.00  0.00    -0.239 C  
HETATM    2  C   UNL     1     -10.782  14.274  68.178  1.00  0.00    -0.244 C  
HETATM    3  O   UNL     1     -10.097  14.064  67.188  1.00  0.00    -0.253 OA 
ENDROOT
BRANCH   2   4
HETATM    4  O   UNL     1     -11.958  13.596  68.527  1.00  0.00    -0.356 OA 
BRANCH   4   5
HETATM    5  C   UNL     1     -12.211  13.452  69.909  1.00  0.00    -0.271 A  
HETATM    6  C   UNL     1     -12.142  12.199  70.534  1.00  0.00    -0.383 A  
HETATM    7  C   UNL     1     -12.328  12.144  71.927  1.00  0.00     0.453 A  
HETATM    8  C   UNL     1     -11.873  10.893  69.857  1.00  0.00    -0.349 C  
HETATM    9  O   UNL     1     -11.649  10.944  68.531  1.00  0.00    -0.292 OA 
HETATM   10  C   UNL     1     -12.587  13.299  72.674  1.00  0.00     0.328 A  
HETATM   11  O   UNL     1     -11.861   9.834  70.466  1.00  0.00    -0.266 OA 
HETATM   12  C   UNL     1     -12.649  14.546  72.048  1.00  0.00    -0.400 A  
HETATM   13  C   UNL     1     -12.425  14.614  70.667  1.00  0.00    -0.408 A  
HETATM   14  C   UNL     1     -12.966  15.813  72.805  1.00  0.00    -0.490 C  
HETATM   15  F   UNL     1     -11.963  16.730  72.716  1.00  0.00    -0.564 F  
HETATM   16  F   UNL     1     -14.080  16.432  72.328  1.00  0.00    -0.069 F  
HETATM   17  F   UNL     1     -13.182  15.617  74.133  1.00  0.00    -0.495 F  
ENDBRANCH   4   5
ENDBRANCH   2   4
TORSDOF 2
ENDMDL
MODEL      185
REMARK 921   NORMALIZED FREE ENERGY PREDICTED BY IDOCK:   -2.79 KCAL/MOL
REMARK 922        TOTAL FREE ENERGY PREDICTED BY IDOCK:   -3.36 KCAL/MOL
REMARK 923 INTER-LIGAND FREE ENERGY PREDICTED BY IDOCK:   -3.43 KCAL/MOL
REMARK 924 INTRA-LIGAND FREE ENERGY PREDICTED BY IDOCK:    0.08 KCAL/MOL
REMARK 927      BINDING AFFINITY PREDICTED BY RF-SCORE:    0.00 PKD
ROOT
HETATM    1  C   UNL     1      -9.871  11.094  62.815  1.00  0.00    -0.261 C  
HETATM    2  C   UNL     1     -10.532  11.460  64.108  1.00  0.00    -0.363 C  
HETATM    3  O   UNL     1     -11.739  11.578  64.262  1.00  0.00    -0.229 OA 
ENDROOT
BRANCH   2   4
HETATM    4  O   UNL     1      -9.550  11.681  65.084  1.00  0.00    -0.233 OA 
BRANCH   4   5
HETATM    5  C   UNL     1     -10.011  12.110  66.349  1.00  0.00    -0.225 A  
HETATM    6  C   UNL     1     -10.262  13.464  66.609  1.00  0.00    -0.274 A  
HETATM    7  C   UNL     1     -10.794  13.809  67.865  1.00  0.00    -0.257 A  
HETATM    8  C   UNL     1     -10.030  14.599  65.664  1.00  0.00    -0.351 C  
HETATM    9  O   UNL     1      -9.564  14.273  64.444  1.00  0.00     0.492 OA 
HETATM   10  C   UNL     1     -11.056  12.835  68.837  1.00  0.00    -0.310 A  
HETATM   11  O   UNL     1     -10.244  15.761  65.975  1.00  0.00    -0.290 OA 
HETATM   12  C   UNL     1     -10.808  11.486  68.571  1.00  0.00    -0.254 A  
HETATM   13  C   UNL     1     -10.317  11.133  67.308  1.00  0.00    -0.243 A  
HETATM   14  C   UNL     1     -11.035  10.407  69.601  1.00  0.00    -0.277 C  
HETATM   15  F   UNL     1     -11.942   9.480  69.183  1.00  0.00     0.218 F  
HETATM   16  F   UNL     1      -9.897   9.715  69.881  1.00  0.00    -0.192 F  
HETATM   17  F   UNL     1     -11.495  10.876  70.792  1.00  0.00    -0.385 F  
ENDBRANCH   4   5
ENDBRANCH   2   4
TORSDOF 2
ENDMDL
MODEL      186
REMARK 921   NORMALIZED FREE ENERGY PREDICTED BY IDOCK:   -2.76 KCAL/MOL
REMARK 922        TOTAL FREE ENERGY PREDICTED BY IDOCK:   -3.32 KCAL/MOL
REMARK 923 INTER-LIGAND FREE ENERGY PREDICTED BY IDOCK:   -3.39 KCAL/MOL
REMARK 924 INTRA-LIGAND FREE ENERGY PREDICTED BY IDOCK:    0.07 KCAL/MOL
REMARK 927      BINDING AFFINITY PREDICTED BY RF-SCORE:    0.00 PKD
ROOT
HETATM    1  C   UNL     1      -7.832   6.955  67.085  1.00  0.00    -0.109 C  
HETATM    2  C   UNL     1      -8.974   7.488  67.894  1.00  0.00    -0.131 C  
HETATM    3  O   UNL     1     -10.132   7.108  67.796  1.00  0.00    -0.154 OA 
ENDROOT
BRANCH   2   4
HETATM    4  O   UNL     1      -8.510   8.506  68.737  1.00  0.00    -0.121 OA 
BRANCH   4   5
HETATM    5  C   UNL     1      -9.148   8.620  69.993  1.00  0.00    -0.156 A  
HETATM    6  C   UNL     1      -8.577   8.073  71.150  1.00  0.00    -0.145 A  
HETATM    7  C   UNL     1      -9.229   8.293  72.377  1.00  0.00    -0.326 A  
HETATM    8  C   UNL     1      -7.314   7.275  71.214  1.00  0.00    -0.077 C  
HETATM    9  O   UNL     1      -6.660   7.099  70.051  1.00  0.00    -0.047 OA 
HETATM   10  C   UNL     1     -10.421   9.024  72.448  1.00  0.00     0.129 A  
HETATM   11  O   UNL     1      -6.894   6.801  72.260  1.00  0.00    -0.062 OA 
HETATM   12  C   UNL     1     -10.983   9.572  71.292  1.00  0.00    -0.440 A  
HETATM   13  C   UNL     1     -10.317   9.391  70.073  1.00  0.00    -0.265 A  
HETATM   14  C   UNL     1     -12.287  10.332  71.314  1.00  0.00    -0.403 C  
HETATM   15  F   UNL     1     -12.143  11.611  70.865  1.00  0.00    -0.436 F  
HETATM   16  F   UNL     1     -13.229   9.761  70.515  1.00  0.00    -0.262 F  
HETATM   17  F   UNL     1     -12.845  10.425  72.549  1.00  0.00    -0.388 F  
ENDBRANCH   4   5
ENDBRANCH   2   4
TORSDOF 2
ENDMDL
MODEL      187
REMARK 921   NORMALIZED FREE ENERGY PREDICTED BY IDOCK:   -2.74 KCAL/MOL
REMARK 922        TOTAL FREE ENERGY PREDICTED BY IDOCK:   -3.30 KCAL/MOL
REMARK 923 INTER-LIGAND FREE ENERGY PREDICTED BY IDOCK:   -3.91 KCAL/MOL
REMARK 924 INTRA-LIGAND FREE ENERGY PREDICTED BY IDOCK:    0.61 KCAL/MOL
REMARK 927      BINDING AFFINITY PREDICTED BY RF-SCORE:    0.00 PKD
ROOT
HETATM    1  C   UNL     1     -12.154  10.655  69.844  1.00  0.00    -0.372 C  
HETATM    2  C   UNL     1     -12.366  10.046  71.196  1.00  0.00    -0.377 C  
HETATM    3  O   UNL     1     -13.345  10.243  71.900  1.00  0.00    -0.415 OA 
ENDROOT
BRANCH   2   4
HETATM    4  O   UNL     1     -11.255   9.260  71.529  1.00  0.00    -0.337 OA 
BRANCH   4   5
HETATM    5  C   UNL     1     -10.320   9.027  70.496  1.00  0.00    -0.218 A  
HETATM    6  C   UNL     1     -10.357   7.850  69.735  1.00  0.00    -0.219 A  
HETATM    7  C   UNL     1      -9.446   7.721  68.671  1.00  0.00    -0.152 A  
HETATM    8  C   UNL     1     -11.294   6.701  69.936  1.00  0.00    -0.364 C  
HETATM    9  O   UNL     1     -12.199   6.837  70.923  1.00  0.00    -0.385 OA 
HETATM   10  C   UNL     1      -8.517   8.728  68.381  1.00  0.00    -0.130 A  
HETATM   11  O   UNL     1     -11.244   5.691  69.251  1.00  0.00    -0.206 OA 
HETATM   12  C   UNL     1      -8.488   9.901  69.139  1.00  0.00    -0.148 A  
HETATM   13  C   UNL     1      -9.419  10.053  70.174  1.00  0.00    -0.124 A  
HETATM   14  C   UNL     1      -7.479  10.996  68.890  1.00  0.00    -0.123 C  
HETATM   15  F   UNL     1      -8.073  12.181  68.578  1.00  0.00    -0.139 F  
HETATM   16  F   UNL     1      -6.707  11.242  69.983  1.00  0.00    -0.140 F  
HETATM   17  F   UNL     1      -6.618  10.725  67.874  1.00  0.00    -0.061 F  
ENDBRANCH   4   5
ENDBRANCH   2   4
TORSDOF 2
ENDMDL
MODEL      188
REMARK 921   NORMALIZED FREE ENERGY PREDICTED BY IDOCK:   -2.74 KCAL/MOL
REMARK 922        TOTAL FREE ENERGY PREDICTED BY IDOCK:   -3.29 KCAL/MOL
REMARK 923 INTER-LIGAND FREE ENERGY PREDICTED BY IDOCK:   -2.97 KCAL/MOL
REMARK 924 INTRA-LIGAND FREE ENERGY PREDICTED BY IDOCK:   -0.32 KCAL/MOL
REMARK 927      BINDING AFFINITY PREDICTED BY RF-SCORE:    0.00 PKD
ROOT
HETATM    1  C   UNL     1      -7.384   3.584  66.221  1.00  0.00    -0.076 C  
HETATM    2  C   UNL     1      -8.864   3.616  66.452  1.00  0.00    -0.129 C  
HETATM    3  O   UNL     1      -9.495   2.744  67.031  1.00  0.00    -0.125 OA 
ENDROOT
BRANCH   2   4
HETATM    4  O   UNL     1      -9.399   4.771  65.867  1.00  0.00    -0.143 OA 
BRANCH   4   5
HETATM    5  C   UNL     1      -9.421   5.930  66.675  1.00  0.00    -0.151 A  
HETATM    6  C   UNL     1      -8.816   7.121  66.251  1.00  0.00    -0.166 A  
HETATM    7  C   UNL     1      -8.946   8.257  67.072  1.00  0.00    -0.159 A  
HETATM    8  C   UNL     1      -8.045   7.315  64.985  1.00  0.00    -0.120 C  
HETATM    9  O   UNL     1      -7.955   6.245  64.173  1.00  0.00    -0.114 OA 
HETATM   10  C   UNL     1      -9.645   8.204  68.284  1.00  0.00    -0.154 A  
HETATM   11  O   UNL     1      -7.517   8.379  64.698  1.00  0.00    -0.089 OA 
HETATM   12  C   UNL     1     -10.250   7.014  68.698  1.00  0.00    -0.182 A  
HETATM   13  C   UNL     1     -10.159   5.891  67.867  1.00  0.00    -0.193 A  
HETATM   14  C   UNL     1     -10.978   6.899  70.016  1.00  0.00    -0.279 C  
HETATM   15  F   UNL     1     -12.285   6.550  69.851  1.00  0.00    -0.412 F  
HETATM   16  F   UNL     1     -10.437   5.946  70.821  1.00  0.00    -0.248 F  
HETATM   17  F   UNL     1     -10.983   8.048  70.741  1.00  0.00    -0.230 F  
ENDBRANCH   4   5
ENDBRANCH   2   4
TORSDOF 2
ENDMDL
MODEL      189
REMARK 921   NORMALIZED FREE ENERGY PREDICTED BY IDOCK:   -2.74 KCAL/MOL
REMARK 922        TOTAL FREE ENERGY PREDICTED BY IDOCK:   -3.29 KCAL/MOL
REMARK 923 INTER-LIGAND FREE ENERGY PREDICTED BY IDOCK:   -3.51 KCAL/MOL
REMARK 924 INTRA-LIGAND FREE ENERGY PREDICTED BY IDOCK:    0.22 KCAL/MOL
REMARK 927      BINDING AFFINITY PREDICTED BY RF-SCORE:    0.00 PKD
ROOT
HETATM    1  C   UNL     1      -7.562  13.218  68.681  1.00  0.00    -0.094 C  
HETATM    2  C   UNL     1      -8.753  13.937  68.125  1.00  0.00    -0.182 C  
HETATM    3  O   UNL     1      -9.473  14.687  68.768  1.00  0.00    -0.204 OA 
ENDROOT
BRANCH   2   4
HETATM    4  O   UNL     1      -8.924  13.580  66.781  1.00  0.00    -0.233 OA 
BRANCH   4   5
HETATM    5  C   UNL     1      -9.382  12.265  66.536  1.00  0.00    -0.230 A  
HETATM    6  C   UNL     1     -10.664  12.027  66.022  1.00  0.00    -0.317 A  
HETATM    7  C   UNL     1     -11.023  10.699  65.729  1.00  0.00     0.091 A  
HETATM    8  C   UNL     1     -11.704  13.063  65.737  1.00  0.00    -0.382 C  
HETATM    9  O   UNL     1     -11.352  14.341  65.972  1.00  0.00    -0.322 OA 
HETATM   10  C   UNL     1     -10.136   9.638  65.953  1.00  0.00    -0.304 A  
HETATM   11  O   UNL     1     -12.815  12.775  65.318  1.00  0.00    -0.674 OA 
HETATM   12  C   UNL     1      -8.857   9.882  66.460  1.00  0.00    -0.154 A  
HETATM   13  C   UNL     1      -8.480  11.206  66.716  1.00  0.00    -0.153 A  
HETATM   14  C   UNL     1      -7.883   8.768  66.756  1.00  0.00    -0.097 C  
HETATM   15  F   UNL     1      -6.732   8.888  66.039  1.00  0.00    -0.064 F  
HETATM   16  F   UNL     1      -7.507   8.747  68.064  1.00  0.00    -0.086 F  
HETATM   17  F   UNL     1      -8.371   7.528  66.485  1.00  0.00    -0.110 F  
ENDBRANCH   4   5
ENDBRANCH   2   4
TORSDOF 2
ENDMDL
MODEL      190
REMARK 921   NORMALIZED FREE ENERGY PREDICTED BY IDOCK:   -2.71 KCAL/MOL
REMARK 922        TOTAL FREE ENERGY PREDICTED BY IDOCK:   -3.26 KCAL/MOL
REMARK 923 INTER-LIGAND FREE ENERGY PREDICTED BY IDOCK:   -3.12 KCAL/MOL
REMARK 924 INTRA-LIGAND FREE ENERGY PREDICTED BY IDOCK:   -0.15 KCAL/MOL
REMARK 927      BINDING AFFINITY PREDICTED BY RF-SCORE:    0.00 PKD
ROOT
HETATM    1  C   UNL     1      -7.072   8.456  68.797  1.00  0.00    -0.068 C  
HETATM    2  C   UNL     1      -7.822   8.605  70.085  1.00  0.00    -0.098 C  
HETATM    3  O   UNL     1      -8.039   9.670  70.643  1.00  0.00    -0.243 OA 
ENDROOT
BRANCH   2   4
HETATM    4  O   UNL     1      -8.191   7.337  70.554  1.00  0.00    -0.120 OA 
BRANCH   4   5
HETATM    5  C   UNL     1      -9.244   7.301  71.496  1.00  0.00    -0.144 A  
HETATM    6  C   UNL     1      -9.018   6.903  72.822  1.00  0.00    -0.146 A  
HETATM    7  C   UNL     1     -10.097   6.967  73.724  1.00  0.00    -0.390 A  
HETATM    8  C   UNL     1      -7.721   6.421  73.387  1.00  0.00    -0.093 C  
HETATM    9  O   UNL     1      -6.674   6.401  72.541  1.00  0.00    -0.063 OA 
HETATM   10  C   UNL     1     -11.364   7.402  73.315  1.00  0.00    -0.076 A  
HETATM   11  O   UNL     1      -7.610   6.060  74.549  1.00  0.00    -0.094 OA 
HETATM   12  C   UNL     1     -11.581   7.802  71.994  1.00  0.00    -0.347 A  
HETATM   13  C   UNL     1     -10.502   7.779  71.101  1.00  0.00    -0.227 A  
HETATM   14  C   UNL     1     -12.938   8.238  71.499  1.00  0.00    -0.291 C  
HETATM   15  F   UNL     1     -12.925   9.514  71.022  1.00  0.00    -0.351 F  
HETATM   16  F   UNL     1     -13.386   7.462  70.474  1.00  0.00    -0.059 F  
HETATM   17  F   UNL     1     -13.907   8.200  72.452  1.00  0.00    -0.308 F  
ENDBRANCH   4   5
ENDBRANCH   2   4
TORSDOF 2
ENDMDL
MODEL      191
REMARK 921   NORMALIZED FREE ENERGY PREDICTED BY IDOCK:   -2.69 KCAL/MOL
REMARK 922        TOTAL FREE ENERGY PREDICTED BY IDOCK:   -3.24 KCAL/MOL
REMARK 923 INTER-LIGAND FREE ENERGY PREDICTED BY IDOCK:   -3.24 KCAL/MOL
REMARK 924 INTRA-LIGAND FREE ENERGY PREDICTED BY IDOCK:    0.01 KCAL/MOL
REMARK 927      BINDING AFFINITY PREDICTED BY RF-SCORE:    0.00 PKD
ROOT
HETATM    1  C   UNL     1     -10.061  13.358  66.184  1.00  0.00    -0.304 C  
HETATM    2  C   UNL     1     -11.074  12.258  66.264  1.00  0.00    -0.302 C  
HETATM    3  O   UNL     1     -12.005  12.228  67.055  1.00  0.00    -0.576 OA 
ENDROOT
BRANCH   2   4
HETATM    4  O   UNL     1     -10.758  11.268  65.325  1.00  0.00    -0.281 OA 
BRANCH   4   5
HETATM    5  C   UNL     1      -9.735  10.363  65.690  1.00  0.00    -0.236 A  
HETATM    6  C   UNL     1      -9.029   9.637  64.721  1.00  0.00    -0.268 A  
HETATM    7  C   UNL     1      -7.971   8.815  65.151  1.00  0.00    -0.125 A  
HETATM    8  C   UNL     1      -9.284   9.657  63.248  1.00  0.00    -0.092 C  
HETATM    9  O   UNL     1     -10.264  10.475  62.824  1.00  0.00    -0.058 OA 
HETATM   10  C   UNL     1      -7.634   8.711  66.507  1.00  0.00    -0.088 A  
HETATM   11  O   UNL     1      -8.645   8.968  62.466  1.00  0.00    -0.205 OA 
HETATM   12  C   UNL     1      -8.338   9.441  67.467  1.00  0.00    -0.122 A  
HETATM   13  C   UNL     1      -9.366  10.292  67.041  1.00  0.00    -0.177 A  
HETATM   14  C   UNL     1      -8.038   9.330  68.942  1.00  0.00    -0.103 C  
HETATM   15  F   UNL     1      -7.672  10.525  69.484  1.00  0.00    -0.118 F  
HETATM   16  F   UNL     1      -9.118   8.911  69.657  1.00  0.00    -0.139 F  
HETATM   17  F   UNL     1      -7.034   8.460  69.232  1.00  0.00    -0.050 F  
ENDBRANCH   4   5
ENDBRANCH   2   4
TORSDOF 2
ENDMDL
MODEL      192
REMARK 921   NORMALIZED FREE ENERGY PREDICTED BY IDOCK:   -2.63 KCAL/MOL
REMARK 922        TOTAL FREE ENERGY PREDICTED BY IDOCK:   -3.18 KCAL/MOL
REMARK 923 INTER-LIGAND FREE ENERGY PREDICTED BY IDOCK:   -2.76 KCAL/MOL
REMARK 924 INTRA-LIGAND FREE ENERGY PREDICTED BY IDOCK:   -0.41 KCAL/MOL
REMARK 927      BINDING AFFINITY PREDICTED BY RF-SCORE:    0.00 PKD
ROOT
HETATM    1  C   UNL     1      -6.339   9.409  63.417  1.00  0.00    -0.093 C  
HETATM    2  C   UNL     1      -5.983   9.951  64.767  1.00  0.00    -0.099 C  
HETATM    3  O   UNL     1      -5.525  11.066  64.968  1.00  0.00    -0.152 OA 
ENDROOT
BRANCH   2   4
HETATM    4  O   UNL     1      -6.220   8.969  65.738  1.00  0.00    -0.055 OA 
BRANCH   4   5
HETATM    5  C   UNL     1      -7.570   8.760  66.100  1.00  0.00    -0.094 A  
HETATM    6  C   UNL     1      -8.148   7.484  66.039  1.00  0.00    -0.123 A  
HETATM    7  C   UNL     1      -9.473   7.336  66.490  1.00  0.00    -0.218 A  
HETATM    8  C   UNL     1      -7.483   6.239  65.545  1.00  0.00    -0.083 C  
HETATM    9  O   UNL     1      -6.201   6.364  65.155  1.00  0.00    -0.029 OA 
HETATM   10  C   UNL     1     -10.204   8.428  66.975  1.00  0.00    -0.377 A  
HETATM   11  O   UNL     1      -8.065   5.166  65.491  1.00  0.00    -0.109 OA 
HETATM   12  C   UNL     1      -9.620   9.696  67.038  1.00  0.00    -0.221 A  
HETATM   13  C   UNL     1      -8.289   9.842  66.629  1.00  0.00    -0.125 A  
HETATM   14  C   UNL     1     -10.382  10.909  67.515  1.00  0.00    -0.202 C  
HETATM   15  F   UNL     1      -9.801  11.484  68.605  1.00  0.00    -0.186 F  
HETATM   16  F   UNL     1     -10.442  11.884  66.567  1.00  0.00    -0.229 F  
HETATM   17  F   UNL     1     -11.668  10.645  67.867  1.00  0.00    -0.369 F  
ENDBRANCH   4   5
ENDBRANCH   2   4
TORSDOF 2
ENDMDL
MODEL      193
REMARK 921   NORMALIZED FREE ENERGY PREDICTED BY IDOCK:   -2.60 KCAL/MOL
REMARK 922        TOTAL FREE ENERGY PREDICTED BY IDOCK:   -3.14 KCAL/MOL
REMARK 923 INTER-LIGAND FREE ENERGY PREDICTED BY IDOCK:   -3.11 KCAL/MOL
REMARK 924 INTRA-LIGAND FREE ENERGY PREDICTED BY IDOCK:   -0.03 KCAL/MOL
REMARK 927      BINDING AFFINITY PREDICTED BY RF-SCORE:    0.00 PKD
ROOT
HETATM    1  C   UNL     1      -6.357   4.307  69.069  1.00  0.00    -0.032 C  
HETATM    2  C   UNL     1      -7.631   4.939  69.538  1.00  0.00    -0.056 C  
HETATM    3  O   UNL     1      -8.484   5.413  68.801  1.00  0.00    -0.096 OA 
ENDROOT
BRANCH   2   4
HETATM    4  O   UNL     1      -7.663   4.933  70.939  1.00  0.00    -0.074 OA 
BRANCH   4   5
HETATM    5  C   UNL     1      -8.920   5.173  71.538  1.00  0.00    -0.137 A  
HETATM    6  C   UNL     1      -9.579   4.173  72.267  1.00  0.00    -0.200 A  
HETATM    7  C   UNL     1     -10.790   4.506  72.902  1.00  0.00    -0.276 A  
HETATM    8  C   UNL     1      -9.110   2.765  72.452  1.00  0.00    -0.087 C  
HETATM    9  O   UNL     1      -7.930   2.451  71.886  1.00  0.00    -0.051 OA 
HETATM   10  C   UNL     1     -11.334   5.793  72.803  1.00  0.00    -0.328 A  
HETATM   11  O   UNL     1      -9.758   1.939  73.077  1.00  0.00    -0.080 OA 
HETATM   12  C   UNL     1     -10.670   6.787  72.079  1.00  0.00    -0.245 A  
HETATM   13  C   UNL     1      -9.445   6.473  71.479  1.00  0.00    -0.162 A  
HETATM   14  C   UNL     1     -11.239   8.175  71.911  1.00  0.00    -0.290 C  
HETATM   15  F   UNL     1     -10.412   9.133  72.414  1.00  0.00    -0.341 F  
HETATM   16  F   UNL     1     -11.430   8.497  70.603  1.00  0.00    -0.268 F  
HETATM   17  F   UNL     1     -12.439   8.352  72.522  1.00  0.00    -0.384 F  
ENDBRANCH   4   5
ENDBRANCH   2   4
TORSDOF 2
ENDMDL
MODEL      194
REMARK 921   NORMALIZED FREE ENERGY PREDICTED BY IDOCK:   -2.60 KCAL/MOL
REMARK 922        TOTAL FREE ENERGY PREDICTED BY IDOCK:   -3.14 KCAL/MOL
REMARK 923 INTER-LIGAND FREE ENERGY PREDICTED BY IDOCK:   -2.86 KCAL/MOL
REMARK 924 INTRA-LIGAND FREE ENERGY PREDICTED BY IDOCK:   -0.27 KCAL/MOL
REMARK 927      BINDING AFFINITY PREDICTED BY RF-SCORE:    0.00 PKD
ROOT
HETATM    1  C   UNL     1      -7.133   6.798  66.870  1.00  0.00    -0.075 C  
HETATM    2  C   UNL     1      -8.343   6.050  67.338  1.00  0.00    -0.105 C  
HETATM    3  O   UNL     1      -9.300   5.766  66.633  1.00  0.00    -0.137 OA 
ENDROOT
BRANCH   2   4
HETATM    4  O   UNL     1      -8.215   5.771  68.706  1.00  0.00    -0.100 OA 
BRANCH   4   5
HETATM    5  C   UNL     1      -9.187   6.345  69.555  1.00  0.00    -0.144 A  
HETATM    6  C   UNL     1      -9.833   5.583  70.538  1.00  0.00    -0.254 A  
HETATM    7  C   UNL     1     -10.731   6.239  71.400  1.00  0.00    -0.297 A  
HETATM    8  C   UNL     1      -9.652   4.118  70.776  1.00  0.00    -0.190 C  
HETATM    9  O   UNL     1      -8.760   3.492  69.985  1.00  0.00    -0.066 OA 
HETATM   10  C   UNL     1     -10.987   7.611  71.278  1.00  0.00    -0.260 A  
HETATM   11  O   UNL     1     -10.277   3.514  71.634  1.00  0.00    -0.101 OA 
HETATM   12  C   UNL     1     -10.335   8.366  70.300  1.00  0.00    -0.212 A  
HETATM   13  C   UNL     1      -9.410   7.727  69.466  1.00  0.00    -0.149 A  
HETATM   14  C   UNL     1     -10.610   9.838  70.105  1.00  0.00    -0.285 C  
HETATM   15  F   UNL     1      -9.491  10.596  70.273  1.00  0.00     0.113 F  
HETATM   16  F   UNL     1     -11.062  10.115  68.852  1.00  0.00    -0.232 F  
HETATM   17  F   UNL     1     -11.539  10.339  70.962  1.00  0.00    -0.370 F  
ENDBRANCH   4   5
ENDBRANCH   2   4
TORSDOF 2
ENDMDL
MODEL      195
REMARK 921   NORMALIZED FREE ENERGY PREDICTED BY IDOCK:   -2.57 KCAL/MOL
REMARK 922        TOTAL FREE ENERGY PREDICTED BY IDOCK:   -3.11 KCAL/MOL
REMARK 923 INTER-LIGAND FREE ENERGY PREDICTED BY IDOCK:   -3.16 KCAL/MOL
REMARK 924 INTRA-LIGAND FREE ENERGY PREDICTED BY IDOCK:    0.05 KCAL/MOL
REMARK 927      BINDING AFFINITY PREDICTED BY RF-SCORE:    0.00 PKD
ROOT
HETATM    1  C   UNL     1      -9.998   9.103  70.833  1.00  0.00    -0.357 C  
HETATM    2  C   UNL     1     -10.674   8.086  69.966  1.00  0.00    -0.244 C  
HETATM    3  O   UNL     1     -11.628   7.404  70.311  1.00  0.00    -0.232 OA 
ENDROOT
BRANCH   2   4
HETATM    4  O   UNL     1     -10.016   8.019  68.731  1.00  0.00    -0.178 OA 
BRANCH   4   5
HETATM    5  C   UNL     1      -9.400   9.210  68.284  1.00  0.00    -0.135 A  
HETATM    6  C   UNL     1      -8.020   9.268  68.047  1.00  0.00    -0.100 A  
HETATM    7  C   UNL     1      -7.488  10.463  67.527  1.00  0.00    -0.093 A  
HETATM    8  C   UNL     1      -7.039   8.164  68.282  1.00  0.00    -0.081 C  
HETATM    9  O   UNL     1      -7.547   7.003  68.735  1.00  0.00    -0.100 OA 
HETATM   10  C   UNL     1      -8.304  11.570  67.265  1.00  0.00    -0.154 A  
HETATM   11  O   UNL     1      -5.842   8.301  68.081  1.00  0.00    -0.036 OA 
HETATM   12  C   UNL     1      -9.680  11.504  67.498  1.00  0.00    -0.189 A  
HETATM   13  C   UNL     1     -10.222  10.305  67.977  1.00  0.00    -0.200 A  
HETATM   14  C   UNL     1     -10.592  12.685  67.269  1.00  0.00    -0.228 C  
HETATM   15  F   UNL     1     -11.562  12.414  66.351  1.00  0.00    -0.350 F  
HETATM   16  F   UNL     1     -11.246  13.057  68.403  1.00  0.00    -0.240 F  
HETATM   17  F   UNL     1      -9.948  13.796  66.823  1.00  0.00    -0.245 F  
ENDBRANCH   4   5
ENDBRANCH   2   4
TORSDOF 2
ENDMDL
MODEL      196
REMARK 921   NORMALIZED FREE ENERGY PREDICTED BY IDOCK:   -2.55 KCAL/MOL
REMARK 922        TOTAL FREE ENERGY PREDICTED BY IDOCK:   -3.09 KCAL/MOL
REMARK 923 INTER-LIGAND FREE ENERGY PREDICTED BY IDOCK:   -3.08 KCAL/MOL
REMARK 924 INTRA-LIGAND FREE ENERGY PREDICTED BY IDOCK:   -0.01 KCAL/MOL
REMARK 927      BINDING AFFINITY PREDICTED BY RF-SCORE:    0.00 PKD
ROOT
HETATM    1  C   UNL     1     -11.120  12.880  67.540  1.00  0.00    -0.302 C  
HETATM    2  C   UNL     1     -10.827  12.065  66.318  1.00  0.00    -0.279 C  
HETATM    3  O   UNL     1     -10.638  12.529  65.203  1.00  0.00    -0.278 OA 
ENDROOT
BRANCH   2   4
HETATM    4  O   UNL     1     -10.848  10.704  66.652  1.00  0.00    -0.217 OA 
BRANCH   4   5
HETATM    5  C   UNL     1      -9.684   9.966  66.342  1.00  0.00    -0.212 A  
HETATM    6  C   UNL     1      -8.963   9.294  67.339  1.00  0.00    -0.135 A  
HETATM    7  C   UNL     1      -7.860   8.513  66.945  1.00  0.00    -0.092 A  
HETATM    8  C   UNL     1      -9.261   9.312  68.804  1.00  0.00    -0.136 C  
HETATM    9  O   UNL     1     -10.342  10.019  69.183  1.00  0.00    -0.191 OA 
HETATM   10  C   UNL     1      -7.479   8.416  65.601  1.00  0.00    -0.081 A  
HETATM   11  O   UNL     1      -8.565   8.725  69.618  1.00  0.00    -0.125 OA 
HETATM   12  C   UNL     1      -8.205   9.084  64.611  1.00  0.00    -0.160 A  
HETATM   13  C   UNL     1      -9.327   9.829  64.992  1.00  0.00    -0.325 A  
HETATM   14  C   UNL     1      -7.807   9.041  63.156  1.00  0.00    -0.133 C  
HETATM   15  F   UNL     1      -8.788   8.515  62.371  1.00  0.00    -0.204 F  
HETATM   16  F   UNL     1      -7.554  10.281  62.655  1.00  0.00    -0.126 F  
HETATM   17  F   UNL     1      -6.692   8.302  62.914  1.00  0.00    -0.083 F  
ENDBRANCH   4   5
ENDBRANCH   2   4
TORSDOF 2
ENDMDL
MODEL      197
REMARK 921   NORMALIZED FREE ENERGY PREDICTED BY IDOCK:   -2.53 KCAL/MOL
REMARK 922        TOTAL FREE ENERGY PREDICTED BY IDOCK:   -3.06 KCAL/MOL
REMARK 923 INTER-LIGAND FREE ENERGY PREDICTED BY IDOCK:   -3.61 KCAL/MOL
REMARK 924 INTRA-LIGAND FREE ENERGY PREDICTED BY IDOCK:    0.55 KCAL/MOL
REMARK 927      BINDING AFFINITY PREDICTED BY RF-SCORE:    0.00 PKD
ROOT
HETATM    1  C   UNL     1     -10.483   7.981  66.979  1.00  0.00    -0.410 C  
HETATM    2  C   UNL     1     -10.407   9.330  67.625  1.00  0.00    -0.253 C  
HETATM    3  O   UNL     1     -11.029   9.657  68.625  1.00  0.00    -0.195 OA 
ENDROOT
BRANCH   2   4
HETATM    4  O   UNL     1      -9.551  10.152  66.880  1.00  0.00    -0.167 OA 
BRANCH   4   5
HETATM    5  C   UNL     1      -9.299   9.752  65.549  1.00  0.00    -0.240 A  
HETATM    6  C   UNL     1      -9.841  10.455  64.464  1.00  0.00    -0.405 A  
HETATM    7  C   UNL     1      -9.483  10.047  63.166  1.00  0.00    -0.229 A  
HETATM    8  C   UNL     1     -10.767  11.626  64.550  1.00  0.00    -0.322 C  
HETATM    9  O   UNL     1     -11.078  12.051  65.788  1.00  0.00    -0.303 OA 
HETATM   10  C   UNL     1      -8.622   8.963  62.955  1.00  0.00    -0.149 A  
HETATM   11  O   UNL     1     -11.226  12.168  63.555  1.00  0.00    -0.423 OA 
HETATM   12  C   UNL     1      -8.081   8.269  64.040  1.00  0.00    -0.128 A  
HETATM   13  C   UNL     1      -8.401   8.695  65.335  1.00  0.00    -0.165 A  
HETATM   14  C   UNL     1      -7.182   7.069  63.860  1.00  0.00    -0.070 C  
HETATM   15  F   UNL     1      -5.954   7.260  64.418  1.00  0.00    -0.035 F  
HETATM   16  F   UNL     1      -7.690   5.953  64.450  1.00  0.00    -0.073 F  
HETATM   17  F   UNL     1      -6.960   6.742  62.560  1.00  0.00    -0.043 F  
ENDBRANCH   4   5
ENDBRANCH   2   4
TORSDOF 2
ENDMDL
MODEL      198
REMARK 921   NORMALIZED FREE ENERGY PREDICTED BY IDOCK:   -2.53 KCAL/MOL
REMARK 922        TOTAL FREE ENERGY PREDICTED BY IDOCK:   -3.06 KCAL/MOL
REMARK 923 INTER-LIGAND FREE ENERGY PREDICTED BY IDOCK:   -3.54 KCAL/MOL
REMARK 924 INTRA-LIGAND FREE ENERGY PREDICTED BY IDOCK:    0.48 KCAL/MOL
REMARK 927      BINDING AFFINITY PREDICTED BY RF-SCORE:    0.00 PKD
ROOT
HETATM    1  C   UNL     1      -6.534   8.664  68.810  1.00  0.00    -0.053 C  
HETATM    2  C   UNL     1      -7.193   9.278  70.006  1.00  0.00    -0.078 C  
HETATM    3  O   UNL     1      -7.246  10.479  70.229  1.00  0.00    -0.226 OA 
ENDROOT
BRANCH   2   4
HETATM    4  O   UNL     1      -7.694   8.263  70.832  1.00  0.00    -0.072 OA 
BRANCH   4   5
HETATM    5  C   UNL     1      -8.851   7.595  70.371  1.00  0.00    -0.144 A  
HETATM    6  C   UNL     1      -9.758   7.013  71.268  1.00  0.00    -0.171 A  
HETATM    7  C   UNL     1     -10.928   6.434  70.742  1.00  0.00    -0.346 A  
HETATM    8  C   UNL     1      -9.612   6.957  72.755  1.00  0.00    -0.146 C  
HETATM    9  O   UNL     1      -8.518   7.549  73.269  1.00  0.00    -0.115 OA 
HETATM   10  C   UNL     1     -11.180   6.424  69.365  1.00  0.00    -0.459 A  
HETATM   11  O   UNL     1     -10.432   6.402  73.470  1.00  0.00    -0.239 OA 
HETATM   12  C   UNL     1     -10.274   7.009  68.476  1.00  0.00    -0.183 A  
HETATM   13  C   UNL     1      -9.128   7.623  68.996  1.00  0.00    -0.144 A  
HETATM   14  C   UNL     1     -10.484   6.985  66.982  1.00  0.00    -0.316 C  
HETATM   15  F   UNL     1     -10.557   8.239  66.453  1.00  0.00    -0.348 F  
HETATM   16  F   UNL     1      -9.463   6.365  66.329  1.00  0.00    -0.176 F  
HETATM   17  F   UNL     1     -11.621   6.346  66.599  1.00  0.00    -0.318 F  
ENDBRANCH   4   5
ENDBRANCH   2   4
TORSDOF 2
ENDMDL
MODEL      199
REMARK 921   NORMALIZED FREE ENERGY PREDICTED BY IDOCK:   -2.47 KCAL/MOL
REMARK 922        TOTAL FREE ENERGY PREDICTED BY IDOCK:   -2.99 KCAL/MOL
REMARK 923 INTER-LIGAND FREE ENERGY PREDICTED BY IDOCK:   -3.76 KCAL/MOL
REMARK 924 INTRA-LIGAND FREE ENERGY PREDICTED BY IDOCK:    0.76 KCAL/MOL
REMARK 927      BINDING AFFINITY PREDICTED BY RF-SCORE:    0.00 PKD
ROOT
HETATM    1  C   UNL     1      -8.605   8.845  62.360  1.00  0.00    -0.208 C  
HETATM    2  C   UNL     1      -8.407   9.689  63.581  1.00  0.00    -0.172 C  
HETATM    3  O   UNL     1      -7.468   9.580  64.355  1.00  0.00    -0.109 OA 
ENDROOT
BRANCH   2   4
HETATM    4  O   UNL     1      -9.480  10.581  63.707  1.00  0.00    -0.247 OA 
BRANCH   4   5
HETATM    5  C   UNL     1      -9.818  10.972  65.022  1.00  0.00    -0.269 A  
HETATM    6  C   UNL     1     -11.056  11.565  65.307  1.00  0.00    -0.257 A  
HETATM    7  C   UNL     1     -11.356  11.856  66.651  1.00  0.00    -0.400 A  
HETATM    8  C   UNL     1     -12.114  11.915  64.310  1.00  0.00    -0.249 C  
HETATM    9  O   UNL     1     -11.854  11.598  63.029  1.00  0.00    -0.165 OA 
HETATM   10  C   UNL     1     -10.445  11.576  67.677  1.00  0.00    -0.218 A  
HETATM   11  O   UNL     1     -13.158  12.462  64.633  1.00  0.00    -0.825 OA 
HETATM   12  C   UNL     1      -9.215  10.980  67.387  1.00  0.00    -0.157 A  
HETATM   13  C   UNL     1      -8.927  10.651  66.057  1.00  0.00    -0.189 A  
HETATM   14  C   UNL     1      -8.186  10.698  68.455  1.00  0.00    -0.128 C  
HETATM   15  F   UNL     1      -7.884   9.373  68.540  1.00  0.00    -0.086 F  
HETATM   16  F   UNL     1      -7.008  11.334  68.215  1.00  0.00    -0.063 F  
HETATM   17  F   UNL     1      -8.573  11.078  69.702  1.00  0.00    -0.014 F  
ENDBRANCH   4   5
ENDBRANCH   2   4
TORSDOF 2
ENDMDL
MODEL      200
REMARK 921   NORMALIZED FREE ENERGY PREDICTED BY IDOCK:   -2.41 KCAL/MOL
REMARK 922        TOTAL FREE ENERGY PREDICTED BY IDOCK:   -2.93 KCAL/MOL
REMARK 923 INTER-LIGAND FREE ENERGY PREDICTED BY IDOCK:   -2.72 KCAL/MOL
REMARK 924 INTRA-LIGAND FREE ENERGY PREDICTED BY IDOCK:   -0.20 KCAL/MOL
REMARK 927      BINDING AFFINITY PREDICTED BY RF-SCORE:    0.00 PKD
ROOT
HETATM    1  C   UNL     1      -8.164   5.930  68.447  1.00  0.00    -0.109 C  
HETATM    2  C   UNL     1      -9.529   5.863  67.834  1.00  0.00    -0.110 C  
HETATM    3  O   UNL     1     -10.565   5.707  68.462  1.00  0.00    -0.213 OA 
ENDROOT
BRANCH   2   4
HETATM    4  O   UNL     1      -9.416   5.966  66.441  1.00  0.00    -0.154 OA 
BRANCH   4   5
HETATM    5  C   UNL     1      -9.140   7.254  65.928  1.00  0.00    -0.021 A  
HETATM    6  C   UNL     1      -8.406   7.422  64.745  1.00  0.00     0.000 A  
HETATM    7  C   UNL     1      -8.238   8.729  64.252  1.00  0.00    -0.164 A  
HETATM    8  C   UNL     1      -7.784   6.332  63.933  1.00  0.00    -0.107 C  
HETATM    9  O   UNL     1      -7.979   5.075  64.374  1.00  0.00    -0.092 OA 
HETATM   10  C   UNL     1      -8.774   9.836  64.923  1.00  0.00    -0.207 A  
HETATM   11  O   UNL     1      -7.129   6.561  62.928  1.00  0.00    -0.044 OA 
HETATM   12  C   UNL     1      -9.509   9.661  66.099  1.00  0.00    -0.274 A  
HETATM   13  C   UNL     1      -9.714   8.359  66.573  1.00  0.00    -0.330 A  
HETATM   14  C   UNL     1     -10.069  10.826  66.878  1.00  0.00    -0.212 C  
HETATM   15  F   UNL     1     -11.426  10.765  66.988  1.00  0.00    -0.323 F  
HETATM   16  F   UNL     1      -9.594  10.869  68.152  1.00  0.00    -0.149 F  
HETATM   17  F   UNL     1      -9.789  12.037  66.329  1.00  0.00    -0.215 F  
ENDBRANCH   4   5
ENDBRANCH   2   4
TORSDOF 2
ENDMDL
MODEL      201
REMARK 921   NORMALIZED FREE ENERGY PREDICTED BY IDOCK:   -2.39 KCAL/MOL
REMARK 922        TOTAL FREE ENERGY PREDICTED BY IDOCK:   -2.91 KCAL/MOL
REMARK 923 INTER-LIGAND FREE ENERGY PREDICTED BY IDOCK:   -2.83 KCAL/MOL
REMARK 924 INTRA-LIGAND FREE ENERGY PREDICTED BY IDOCK:   -0.08 KCAL/MOL
REMARK 927      BINDING AFFINITY PREDICTED BY RF-SCORE:    0.00 PKD
ROOT
HETATM    1  C   UNL     1      -6.089  10.927  68.352  1.00  0.00    -0.046 C  
HETATM    2  C   UNL     1      -5.828   9.452  68.311  1.00  0.00    -0.041 C  
HETATM    3  O   UNL     1      -5.284   8.869  67.385  1.00  0.00    -0.033 OA 
ENDROOT
BRANCH   2   4
HETATM    4  O   UNL     1      -6.341   8.859  69.473  1.00  0.00    -0.042 OA 
BRANCH   4   5
HETATM    5  C   UNL     1      -7.702   8.482  69.435  1.00  0.00    -0.092 A  
HETATM    6  C   UNL     1      -8.476   8.440  70.603  1.00  0.00    -0.141 A  
HETATM    7  C   UNL     1      -9.844   8.133  70.479  1.00  0.00    -0.194 A  
HETATM    8  C   UNL     1      -7.989   8.705  71.991  1.00  0.00    -0.054 C  
HETATM    9  O   UNL     1      -6.692   9.043  72.113  1.00  0.00    -0.271 OA 
HETATM   10  C   UNL     1     -10.420   7.864  69.231  1.00  0.00    -0.221 A  
HETATM   11  O   UNL     1      -8.719   8.616  72.967  1.00  0.00    -0.380 OA 
HETATM   12  C   UNL     1      -9.645   7.914  68.070  1.00  0.00    -0.168 A  
HETATM   13  C   UNL     1      -8.292   8.258  68.182  1.00  0.00    -0.129 A  
HETATM   14  C   UNL     1     -10.213   7.592  66.709  1.00  0.00    -0.254 C  
HETATM   15  F   UNL     1     -10.105   8.640  65.846  1.00  0.00    -0.326 F  
HETATM   16  F   UNL     1      -9.567   6.552  66.115  1.00  0.00    -0.190 F  
HETATM   17  F   UNL     1     -11.530   7.254  66.732  1.00  0.00    -0.247 F  
ENDBRANCH   4   5
ENDBRANCH   2   4
TORSDOF 2
ENDMDL
MODEL      202
REMARK 921   NORMALIZED FREE ENERGY PREDICTED BY IDOCK:   -2.38 KCAL/MOL
REMARK 922        TOTAL FREE ENERGY PREDICTED BY IDOCK:   -2.89 KCAL/MOL
REMARK 923 INTER-LIGAND FREE ENERGY PREDICTED BY IDOCK:   -2.92 KCAL/MOL
REMARK 924 INTRA-LIGAND FREE ENERGY PREDICTED BY IDOCK:    0.03 KCAL/MOL
REMARK 927      BINDING AFFINITY PREDICTED BY RF-SCORE:    0.00 PKD
ROOT
HETATM    1  C   UNL     1     -11.710  11.865  67.663  1.00  0.00    -0.346 C  
HETATM    2  C   UNL     1     -10.518  11.955  68.565  1.00  0.00    -0.224 C  
HETATM    3  O   UNL     1      -9.656  12.819  68.492  1.00  0.00    -0.198 OA 
ENDROOT
BRANCH   2   4
HETATM    4  O   UNL     1     -10.535  10.880  69.464  1.00  0.00    -0.215 OA 
BRANCH   4   5
HETATM    5  C   UNL     1      -9.604   9.846  69.220  1.00  0.00    -0.205 A  
HETATM    6  C   UNL     1      -9.452   8.779  70.117  1.00  0.00    -0.182 A  
HETATM    7  C   UNL     1      -8.564   7.744  69.770  1.00  0.00    -0.134 A  
HETATM    8  C   UNL     1     -10.161   8.622  71.424  1.00  0.00    -0.254 C  
HETATM    9  O   UNL     1     -11.046   9.585  71.742  1.00  0.00    -0.352 OA 
HETATM   10  C   UNL     1      -7.840   7.777  68.571  1.00  0.00    -0.120 A  
HETATM   11  O   UNL     1      -9.950   7.677  72.170  1.00  0.00    -0.171 OA 
HETATM   12  C   UNL     1      -8.000   8.840  67.678  1.00  0.00    -0.106 A  
HETATM   13  C   UNL     1      -8.912   9.852  67.999  1.00  0.00    -0.121 A  
HETATM   14  C   UNL     1      -7.211   8.938  66.395  1.00  0.00    -0.084 C  
HETATM   15  F   UNL     1      -8.017   8.964  65.298  1.00  0.00    -0.099 F  
HETATM   16  F   UNL     1      -6.464  10.074  66.336  1.00  0.00    -0.065 F  
HETATM   17  F   UNL     1      -6.346   7.907  66.204  1.00  0.00    -0.043 F  
ENDBRANCH   4   5
ENDBRANCH   2   4
TORSDOF 2
ENDMDL
MODEL      203
REMARK 921   NORMALIZED FREE ENERGY PREDICTED BY IDOCK:   -2.23 KCAL/MOL
REMARK 922        TOTAL FREE ENERGY PREDICTED BY IDOCK:   -2.72 KCAL/MOL
REMARK 923 INTER-LIGAND FREE ENERGY PREDICTED BY IDOCK:   -2.46 KCAL/MOL
REMARK 924 INTRA-LIGAND FREE ENERGY PREDICTED BY IDOCK:   -0.26 KCAL/MOL
REMARK 927      BINDING AFFINITY PREDICTED BY RF-SCORE:    0.00 PKD
ROOT
HETATM    1  C   UNL     1      -9.255   4.583  69.323  1.00  0.00    -0.195 C  
HETATM    2  C   UNL     1     -10.403   5.531  69.492  1.00  0.00    -0.287 C  
HETATM    3  O   UNL     1     -11.095   5.612  70.497  1.00  0.00    -0.258 OA 
ENDROOT
BRANCH   2   4
HETATM    4  O   UNL     1     -10.574   6.267  68.312  1.00  0.00    -0.201 OA 
BRANCH   4   5
HETATM    5  C   UNL     1      -9.448   6.988  67.855  1.00  0.00    -0.124 A  
HETATM    6  C   UNL     1      -8.836   6.681  66.632  1.00  0.00    -0.140 A  
HETATM    7  C   UNL     1      -7.769   7.493  66.204  1.00  0.00    -0.090 A  
HETATM    8  C   UNL     1      -9.218   5.566  65.713  1.00  0.00    -0.120 C  
HETATM    9  O   UNL     1     -10.267   4.813  66.094  1.00  0.00    -0.235 OA 
HETATM   10  C   UNL     1      -7.318   8.570  66.977  1.00  0.00    -0.084 A  
HETATM   11  O   UNL     1      -8.614   5.340  64.675  1.00  0.00    -0.148 OA 
HETATM   12  C   UNL     1      -7.935   8.874  68.193  1.00  0.00    -0.102 A  
HETATM   13  C   UNL     1      -9.023   8.096  68.605  1.00  0.00    -0.137 A  
HETATM   14  C   UNL     1      -7.457   9.999  69.079  1.00  0.00    -0.087 C  
HETATM   15  F   UNL     1      -8.424  10.935  69.289  1.00  0.00    -0.151 F  
HETATM   16  F   UNL     1      -7.089   9.561  70.313  1.00  0.00    -0.057 F  
HETATM   17  F   UNL     1      -6.384  10.669  68.581  1.00  0.00    -0.046 F  
ENDBRANCH   4   5
ENDBRANCH   2   4
TORSDOF 2
ENDMDL
MODEL      204
REMARK 921   NORMALIZED FREE ENERGY PREDICTED BY IDOCK:   -2.14 KCAL/MOL
REMARK 922        TOTAL FREE ENERGY PREDICTED BY IDOCK:   -2.63 KCAL/MOL
REMARK 923 INTER-LIGAND FREE ENERGY PREDICTED BY IDOCK:   -3.06 KCAL/MOL
REMARK 924 INTRA-LIGAND FREE ENERGY PREDICTED BY IDOCK:    0.43 KCAL/MOL
REMARK 927      BINDING AFFINITY PREDICTED BY RF-SCORE:    0.00 PKD
ROOT
HETATM    1  C   UNL     1      -6.312   4.188  70.876  1.00  0.00    -0.019 C  
HETATM    2  C   UNL     1      -7.633   4.884  70.760  1.00  0.00    -0.066 C  
HETATM    3  O   UNL     1      -8.248   5.365  71.700  1.00  0.00    -0.115 OA 
ENDROOT
BRANCH   2   4
HETATM    4  O   UNL     1      -8.056   4.854  69.425  1.00  0.00    -0.077 OA 
BRANCH   4   5
HETATM    5  C   UNL     1      -8.837   5.950  68.991  1.00  0.00    -0.119 A  
HETATM    6  C   UNL     1      -9.697   5.837  67.890  1.00  0.00    -0.134 A  
HETATM    7  C   UNL     1     -10.502   6.945  67.564  1.00  0.00    -0.314 A  
HETATM    8  C   UNL     1      -9.859   4.633  67.019  1.00  0.00    -0.205 C  
HETATM    9  O   UNL     1      -9.125   3.555  67.352  1.00  0.00    -0.137 OA 
HETATM   10  C   UNL     1     -10.442   8.132  68.305  1.00  0.00    -0.210 A  
HETATM   11  O   UNL     1     -10.608   4.622  66.054  1.00  0.00    -0.302 OA 
HETATM   12  C   UNL     1      -9.587   8.236  69.404  1.00  0.00    -0.171 A  
HETATM   13  C   UNL     1      -8.813   7.124  69.758  1.00  0.00    -0.142 A  
HETATM   14  C   UNL     1      -9.458   9.509  70.206  1.00  0.00    -0.259 C  
HETATM   15  F   UNL     1      -9.789   9.326  71.515  1.00  0.00    -0.351 F  
HETATM   16  F   UNL     1      -8.186   9.990  70.207  1.00  0.00    -0.193 F  
HETATM   17  F   UNL     1     -10.245  10.521  69.755  1.00  0.00    -0.245 F  
ENDBRANCH   4   5
ENDBRANCH   2   4
TORSDOF 2
ENDMDL
MODEL      205
REMARK 921   NORMALIZED FREE ENERGY PREDICTED BY IDOCK:   -2.12 KCAL/MOL
REMARK 922        TOTAL FREE ENERGY PREDICTED BY IDOCK:   -2.60 KCAL/MOL
REMARK 923 INTER-LIGAND FREE ENERGY PREDICTED BY IDOCK:   -2.65 KCAL/MOL
REMARK 924 INTRA-LIGAND FREE ENERGY PREDICTED BY IDOCK:    0.04 KCAL/MOL
REMARK 927      BINDING AFFINITY PREDICTED BY RF-SCORE:    0.00 PKD
ROOT
HETATM    1  C   UNL     1      -6.605   9.522  63.494  1.00  0.00    -0.103 C  
HETATM    2  C   UNL     1      -6.327   9.938  64.906  1.00  0.00    -0.110 C  
HETATM    3  O   UNL     1      -5.497  10.773  65.234  1.00  0.00    -0.140 OA 
ENDROOT
BRANCH   2   4
HETATM    4  O   UNL     1      -7.135   9.192  65.776  1.00  0.00    -0.083 OA 
BRANCH   4   5
HETATM    5  C   UNL     1      -8.056   9.925  66.557  1.00  0.00    -0.117 A  
HETATM    6  C   UNL     1      -8.647   9.365  67.698  1.00  0.00    -0.116 A  
HETATM    7  C   UNL     1      -9.494  10.181  68.472  1.00  0.00    -0.159 A  
HETATM    8  C   UNL     1      -8.453   7.968  68.193  1.00  0.00    -0.123 C  
HETATM    9  O   UNL     1      -7.609   7.196  67.484  1.00  0.00    -0.104 OA 
HETATM   10  C   UNL     1      -9.755  11.509  68.112  1.00  0.00    -0.192 A  
HETATM   11  O   UNL     1      -9.030   7.541  69.182  1.00  0.00    -0.136 OA 
HETATM   12  C   UNL     1      -9.159  12.063  66.976  1.00  0.00    -0.191 A  
HETATM   13  C   UNL     1      -8.284  11.269  66.225  1.00  0.00    -0.126 A  
HETATM   14  C   UNL     1      -9.443  13.475  66.527  1.00  0.00    -0.256 C  
HETATM   15  F   UNL     1      -8.316  14.239  66.489  1.00  0.00    -0.131 F  
HETATM   16  F   UNL     1      -9.966  13.521  65.272  1.00  0.00    -0.300 F  
HETATM   17  F   UNL     1     -10.321  14.137  67.326  1.00  0.00    -0.257 F  
ENDBRANCH   4   5
ENDBRANCH   2   4
TORSDOF 2
ENDMDL
MODEL      206
REMARK 921   NORMALIZED FREE ENERGY PREDICTED BY IDOCK:   -2.12 KCAL/MOL
REMARK 922        TOTAL FREE ENERGY PREDICTED BY IDOCK:   -2.60 KCAL/MOL
REMARK 923 INTER-LIGAND FREE ENERGY PREDICTED BY IDOCK:   -2.27 KCAL/MOL
REMARK 924 INTRA-LIGAND FREE ENERGY PREDICTED BY IDOCK:   -0.33 KCAL/MOL
REMARK 927      BINDING AFFINITY PREDICTED BY RF-SCORE:    0.00 PKD
ROOT
HETATM    1  C   UNL     1      -8.914   9.188  68.056  1.00  0.00    -0.129 C  
HETATM    2  C   UNL     1     -10.148   8.604  68.673  1.00  0.00    -0.190 C  
HETATM    3  O   UNL     1     -10.741   9.085  69.627  1.00  0.00    -0.229 OA 
ENDROOT
BRANCH   2   4
HETATM    4  O   UNL     1     -10.478   7.414  68.011  1.00  0.00    -0.198 OA 
BRANCH   4   5
HETATM    5  C   UNL     1      -9.824   6.245  68.460  1.00  0.00    -0.139 A  
HETATM    6  C   UNL     1      -9.070   5.453  67.583  1.00  0.00    -0.109 A  
HETATM    7  C   UNL     1      -8.381   4.348  68.116  1.00  0.00    -0.096 A  
HETATM    8  C   UNL     1      -8.911   5.675  66.113  1.00  0.00    -0.142 C  
HETATM    9  O   UNL     1      -9.530   6.756  65.603  1.00  0.00     0.170 OA 
HETATM   10  C   UNL     1      -8.452   4.035  69.479  1.00  0.00    -0.088 A  
HETATM   11  O   UNL     1      -8.261   4.920  65.406  1.00  0.00    -0.113 OA 
HETATM   12  C   UNL     1      -9.200   4.831  70.350  1.00  0.00    -0.195 A  
HETATM   13  C   UNL     1      -9.855   5.955  69.832  1.00  0.00    -0.223 A  
HETATM   14  C   UNL     1      -9.338   4.508  71.818  1.00  0.00    -0.142 C  
HETATM   15  F   UNL     1      -8.868   5.512  72.610  1.00  0.00    -0.123 F  
HETATM   16  F   UNL     1     -10.635   4.321  72.183  1.00  0.00    -0.245 F  
HETATM   17  F   UNL     1      -8.674   3.385  72.196  1.00  0.00    -0.083 F  
ENDBRANCH   4   5
ENDBRANCH   2   4
TORSDOF 2
ENDMDL
MODEL      207
REMARK 921   NORMALIZED FREE ENERGY PREDICTED BY IDOCK:   -2.10 KCAL/MOL
REMARK 922        TOTAL FREE ENERGY PREDICTED BY IDOCK:   -2.58 KCAL/MOL
REMARK 923 INTER-LIGAND FREE ENERGY PREDICTED BY IDOCK:   -2.51 KCAL/MOL
REMARK 924 INTRA-LIGAND FREE ENERGY PREDICTED BY IDOCK:   -0.07 KCAL/MOL
REMARK 927      BINDING AFFINITY PREDICTED BY RF-SCORE:    0.00 PKD
ROOT
HETATM    1  C   UNL     1      -7.311   8.737  65.113  1.00  0.00    -0.088 C  
HETATM    2  C   UNL     1      -8.436   9.650  65.491  1.00  0.00    -0.142 C  
HETATM    3  O   UNL     1      -9.621   9.372  65.386  1.00  0.00    -0.273 OA 
ENDROOT
BRANCH   2   4
HETATM    4  O   UNL     1      -7.911  10.870  65.939  1.00  0.00    -0.157 OA 
BRANCH   4   5
HETATM    5  C   UNL     1      -8.813  11.734  66.600  1.00  0.00    -0.189 A  
HETATM    6  C   UNL     1      -8.906  11.754  67.998  1.00  0.00    -0.164 A  
HETATM    7  C   UNL     1      -9.768  12.696  68.591  1.00  0.00    -0.050 A  
HETATM    8  C   UNL     1      -8.158  10.868  68.943  1.00  0.00    -0.144 C  
HETATM    9  O   UNL     1      -7.297   9.996  68.386  1.00  0.00    -0.076 OA 
HETATM   10  C   UNL     1     -10.524  13.581  67.813  1.00  0.00    -0.242 A  
HETATM   11  O   UNL     1      -8.317  10.923  70.153  1.00  0.00     0.569 OA 
HETATM   12  C   UNL     1     -10.423  13.560  66.419  1.00  0.00    -0.287 A  
HETATM   13  C   UNL     1      -9.537  12.653  65.825  1.00  0.00    -0.117 A  
HETATM   14  C   UNL     1     -11.249  14.467  65.539  1.00  0.00    -0.335 C  
HETATM   15  F   UNL     1     -10.473  15.278  64.767  1.00  0.00    -0.403 F  
HETATM   16  F   UNL     1     -12.034  13.769  64.675  1.00  0.00    -0.355 F  
HETATM   17  F   UNL     1     -12.084  15.288  66.230  1.00  0.00    -0.057 F  
ENDBRANCH   4   5
ENDBRANCH   2   4
TORSDOF 2
ENDMDL
MODEL      208
REMARK 921   NORMALIZED FREE ENERGY PREDICTED BY IDOCK:   -2.07 KCAL/MOL
REMARK 922        TOTAL FREE ENERGY PREDICTED BY IDOCK:   -2.55 KCAL/MOL
REMARK 923 INTER-LIGAND FREE ENERGY PREDICTED BY IDOCK:   -2.67 KCAL/MOL
REMARK 924 INTRA-LIGAND FREE ENERGY PREDICTED BY IDOCK:    0.12 KCAL/MOL
REMARK 927      BINDING AFFINITY PREDICTED BY RF-SCORE:    0.00 PKD
ROOT
HETATM    1  C   UNL     1      -5.850   8.340  74.224  1.00  0.00    -0.108 C  
HETATM    2  C   UNL     1      -7.215   7.922  73.772  1.00  0.00    -0.134 C  
HETATM    3  O   UNL     1      -8.233   8.578  73.937  1.00  0.00    -0.369 OA 
ENDROOT
BRANCH   2   4
HETATM    4  O   UNL     1      -7.138   6.656  73.175  1.00  0.00    -0.076 OA 
BRANCH   4   5
HETATM    5  C   UNL     1      -8.296   6.212  72.497  1.00  0.00    -0.115 A  
HETATM    6  C   UNL     1      -8.905   4.992  72.823  1.00  0.00    -0.122 A  
HETATM    7  C   UNL     1     -10.099   4.652  72.161  1.00  0.00    -0.256 A  
HETATM    8  C   UNL     1      -8.412   4.005  73.832  1.00  0.00    -0.091 C  
HETATM    9  O   UNL     1      -7.295   4.344  74.501  1.00  0.00    -0.070 OA 
HETATM   10  C   UNL     1     -10.662   5.494  71.195  1.00  0.00    -0.280 A  
HETATM   11  O   UNL     1      -8.982   2.944  74.038  1.00  0.00    -0.075 OA 
HETATM   12  C   UNL     1     -10.053   6.711  70.878  1.00  0.00    -0.208 A  
HETATM   13  C   UNL     1      -8.887   7.075  71.562  1.00  0.00    -0.128 A  
HETATM   14  C   UNL     1     -10.601   7.632  69.814  1.00  0.00    -0.244 C  
HETATM   15  F   UNL     1     -10.923   8.858  70.313  1.00  0.00    -0.230 F  
HETATM   16  F   UNL     1      -9.702   7.860  68.818  1.00  0.00    -0.151 F  
HETATM   17  F   UNL     1     -11.724   7.162  69.209  1.00  0.00    -0.014 F  
ENDBRANCH   4   5
ENDBRANCH   2   4
TORSDOF 2
ENDMDL
MODEL      209
REMARK 921   NORMALIZED FREE ENERGY PREDICTED BY IDOCK:   -2.07 KCAL/MOL
REMARK 922        TOTAL FREE ENERGY PREDICTED BY IDOCK:   -2.55 KCAL/MOL
REMARK 923 INTER-LIGAND FREE ENERGY PREDICTED BY IDOCK:   -2.52 KCAL/MOL
REMARK 924 INTRA-LIGAND FREE ENERGY PREDICTED BY IDOCK:   -0.03 KCAL/MOL
REMARK 927      BINDING AFFINITY PREDICTED BY RF-SCORE:    0.00 PKD
ROOT
HETATM    1  C   UNL     1      -6.382   4.415  71.099  1.00  0.00    -0.019 C  
HETATM    2  C   UNL     1      -7.842   4.128  71.275  1.00  0.00    -0.071 C  
HETATM    3  O   UNL     1      -8.485   4.393  72.279  1.00  0.00    -0.106 OA 
ENDROOT
BRANCH   2   4
HETATM    4  O   UNL     1      -8.327   3.480  70.131  1.00  0.00    -0.055 OA 
BRANCH   4   5
HETATM    5  C   UNL     1      -8.959   4.298  69.168  1.00  0.00    -0.107 A  
HETATM    6  C   UNL     1      -9.289   3.803  67.899  1.00  0.00    -0.236 A  
HETATM    7  C   UNL     1      -9.988   4.651  67.020  1.00  0.00    -0.227 A  
HETATM    8  C   UNL     1      -8.979   2.436  67.380  1.00  0.00    -0.154 C  
HETATM    9  O   UNL     1      -8.351   1.604  68.231  1.00  0.00    -0.056 OA 
HETATM   10  C   UNL     1     -10.337   5.956  67.389  1.00  0.00    -0.274 A  
HETATM   11  O   UNL     1      -9.271   2.086  66.246  1.00  0.00    -0.079 OA 
HETATM   12  C   UNL     1     -10.010   6.442  68.657  1.00  0.00    -0.162 A  
HETATM   13  C   UNL     1      -9.350   5.590  69.552  1.00  0.00    -0.167 A  
HETATM   14  C   UNL     1     -10.328   7.854  69.085  1.00  0.00    -0.219 C  
HETATM   15  F   UNL     1     -11.141   7.890  70.177  1.00  0.00    -0.253 F  
HETATM   16  F   UNL     1      -9.211   8.552  69.428  1.00  0.00    -0.148 F  
HETATM   17  F   UNL     1     -10.951   8.589  68.125  1.00  0.00    -0.186 F  
ENDBRANCH   4   5
ENDBRANCH   2   4
TORSDOF 2
ENDMDL
MODEL      210
REMARK 921   NORMALIZED FREE ENERGY PREDICTED BY IDOCK:   -2.05 KCAL/MOL
REMARK 922        TOTAL FREE ENERGY PREDICTED BY IDOCK:   -2.53 KCAL/MOL
REMARK 923 INTER-LIGAND FREE ENERGY PREDICTED BY IDOCK:   -2.21 KCAL/MOL
REMARK 924 INTRA-LIGAND FREE ENERGY PREDICTED BY IDOCK:   -0.32 KCAL/MOL
REMARK 927      BINDING AFFINITY PREDICTED BY RF-SCORE:    0.00 PKD
ROOT
HETATM    1  C   UNL     1      -7.007   6.726  66.844  1.00  0.00    -0.070 C  
HETATM    2  C   UNL     1      -7.888   5.666  67.430  1.00  0.00    -0.101 C  
HETATM    3  O   UNL     1      -8.970   5.331  66.973  1.00  0.00    -0.113 OA 
ENDROOT
BRANCH   2   4
HETATM    4  O   UNL     1      -7.292   5.161  68.594  1.00  0.00    -0.064 OA 
BRANCH   4   5
HETATM    5  C   UNL     1      -8.031   5.308  69.790  1.00  0.00    -0.080 A  
HETATM    6  C   UNL     1      -8.295   4.208  70.619  1.00  0.00    -0.086 A  
HETATM    7  C   UNL     1      -8.968   4.443  71.833  1.00  0.00    -0.154 A  
HETATM    8  C   UNL     1      -7.917   2.788  70.344  1.00  0.00    -0.042 C  
HETATM    9  O   UNL     1      -7.234   2.563  69.207  1.00  0.00    -0.043 OA 
HETATM   10  C   UNL     1      -9.375   5.730  72.203  1.00  0.00    -0.157 A  
HETATM   11  O   UNL     1      -8.213   1.877  71.102  1.00  0.00    -0.046 OA 
HETATM   12  C   UNL     1      -9.104   6.822  71.375  1.00  0.00    -0.142 A  
HETATM   13  C   UNL     1      -8.399   6.602  70.185  1.00  0.00    -0.135 A  
HETATM   14  C   UNL     1      -9.560   8.221  71.713  1.00  0.00    -0.209 C  
HETATM   15  F   UNL     1      -8.515   9.088  71.826  1.00  0.00    -0.216 F  
HETATM   16  F   UNL     1     -10.375   8.742  70.756  1.00  0.00    -0.208 F  
HETATM   17  F   UNL     1     -10.248   8.305  72.882  1.00  0.00    -0.345 F  
ENDBRANCH   4   5
ENDBRANCH   2   4
TORSDOF 2
ENDMDL
MODEL      211
REMARK 921   NORMALIZED FREE ENERGY PREDICTED BY IDOCK:   -2.03 KCAL/MOL
REMARK 922        TOTAL FREE ENERGY PREDICTED BY IDOCK:   -2.50 KCAL/MOL
REMARK 923 INTER-LIGAND FREE ENERGY PREDICTED BY IDOCK:   -3.12 KCAL/MOL
REMARK 924 INTRA-LIGAND FREE ENERGY PREDICTED BY IDOCK:    0.62 KCAL/MOL
REMARK 927      BINDING AFFINITY PREDICTED BY RF-SCORE:    0.00 PKD
ROOT
HETATM    1  C   UNL     1     -10.048  10.702  67.243  1.00  0.00    -0.238 C  
HETATM    2  C   UNL     1      -9.915  10.078  65.888  1.00  0.00    -0.269 C  
HETATM    3  O   UNL     1     -10.428  10.516  64.869  1.00  0.00    -0.301 OA 
ENDROOT
BRANCH   2   4
HETATM    4  O   UNL     1      -9.152   8.907  65.990  1.00  0.00    -0.184 OA 
BRANCH   4   5
HETATM    5  C   UNL     1      -8.879   8.450  67.299  1.00  0.00    -0.130 A  
HETATM    6  C   UNL     1      -7.715   8.840  67.976  1.00  0.00    -0.101 A  
HETATM    7  C   UNL     1      -7.548   8.410  69.305  1.00  0.00    -0.089 A  
HETATM    8  C   UNL     1      -6.620   9.694  67.422  1.00  0.00    -0.070 C  
HETATM    9  O   UNL     1      -6.795  10.147  66.167  1.00  0.00    -0.095 OA 
HETATM   10  C   UNL     1      -8.504   7.605  69.936  1.00  0.00    -0.137 A  
HETATM   11  O   UNL     1      -5.617   9.966  68.065  1.00  0.00    -0.040 OA 
HETATM   12  C   UNL     1      -9.664   7.223  69.258  1.00  0.00    -0.161 A  
HETATM   13  C   UNL     1      -9.856   7.681  67.949  1.00  0.00    -0.190 A  
HETATM   14  C   UNL     1     -10.702   6.323  69.883  1.00  0.00    -0.294 C  
HETATM   15  F   UNL     1     -11.923   6.922  69.958  1.00  0.00    -0.328 F  
HETATM   16  F   UNL     1     -10.891   5.181  69.168  1.00  0.00    -0.265 F  
HETATM   17  F   UNL     1     -10.396   5.930  71.148  1.00  0.00    -0.227 F  
ENDBRANCH   4   5
ENDBRANCH   2   4
TORSDOF 2
ENDMDL
MODEL      212
REMARK 921   NORMALIZED FREE ENERGY PREDICTED BY IDOCK:   -1.91 KCAL/MOL
REMARK 922        TOTAL FREE ENERGY PREDICTED BY IDOCK:   -2.37 KCAL/MOL
REMARK 923 INTER-LIGAND FREE ENERGY PREDICTED BY IDOCK:   -2.22 KCAL/MOL
REMARK 924 INTRA-LIGAND FREE ENERGY PREDICTED BY IDOCK:   -0.15 KCAL/MOL
REMARK 927      BINDING AFFINITY PREDICTED BY RF-SCORE:    0.00 PKD
ROOT
HETATM    1  C   UNL     1      -9.031  11.244  68.850  1.00  0.00    -0.054 C  
HETATM    2  C   UNL     1     -10.000  11.133  67.713  1.00  0.00    -0.175 C  
HETATM    3  O   UNL     1     -11.209  11.284  67.815  1.00  0.00    -0.250 OA 
ENDROOT
BRANCH   2   4
HETATM    4  O   UNL     1      -9.307  10.793  66.544  1.00  0.00    -0.163 OA 
BRANCH   4   5
HETATM    5  C   UNL     1      -9.041   9.419  66.351  1.00  0.00    -0.161 A  
HETATM    6  C   UNL     1      -7.854   8.988  65.742  1.00  0.00    -0.098 A  
HETATM    7  C   UNL     1      -7.621   7.603  65.655  1.00  0.00    -0.090 A  
HETATM    8  C   UNL     1      -6.786   9.868  65.176  1.00  0.00    -0.109 C  
HETATM    9  O   UNL     1      -6.981  11.194  65.296  1.00  0.00     0.263 OA 
HETATM   10  C   UNL     1      -8.546   6.675  66.149  1.00  0.00    -0.148 A  
HETATM   11  O   UNL     1      -5.791   9.416  64.629  1.00  0.00    -0.066 OA 
HETATM   12  C   UNL     1      -9.725   7.111  66.760  1.00  0.00    -0.252 A  
HETATM   13  C   UNL     1      -9.945   8.488  66.886  1.00  0.00    -0.335 A  
HETATM   14  C   UNL     1     -10.770   6.149  67.269  1.00  0.00    -0.335 C  
HETATM   15  F   UNL     1     -10.990   6.289  68.606  1.00  0.00    -0.270 F  
HETATM   16  F   UNL     1     -11.978   6.337  66.672  1.00  0.00     0.257 F  
HETATM   17  F   UNL     1     -10.452   4.842  67.074  1.00  0.00    -0.232 F  
ENDBRANCH   4   5
ENDBRANCH   2   4
TORSDOF 2
ENDMDL
MODEL      213
REMARK 921   NORMALIZED FREE ENERGY PREDICTED BY IDOCK:   -1.76 KCAL/MOL
REMARK 922        TOTAL FREE ENERGY PREDICTED BY IDOCK:   -2.21 KCAL/MOL
REMARK 923 INTER-LIGAND FREE ENERGY PREDICTED BY IDOCK:   -2.85 KCAL/MOL
REMARK 924 INTRA-LIGAND FREE ENERGY PREDICTED BY IDOCK:    0.64 KCAL/MOL
REMARK 927      BINDING AFFINITY PREDICTED BY RF-SCORE:    0.00 PKD
ROOT
HETATM    1  C   UNL     1     -10.167  11.055  67.169  1.00  0.00    -0.243 C  
HETATM    2  C   UNL     1     -10.605  11.241  65.749  1.00  0.00    -0.248 C  
HETATM    3  O   UNL     1     -11.104  12.265  65.304  1.00  0.00    -0.298 OA 
ENDROOT
BRANCH   2   4
HETATM    4  O   UNL     1     -10.390  10.053  65.038  1.00  0.00    -0.193 OA 
BRANCH   4   5
HETATM    5  C   UNL     1      -9.330   9.235  65.491  1.00  0.00    -0.238 A  
HETATM    6  C   UNL     1      -8.070   9.276  64.879  1.00  0.00    -0.130 A  
HETATM    7  C   UNL     1      -7.040   8.493  65.434  1.00  0.00    -0.082 A  
HETATM    8  C   UNL     1      -7.698  10.091  63.682  1.00  0.00    -0.143 C  
HETATM    9  O   UNL     1      -8.666  10.877  63.174  1.00  0.00    -0.181 OA 
HETATM   10  C   UNL     1      -7.263   7.685  66.556  1.00  0.00    -0.082 A  
HETATM   11  O   UNL     1      -6.584  10.049  63.184  1.00  0.00    -0.122 OA 
HETATM   12  C   UNL     1      -8.520   7.653  67.165  1.00  0.00    -0.121 A  
HETATM   13  C   UNL     1      -9.538   8.461  66.643  1.00  0.00    -0.294 A  
HETATM   14  C   UNL     1      -8.817   6.767  68.350  1.00  0.00    -0.122 C  
HETATM   15  F   UNL     1      -9.212   7.483  69.440  1.00  0.00    -0.148 F  
HETATM   16  F   UNL     1      -9.825   5.889  68.096  1.00  0.00    -0.118 F  
HETATM   17  F   UNL     1      -7.757   6.019  68.753  1.00  0.00    -0.088 F  
ENDBRANCH   4   5
ENDBRANCH   2   4
TORSDOF 2
ENDMDL
MODEL      214
REMARK 921   NORMALIZED FREE ENERGY PREDICTED BY IDOCK:   -1.63 KCAL/MOL
REMARK 922        TOTAL FREE ENERGY PREDICTED BY IDOCK:   -2.06 KCAL/MOL
REMARK 923 INTER-LIGAND FREE ENERGY PREDICTED BY IDOCK:   -2.58 KCAL/MOL
REMARK 924 INTRA-LIGAND FREE ENERGY PREDICTED BY IDOCK:    0.53 KCAL/MOL
REMARK 927      BINDING AFFINITY PREDICTED BY RF-SCORE:    0.00 PKD
ROOT
HETATM    1  C   UNL     1      -6.972   5.086  66.186  1.00  0.00    -0.070 C  
HETATM    2  C   UNL     1      -8.080   4.545  67.037  1.00  0.00    -0.102 C  
HETATM    3  O   UNL     1      -7.942   3.676  67.886  1.00  0.00    -0.079 OA 
ENDROOT
BRANCH   2   4
HETATM    4  O   UNL     1      -9.285   5.160  66.674  1.00  0.00    -0.123 OA 
BRANCH   4   5
HETATM    5  C   UNL     1      -9.273   6.571  66.606  1.00  0.00    -0.153 A  
HETATM    6  C   UNL     1      -9.747   7.354  67.668  1.00  0.00    -0.178 A  
HETATM    7  C   UNL     1      -9.630   8.752  67.563  1.00  0.00    -0.192 A  
HETATM    8  C   UNL     1     -10.365   6.842  68.930  1.00  0.00    -0.189 C  
HETATM    9  O   UNL     1     -10.439   5.505  69.057  1.00  0.00    -0.229 OA 
HETATM   10  C   UNL     1      -9.069   9.353  66.429  1.00  0.00    -0.199 A  
HETATM   11  O   UNL     1     -10.787   7.590  69.799  1.00  0.00    -0.248 OA 
HETATM   12  C   UNL     1      -8.593   8.568  65.376  1.00  0.00    -0.202 A  
HETATM   13  C   UNL     1      -8.669   7.174  65.492  1.00  0.00    -0.042 A  
HETATM   14  C   UNL     1      -8.018   9.172  64.118  1.00  0.00    -0.140 C  
HETATM   15  F   UNL     1      -6.728   8.789  63.908  1.00  0.00    -0.084 F  
HETATM   16  F   UNL     1      -8.705   8.794  63.006  1.00  0.00    -0.196 F  
HETATM   17  F   UNL     1      -8.014  10.531  64.116  1.00  0.00    -0.158 F  
ENDBRANCH   4   5
ENDBRANCH   2   4
TORSDOF 2
ENDMDL
MODEL      215
REMARK 921   NORMALIZED FREE ENERGY PREDICTED BY IDOCK:   -1.62 KCAL/MOL
REMARK 922        TOTAL FREE ENERGY PREDICTED BY IDOCK:   -2.04 KCAL/MOL
REMARK 923 INTER-LIGAND FREE ENERGY PREDICTED BY IDOCK:   -1.90 KCAL/MOL
REMARK 924 INTRA-LIGAND FREE ENERGY PREDICTED BY IDOCK:   -0.14 KCAL/MOL
REMARK 927      BINDING AFFINITY PREDICTED BY RF-SCORE:    0.00 PKD
ROOT
HETATM    1  C   UNL     1      -6.603   8.555  73.447  1.00  0.00    -0.092 C  
HETATM    2  C   UNL     1      -7.865   7.786  73.197  1.00  0.00    -0.122 C  
HETATM    3  O   UNL     1      -8.980   8.152  73.539  1.00  0.00    -0.258 OA 
ENDROOT
BRANCH   2   4
HETATM    4  O   UNL     1      -7.553   6.581  72.555  1.00  0.00    -0.093 OA 
BRANCH   4   5
HETATM    5  C   UNL     1      -7.886   6.497  71.184  1.00  0.00    -0.103 A  
HETATM    6  C   UNL     1      -8.466   5.339  70.648  1.00  0.00    -0.118 A  
HETATM    7  C   UNL     1      -8.844   5.356  69.292  1.00  0.00    -0.112 A  
HETATM    8  C   UNL     1      -8.742   4.069  71.388  1.00  0.00    -0.101 C  
HETATM    9  O   UNL     1      -8.425   4.061  72.696  1.00  0.00    -0.097 OA 
HETATM   10  C   UNL     1      -8.638   6.487  68.493  1.00  0.00    -0.123 A  
HETATM   11  O   UNL     1      -9.222   3.087  70.842  1.00  0.00    -0.107 OA 
HETATM   12  C   UNL     1      -8.063   7.640  69.034  1.00  0.00    -0.126 A  
HETATM   13  C   UNL     1      -7.723   7.644  70.393  1.00  0.00    -0.090 A  
HETATM   14  C   UNL     1      -7.785   8.867  68.202  1.00  0.00    -0.100 C  
HETATM   15  F   UNL     1      -8.445   9.964  68.667  1.00  0.00    -0.104 F  
HETATM   16  F   UNL     1      -6.465   9.200  68.201  1.00  0.00    -0.055 F  
HETATM   17  F   UNL     1      -8.142   8.736  66.897  1.00  0.00    -0.098 F  
ENDBRANCH   4   5
ENDBRANCH   2   4
TORSDOF 2
ENDMDL
MODEL      216
REMARK 921   NORMALIZED FREE ENERGY PREDICTED BY IDOCK:   -1.59 KCAL/MOL
REMARK 922        TOTAL FREE ENERGY PREDICTED BY IDOCK:   -2.01 KCAL/MOL
REMARK 923 INTER-LIGAND FREE ENERGY PREDICTED BY IDOCK:   -1.76 KCAL/MOL
REMARK 924 INTRA-LIGAND FREE ENERGY PREDICTED BY IDOCK:   -0.25 KCAL/MOL
REMARK 927      BINDING AFFINITY PREDICTED BY RF-SCORE:    0.00 PKD
ROOT
HETATM    1  C   UNL     1      -7.406   3.802  64.569  1.00  0.00    -0.067 C  
HETATM    2  C   UNL     1      -8.768   4.338  64.887  1.00  0.00    -0.130 C  
HETATM    3  O   UNL     1      -9.711   3.658  65.263  1.00  0.00    -0.173 OA 
ENDROOT
BRANCH   2   4
HETATM    4  O   UNL     1      -8.791   5.718  64.644  1.00  0.00    -0.008 OA 
BRANCH   4   5
HETATM    5  C   UNL     1      -8.301   6.544  65.681  1.00  0.00    -0.144 A  
HETATM    6  C   UNL     1      -7.609   7.730  65.398  1.00  0.00    -0.089 A  
HETATM    7  C   UNL     1      -7.220   8.542  66.480  1.00  0.00    -0.080 A  
HETATM    8  C   UNL     1      -7.247   8.235  64.038  1.00  0.00    -0.090 C  
HETATM    9  O   UNL     1      -7.655   7.486  62.997  1.00  0.00    -0.103 OA 
HETATM   10  C   UNL     1      -7.500   8.178  67.802  1.00  0.00    -0.094 A  
HETATM   11  O   UNL     1      -6.611   9.265  63.873  1.00  0.00    -0.089 OA 
HETATM   12  C   UNL     1      -8.195   6.997  68.078  1.00  0.00    -0.119 A  
HETATM   13  C   UNL     1      -8.621   6.205  67.004  1.00  0.00    -0.108 A  
HETATM   14  C   UNL     1      -8.484   6.544  69.488  1.00  0.00    -0.131 C  
HETATM   15  F   UNL     1      -9.820   6.422  69.725  1.00  0.00    -0.163 F  
HETATM   16  F   UNL     1      -7.946   5.324  69.756  1.00  0.00    -0.074 F  
HETATM   17  F   UNL     1      -8.006   7.386  70.442  1.00  0.00    -0.096 F  
ENDBRANCH   4   5
ENDBRANCH   2   4
TORSDOF 2
ENDMDL
MODEL      217
REMARK 921   NORMALIZED FREE ENERGY PREDICTED BY IDOCK:   -1.58 KCAL/MOL
REMARK 922        TOTAL FREE ENERGY PREDICTED BY IDOCK:   -2.00 KCAL/MOL
REMARK 923 INTER-LIGAND FREE ENERGY PREDICTED BY IDOCK:   -1.90 KCAL/MOL
REMARK 924 INTRA-LIGAND FREE ENERGY PREDICTED BY IDOCK:   -0.10 KCAL/MOL
REMARK 927      BINDING AFFINITY PREDICTED BY RF-SCORE:    0.00 PKD
ROOT
HETATM    1  C   UNL     1      -7.503   3.524  67.360  1.00  0.00    -0.066 C  
HETATM    2  C   UNL     1      -8.926   3.203  67.699  1.00  0.00    -0.154 C  
HETATM    3  O   UNL     1      -9.272   2.358  68.511  1.00  0.00    -0.150 OA 
ENDROOT
BRANCH   2   4
HETATM    4  O   UNL     1      -9.778   3.991  66.914  1.00  0.00    -0.209 OA 
BRANCH   4   5
HETATM    5  C   UNL     1      -9.381   5.332  66.712  1.00  0.00    -0.134 A  
HETATM    6  C   UNL     1      -9.007   5.795  65.442  1.00  0.00    -0.047 A  
HETATM    7  C   UNL     1      -8.701   7.161  65.301  1.00  0.00     0.073 A  
HETATM    8  C   UNL     1      -8.912   4.971  64.198  1.00  0.00     0.007 C  
HETATM    9  O   UNL     1      -9.248   3.673  64.316  1.00  0.00    -0.121 OA 
HETATM   10  C   UNL     1      -8.752   8.037  66.392  1.00  0.00    -0.169 A  
HETATM   11  O   UNL     1      -8.546   5.441  63.131  1.00  0.00    -0.108 OA 
HETATM   12  C   UNL     1      -9.131   7.571  67.654  1.00  0.00    -0.127 A  
HETATM   13  C   UNL     1      -9.476   6.221  67.793  1.00  0.00    -0.118 A  
HETATM   14  C   UNL     1      -9.161   8.468  68.867  1.00  0.00    -0.146 C  
HETATM   15  F   UNL     1     -10.403   8.539  69.422  1.00  0.00    -0.196 F  
HETATM   16  F   UNL     1      -8.336   8.025  69.855  1.00  0.00    -0.113 F  
HETATM   17  F   UNL     1      -8.788   9.749  68.610  1.00  0.00    -0.118 F  
ENDBRANCH   4   5
ENDBRANCH   2   4
TORSDOF 2
ENDMDL
MODEL      218
REMARK 921   NORMALIZED FREE ENERGY PREDICTED BY IDOCK:   -1.51 KCAL/MOL
REMARK 922        TOTAL FREE ENERGY PREDICTED BY IDOCK:   -1.92 KCAL/MOL
REMARK 923 INTER-LIGAND FREE ENERGY PREDICTED BY IDOCK:   -1.96 KCAL/MOL
REMARK 924 INTRA-LIGAND FREE ENERGY PREDICTED BY IDOCK:    0.04 KCAL/MOL
REMARK 927      BINDING AFFINITY PREDICTED BY RF-SCORE:    0.00 PKD
ROOT
HETATM    1  C   UNL     1      -9.426  11.803  66.139  1.00  0.00    -0.240 C  
HETATM    2  C   UNL     1      -9.956  10.407  66.254  1.00  0.00    -0.226 C  
HETATM    3  O   UNL     1     -10.992  10.103  66.828  1.00  0.00    -0.125 OA 
ENDROOT
BRANCH   2   4
HETATM    4  O   UNL     1      -9.062   9.520  65.642  1.00  0.00    -0.171 OA 
BRANCH   4   5
HETATM    5  C   UNL     1      -8.715   8.368  66.384  1.00  0.00    -0.139 A  
HETATM    6  C   UNL     1      -8.303   7.190  65.745  1.00  0.00    -0.144 A  
HETATM    7  C   UNL     1      -7.898   6.109  66.549  1.00  0.00    -0.104 A  
HETATM    8  C   UNL     1      -8.237   6.967  64.268  1.00  0.00     0.045 C  
HETATM    9  O   UNL     1      -8.580   8.012  63.492  1.00  0.00     0.079 OA 
HETATM   10  C   UNL     1      -7.915   6.194  67.947  1.00  0.00    -0.110 A  
HETATM   11  O   UNL     1      -7.898   5.898  63.784  1.00  0.00    -0.103 OA 
HETATM   12  C   UNL     1      -8.322   7.373  68.578  1.00  0.00    -0.126 A  
HETATM   13  C   UNL     1      -8.688   8.466  67.783  1.00  0.00    -0.137 A  
HETATM   14  C   UNL     1      -8.395   7.497  70.080  1.00  0.00    -0.134 C  
HETATM   15  F   UNL     1      -7.588   8.487  70.554  1.00  0.00    -0.060 F  
HETATM   16  F   UNL     1      -9.650   7.801  70.510  1.00  0.00    -0.165 F  
HETATM   17  F   UNL     1      -8.034   6.365  70.741  1.00  0.00    -0.102 F  
ENDBRANCH   4   5
ENDBRANCH   2   4
TORSDOF 2
ENDMDL
MODEL      219
REMARK 921   NORMALIZED FREE ENERGY PREDICTED BY IDOCK:   -1.37 KCAL/MOL
REMARK 922        TOTAL FREE ENERGY PREDICTED BY IDOCK:   -1.77 KCAL/MOL
REMARK 923 INTER-LIGAND FREE ENERGY PREDICTED BY IDOCK:   -1.91 KCAL/MOL
REMARK 924 INTRA-LIGAND FREE ENERGY PREDICTED BY IDOCK:    0.14 KCAL/MOL
REMARK 927      BINDING AFFINITY PREDICTED BY RF-SCORE:    0.00 PKD
ROOT
HETATM    1  C   UNL     1      -6.592   4.563  63.099  1.00  0.00    -0.030 C  
HETATM    2  C   UNL     1      -7.832   5.395  63.220  1.00  0.00    -0.092 C  
HETATM    3  O   UNL     1      -8.965   4.988  63.006  1.00  0.00    -0.102 OA 
ENDROOT
BRANCH   2   4
HETATM    4  O   UNL     1      -7.478   6.704  63.573  1.00  0.00    -0.066 OA 
BRANCH   4   5
HETATM    5  C   UNL     1      -8.036   7.202  64.772  1.00  0.00    -0.122 A  
HETATM    6  C   UNL     1      -7.956   8.562  65.100  1.00  0.00    -0.130 A  
HETATM    7  C   UNL     1      -8.602   9.000  66.271  1.00  0.00    -0.140 A  
HETATM    8  C   UNL     1      -7.251   9.618  64.309  1.00  0.00    -0.122 C  
HETATM    9  O   UNL     1      -6.670   9.216  63.164  1.00  0.00    -0.091 OA 
HETATM   10  C   UNL     1      -9.295   8.106  67.097  1.00  0.00    -0.183 A  
HETATM   11  O   UNL     1      -7.197  10.782  64.677  1.00  0.00     0.109 OA 
HETATM   12  C   UNL     1      -9.376   6.752  66.763  1.00  0.00    -0.189 A  
HETATM   13  C   UNL     1      -8.769   6.318  65.577  1.00  0.00    -0.090 A  
HETATM   14  C   UNL     1     -10.076   5.746  67.643  1.00  0.00    -0.173 C  
HETATM   15  F   UNL     1     -11.104   5.127  66.998  1.00  0.00    -0.180 F  
HETATM   16  F   UNL     1      -9.242   4.753  68.054  1.00  0.00    -0.114 F  
HETATM   17  F   UNL     1     -10.608   6.284  68.773  1.00  0.00    -0.190 F  
ENDBRANCH   4   5
ENDBRANCH   2   4
TORSDOF 2
ENDMDL
MODEL      220
REMARK 921   NORMALIZED FREE ENERGY PREDICTED BY IDOCK:   -0.66 KCAL/MOL
REMARK 922        TOTAL FREE ENERGY PREDICTED BY IDOCK:   -0.98 KCAL/MOL
REMARK 923 INTER-LIGAND FREE ENERGY PREDICTED BY IDOCK:   -3.01 KCAL/MOL
REMARK 924 INTRA-LIGAND FREE ENERGY PREDICTED BY IDOCK:    2.04 KCAL/MOL
REMARK 927      BINDING AFFINITY PREDICTED BY RF-SCORE:    0.00 PKD
ROOT
HETATM    1  C   UNL     1     -11.313  12.326  67.617  1.00  0.00    -0.374 C  
HETATM    2  C   UNL     1     -10.612  11.009  67.751  1.00  0.00    -0.211 C  
HETATM    3  O   UNL     1     -10.925   9.991  67.151  1.00  0.00    -0.226 OA 
ENDROOT
BRANCH   2   4
HETATM    4  O   UNL     1      -9.582  11.127  68.694  1.00  0.00    -0.190 OA 
BRANCH   4   5
HETATM    5  C   UNL     1      -9.580  10.178  69.741  1.00  0.00    -0.177 A  
HETATM    6  C   UNL     1     -10.577  10.183  70.726  1.00  0.00    -0.073 A  
HETATM    7  C   UNL     1     -10.556   9.160  71.693  1.00  0.00    -0.427 A  
HETATM    8  C   UNL     1     -11.688  11.176  70.849  1.00  0.00     0.011 C  
HETATM    9  O   UNL     1     -11.740  12.130  69.902  1.00  0.00    -0.314 OA 
HETATM   10  C   UNL     1      -9.566   8.170  71.685  1.00  0.00    -0.237 A  
HETATM   11  O   UNL     1     -12.503  11.133  71.758  1.00  0.00    -0.237 OA 
HETATM   12  C   UNL     1      -8.578   8.167  70.697  1.00  0.00    -0.130 A  
HETATM   13  C   UNL     1      -8.616   9.159  69.709  1.00  0.00    -0.144 A  
HETATM   14  C   UNL     1      -7.467   7.145  70.673  1.00  0.00    -0.081 C  
HETATM   15  F   UNL     1      -7.467   6.414  69.524  1.00  0.00    -0.082 F  
HETATM   16  F   UNL     1      -6.236   7.721  70.748  1.00  0.00    -0.034 F  
HETATM   17  F   UNL     1      -7.526   6.248  71.692  1.00  0.00    -0.086 F  
ENDBRANCH   4   5
ENDBRANCH   2   4
TORSDOF 2
ENDMDL
MODEL      221
REMARK 921   NORMALIZED FREE ENERGY PREDICTED BY IDOCK:    1.81 KCAL/MOL
REMARK 922        TOTAL FREE ENERGY PREDICTED BY IDOCK:    1.78 KCAL/MOL
REMARK 923 INTER-LIGAND FREE ENERGY PREDICTED BY IDOCK:    1.79 KCAL/MOL
REMARK 924 INTRA-LIGAND FREE ENERGY PREDICTED BY IDOCK:   -0.01 KCAL/MOL
REMARK 927      BINDING AFFINITY PREDICTED BY RF-SCORE:    0.00 PKD
ROOT
HETATM    1  C   UNL     1     -12.151   5.490  66.153  1.00  0.00     3.177 C  
HETATM    2  C   UNL     1     -11.082   5.885  67.125  1.00  0.00    -0.051 C  
HETATM    3  O   UNL     1     -10.882   7.028  67.509  1.00  0.00    -0.263 OA 
ENDROOT
BRANCH   2   4
HETATM    4  O   UNL     1     -10.338   4.753  67.481  1.00  0.00    -0.106 OA 
BRANCH   4   5
HETATM    5  C   UNL     1      -8.938   4.844  67.311  1.00  0.00    -0.111 A  
HETATM    6  C   UNL     1      -8.101   5.217  68.372  1.00  0.00    -0.086 A  
HETATM    7  C   UNL     1      -6.711   5.210  68.152  1.00  0.00    -0.055 A  
HETATM    8  C   UNL     1      -8.544   5.616  69.744  1.00  0.00    -0.121 C  
HETATM    9  O   UNL     1      -9.869   5.581  69.976  1.00  0.00    -0.171 OA 
HETATM   10  C   UNL     1      -6.173   4.855  66.909  1.00  0.00    -0.032 A  
HETATM   11  O   UNL     1      -7.753   5.961  70.609  1.00  0.00    -0.092 OA 
HETATM   12  C   UNL     1      -7.012   4.479  65.857  1.00  0.00    -0.063 A  
HETATM   13  C   UNL     1      -8.394   4.445  66.081  1.00  0.00    -0.113 A  
HETATM   14  C   UNL     1      -6.479   4.129  64.488  1.00  0.00    -0.042 C  
HETATM   15  F   UNL     1      -6.805   2.858  64.121  1.00  0.00    -0.033 F  
HETATM   16  F   UNL     1      -6.983   4.938  63.518  1.00  0.00    -0.042 F  
HETATM   17  F   UNL     1      -5.127   4.217  64.389  1.00  0.00    -0.007 F  
ENDBRANCH   4   5
ENDBRANCH   2   4
TORSDOF 2
ENDMDL
MODEL      222
REMARK 921   NORMALIZED FREE ENERGY PREDICTED BY IDOCK:   23.34 KCAL/MOL
REMARK 922        TOTAL FREE ENERGY PREDICTED BY IDOCK:   25.83 KCAL/MOL
REMARK 923 INTER-LIGAND FREE ENERGY PREDICTED BY IDOCK:   23.94 KCAL/MOL
REMARK 924 INTRA-LIGAND FREE ENERGY PREDICTED BY IDOCK:    1.89 KCAL/MOL
REMARK 927      BINDING AFFINITY PREDICTED BY RF-SCORE:    0.00 PKD
ROOT
HETATM    1  C   UNL     1      -8.874  13.199  68.899  1.00  0.00     0.302 C  
HETATM    2  C   UNL     1      -9.054  11.713  68.875  1.00  0.00     0.072 C  
HETATM    3  O   UNL     1      -9.314  11.029  69.854  1.00  0.00     0.522 OA 
ENDROOT
BRANCH   2   4
HETATM    4  O   UNL     1      -8.838  11.241  67.573  1.00  0.00    -0.138 OA 
BRANCH   4   5
HETATM    5  C   UNL     1      -7.935  11.985  66.780  1.00  0.00    -0.060 A  
HETATM    6  C   UNL     1      -7.253  11.393  65.708  1.00  0.00     0.440 A  
HETATM    7  C   UNL     1      -6.432  12.213  64.913  1.00  0.00     5.061 A  
HETATM    8  C   UNL     1      -7.322   9.954  65.308  1.00  0.00    -0.131 C  
HETATM    9  O   UNL     1      -8.142   9.172  66.036  1.00  0.00    -0.107 OA 
HETATM   10  C   UNL     1      -6.284  13.579  65.185  1.00  0.00    12.684 A  
HETATM   11  O   UNL     1      -6.671   9.503  64.378  1.00  0.00    -0.091 OA 
HETATM   12  C   UNL     1      -6.970  14.165  66.252  1.00  0.00     3.734 A  
HETATM   13  C   UNL     1      -7.821  13.362  67.022  1.00  0.00     0.076 A  
HETATM   14  C   UNL     1      -6.810  15.623  66.608  1.00  0.00     0.714 C  
HETATM   15  F   UNL     1      -7.990  16.300  66.543  1.00  0.00    -0.242 F  
HETATM   16  F   UNL     1      -6.352  15.794  67.878  1.00  0.00    -0.103 F  
HETATM   17  F   UNL     1      -5.945  16.291  65.801  1.00  0.00     1.205 F  
ENDBRANCH   4   5
ENDBRANCH   2   4
TORSDOF 2
ENDMDL
